version 2
run Szenario_Hotel_Gabelbach-0-20180712-16:28:32-24992
attr configname Szenario_Hotel_Gabelbach
attr datetime 20180712-16:28:32
attr experiment Szenario_Hotel_Gabelbach
attr inifile omnetpp.ini
attr iterationvars "$replM=2, $biWeight=0.35, $replSearchM=1, $numUAVs=56"
attr iterationvarsf replM=2,biWeight=0.35,replSearchM=1,numUAVs=56-
attr measurement "$replM=2, $biWeight=0.35, $replSearchM=1, $numUAVs=56"
attr network OsgEarthNet
attr processid 24992
attr repetition 0
attr replication #0
attr resultdir results
attr runnumber 0
attr seedset 0
itervar biWeight 0.35
itervar numUAVs 56
itervar replM 2
itervar replSearchM 1
param *.osgEarthScene.scene "\"Szenario_Hotel_Gabelbach.earth\""
param *.playgroundLatitude 50.6830269
param *.playgroundLongitude 10.8538055
param *.playgroundWidth 3500m
param *.playgroundHeight 3500m
param *.cs[0].posX 3537m
param *.cs[0].posY 965m
param *.cs[0].posZ 538m
param *.cs[1].posX 312m
param *.cs[1].posY 1262m
param *.cs[1].posZ 539m
param *.cs[2].posX 2185m
param *.cs[2].posY 3026m
param *.cs[2].posZ 777m
param *.cs[3].posX 10m
param *.cs[3].posY 2200m
param *.cs[3].posZ 560m
param *.cs[4].posX 750m
param *.cs[4].posY 200m
param *.cs[4].posZ 540m
param *.cs[5].posX 2450m
param *.cs[5].posY 180m
param *.cs[5].posZ 524m
param *.cs[6].posX 3140m
param *.cs[6].posY 1790m
param *.cs[6].posZ 606m
param *.numCSs 3
param *.uav[*].replacementMethod 2
param *.uav[*].weightedSumWeight 0.35
param *.missionControl.replacementSearchMethod 1
param *.numUAVs 56
param *.numCSs 3
param *.numUAVs 100
param *.*.timeStep 10s
param *.uav[*].commandPreviewCommandCount 20
param *.missionControl.missionFiles "\"missions\\\\Szenario_WB_Hotel_Gabelbach_Mission_Hotel.waypoints,missions\\\\Szenario_WB_Hotel_Gabelbach_Mission_Kickelhahn.waypoints,missions\\\\Szenario_WB_Hotel_Gabelbach_Mission_Ilmenau_Sportplatz.waypoints,missions\\\\Szenario_WB_Hotel_Gabelbach_Mission_Manebach_Mitte.waypoints,missions\\\\Szenario_WB_Hotel_Gabelbach_Mission_Manebach_Sued.waypoints,missions\\\\Szenario_WB_Hotel_Gabelbach_Hover_HoheSchlaufe.waypoints,missions\\\\Szenario_WB_Hotel_Gabelbach_Hover_Kickelhahn.waypoints,missions\\\\Szenario_WB_Hotel_Gabelbach_Hover_Gabelbachskopf.waypoints,missions\\\\Szenario_WB_Hotel_Gabelbach_Hover_Dachskopf.waypoints\""
param *.uav[0].startX 3537m
param *.uav[0].startY 965m
param *.uav[0].startZ 539m
param *.uav[1].startX 312m
param *.uav[1].startY 1262m
param *.uav[1].startZ 540m
param *.uav[2].startX 2185m
param *.uav[2].startY 3026m
param *.uav[2].startZ 778m
param *.uav[3].startX 3537m
param *.uav[3].startY 965m
param *.uav[3].startZ 539m
param *.uav[4].startX 312m
param *.uav[4].startY 1262m
param *.uav[4].startZ 540m
param *.uav[5].startX 2185m
param *.uav[5].startY 3026m
param *.uav[5].startZ 778m
param *.uav[6].startX 3537m
param *.uav[6].startY 965m
param *.uav[6].startZ 539m
param *.uav[7].startX 312m
param *.uav[7].startY 1262m
param *.uav[7].startZ 540m
param *.uav[8].startX 2185m
param *.uav[8].startY 3026m
param *.uav[8].startZ 778m
param *.uav[9].startX 3537m
param *.uav[9].startY 965m
param *.uav[9].startZ 539m
param *.uav[10].startX 3537m
param *.uav[10].startY 965m
param *.uav[10].startZ 539m
param *.uav[11].startX 312m
param *.uav[11].startY 1262m
param *.uav[11].startZ 540m
param *.uav[12].startX 2185m
param *.uav[12].startY 3026m
param *.uav[12].startZ 778m
param *.uav[13].startX 3537m
param *.uav[13].startY 965m
param *.uav[13].startZ 539m
param *.uav[14].startX 312m
param *.uav[14].startY 1262m
param *.uav[14].startZ 540m
param *.uav[15].startX 2185m
param *.uav[15].startY 3026m
param *.uav[15].startZ 778m
param *.uav[16].startX 3537m
param *.uav[16].startY 965m
param *.uav[16].startZ 539m
param *.uav[17].startX 312m
param *.uav[17].startY 1262m
param *.uav[17].startZ 540m
param *.uav[18].startX 2185m
param *.uav[18].startY 3026m
param *.uav[18].startZ 778m
param *.uav[19].startX 3537m
param *.uav[19].startY 965m
param *.uav[19].startZ 539m
param *.uav[20].startX 3537m
param *.uav[20].startY 965m
param *.uav[20].startZ 539m
param *.uav[21].startX 312m
param *.uav[21].startY 1262m
param *.uav[21].startZ 540m
param *.uav[22].startX 2185m
param *.uav[22].startY 3026m
param *.uav[22].startZ 778m
param *.uav[23].startX 3537m
param *.uav[23].startY 965m
param *.uav[23].startZ 539m
param *.uav[24].startX 312m
param *.uav[24].startY 1262m
param *.uav[24].startZ 540m
param *.uav[25].startX 2185m
param *.uav[25].startY 3026m
param *.uav[25].startZ 778m
param *.uav[26].startX 3537m
param *.uav[26].startY 965m
param *.uav[26].startZ 539m
param *.uav[27].startX 312m
param *.uav[27].startY 1262m
param *.uav[27].startZ 540m
param *.uav[28].startX 2185m
param *.uav[28].startY 3026m
param *.uav[28].startZ 778m
param *.uav[29].startX 3537m
param *.uav[29].startY 965m
param *.uav[29].startZ 539m
param *.uav[30].startX 3537m
param *.uav[30].startY 965m
param *.uav[30].startZ 539m
param *.uav[31].startX 312m
param *.uav[31].startY 1262m
param *.uav[31].startZ 540m
param *.uav[32].startX 2185m
param *.uav[32].startY 3026m
param *.uav[32].startZ 778m
param *.uav[33].startX 3537m
param *.uav[33].startY 965m
param *.uav[33].startZ 539m
param *.uav[34].startX 312m
param *.uav[34].startY 1262m
param *.uav[34].startZ 540m
param *.uav[35].startX 2185m
param *.uav[35].startY 3026m
param *.uav[35].startZ 778m
param *.uav[36].startX 3537m
param *.uav[36].startY 965m
param *.uav[36].startZ 539m
param *.uav[37].startX 312m
param *.uav[37].startY 1262m
param *.uav[37].startZ 540m
param *.uav[38].startX 2185m
param *.uav[38].startY 3026m
param *.uav[38].startZ 778m
param *.uav[39].startX 3537m
param *.uav[39].startY 965m
param *.uav[39].startZ 539m
param *.uav[40].startX 3537m
param *.uav[40].startY 965m
param *.uav[40].startZ 539m
param *.uav[41].startX 312m
param *.uav[41].startY 1262m
param *.uav[41].startZ 540m
param *.uav[42].startX 2185m
param *.uav[42].startY 3026m
param *.uav[42].startZ 778m
param *.uav[43].startX 3537m
param *.uav[43].startY 965m
param *.uav[43].startZ 539m
param *.uav[44].startX 312m
param *.uav[44].startY 1262m
param *.uav[44].startZ 540m
param *.uav[45].startX 2185m
param *.uav[45].startY 3026m
param *.uav[45].startZ 778m
param *.uav[46].startX 3537m
param *.uav[46].startY 965m
param *.uav[46].startZ 539m
param *.uav[47].startX 312m
param *.uav[47].startY 1262m
param *.uav[47].startZ 540m
param *.uav[48].startX 2185m
param *.uav[48].startY 3026m
param *.uav[48].startZ 778m
param *.uav[49].startX 3537m
param *.uav[49].startY 965m
param *.uav[49].startZ 539m
param *.uav[50].startX 3537m
param *.uav[50].startY 965m
param *.uav[50].startZ 539m
param *.uav[51].startX 312m
param *.uav[51].startY 1262m
param *.uav[51].startZ 540m
param *.uav[52].startX 2185m
param *.uav[52].startY 3026m
param *.uav[52].startZ 778m
param *.uav[53].startX 3537m
param *.uav[53].startY 965m
param *.uav[53].startZ 539m
param *.uav[54].startX 312m
param *.uav[54].startY 1262m
param *.uav[54].startZ 540m
param *.uav[55].startX 2185m
param *.uav[55].startY 3026m
param *.uav[55].startZ 778m
param *.uav[56].startX 3537m
param *.uav[56].startY 965m
param *.uav[56].startZ 539m
param *.uav[57].startX 312m
param *.uav[57].startY 1262m
param *.uav[57].startZ 540m
param *.uav[58].startX 2185m
param *.uav[58].startY 3026m
param *.uav[58].startZ 778m
param *.uav[59].startX 3537m
param *.uav[59].startY 965m
param *.uav[59].startZ 539m
param *.uav[60].startX 3537m
param *.uav[60].startY 965m
param *.uav[60].startZ 539m
param *.uav[61].startX 312m
param *.uav[61].startY 1262m
param *.uav[61].startZ 540m
param *.uav[62].startX 2185m
param *.uav[62].startY 3026m
param *.uav[62].startZ 778m
param *.uav[63].startX 3537m
param *.uav[63].startY 965m
param *.uav[63].startZ 539m
param *.uav[64].startX 312m
param *.uav[64].startY 1262m
param *.uav[64].startZ 540m
param *.uav[65].startX 2185m
param *.uav[65].startY 3026m
param *.uav[65].startZ 778m
param *.uav[66].startX 3537m
param *.uav[66].startY 965m
param *.uav[66].startZ 539m
param *.uav[67].startX 312m
param *.uav[67].startY 1262m
param *.uav[67].startZ 540m
param *.uav[68].startX 2185m
param *.uav[68].startY 3026m
param *.uav[68].startZ 778m
param *.uav[69].startX 3537m
param *.uav[69].startY 965m
param *.uav[69].startZ 539m
param *.uav[70].startX 3537m
param *.uav[70].startY 965m
param *.uav[70].startZ 539m
param *.uav[71].startX 312m
param *.uav[71].startY 1262m
param *.uav[71].startZ 540m
param *.uav[72].startX 2185m
param *.uav[72].startY 3026m
param *.uav[72].startZ 778m
param *.uav[73].startX 3537m
param *.uav[73].startY 965m
param *.uav[73].startZ 539m
param *.uav[74].startX 312m
param *.uav[74].startY 1262m
param *.uav[74].startZ 540m
param *.uav[75].startX 2185m
param *.uav[75].startY 3026m
param *.uav[75].startZ 778m
param *.uav[76].startX 3537m
param *.uav[76].startY 965m
param *.uav[76].startZ 539m
param *.uav[77].startX 312m
param *.uav[77].startY 1262m
param *.uav[77].startZ 540m
param *.uav[78].startX 2185m
param *.uav[78].startY 3026m
param *.uav[78].startZ 778m
param *.uav[79].startX 3537m
param *.uav[79].startY 965m
param *.uav[79].startZ 539m
param *.uav[80].startX 3537m
param *.uav[80].startY 965m
param *.uav[80].startZ 539m
param *.uav[81].startX 312m
param *.uav[81].startY 1262m
param *.uav[81].startZ 540m
param *.uav[82].startX 2185m
param *.uav[82].startY 3026m
param *.uav[82].startZ 778m
param *.uav[83].startX 3537m
param *.uav[83].startY 965m
param *.uav[83].startZ 539m
param *.uav[84].startX 312m
param *.uav[84].startY 1262m
param *.uav[84].startZ 540m
param *.uav[85].startX 2185m
param *.uav[85].startY 3026m
param *.uav[85].startZ 778m
param *.uav[86].startX 3537m
param *.uav[86].startY 965m
param *.uav[86].startZ 539m
param *.uav[87].startX 312m
param *.uav[87].startY 1262m
param *.uav[87].startZ 540m
param *.uav[88].startX 2185m
param *.uav[88].startY 3026m
param *.uav[88].startZ 778m
param *.uav[89].startX 3537m
param *.uav[89].startY 965m
param *.uav[89].startZ 539m
param *.uav[90].startX 3537m
param *.uav[90].startY 965m
param *.uav[90].startZ 539m
param *.uav[91].startX 312m
param *.uav[91].startY 1262m
param *.uav[91].startZ 540m
param *.uav[92].startX 2185m
param *.uav[92].startY 3026m
param *.uav[92].startZ 778m
param *.uav[93].startX 3537m
param *.uav[93].startY 965m
param *.uav[93].startZ 539m
param *.uav[94].startX 312m
param *.uav[94].startY 1262m
param *.uav[94].startZ 540m
param *.uav[95].startX 2185m
param *.uav[95].startY 3026m
param *.uav[95].startZ 778m
param *.uav[96].startX 3537m
param *.uav[96].startY 965m
param *.uav[96].startZ 539m
param *.uav[97].startX 312m
param *.uav[97].startY 1262m
param *.uav[97].startZ 540m
param *.uav[98].startX 2185m
param *.uav[98].startY 3026m
param *.uav[98].startZ 778m
param *.uav[99].startX 3537m
param *.uav[99].startY 965m
param *.uav[99].startZ 539m
param *.osgEarthScene.scene "\"boston.earth\""
param *.playgroundLatitude 42.3558
param *.playgroundLongitude -71.0677
param *.playgroundWidth 400m
param *.playgroundHeight 200m
param *.channelController.connectionColor "\"#0000FF40\""
param *.channelController.showConnections false
param *.uav[*].modelURL "\"quadrocopter.small.obj.15.scale.0,0,90.rot\""
param *.uav[*].labelColor "\"#FF7C00CC\""
param *.uav[*].label2Color "\"#FF7C00EE\""
param *.uav[*].batteryCapacity 5200mAh
param *.uav[*].batteryRemaining uav[index].batteryCapacity
param *.uav[*].predictionQuantile 0.95
param *.uav[*].replacementMethod 2
param *.uav[*].weightedSumWeight 0.5
param *.cs[*].modelURL "\"chargingstation_v1.osgt.2.scale.0,0,0.rot.0,0,-15e-1.trans\""
param *.cs[*].spotsWaiting 999
param *.cs[*].spotsCharging 999
param *.cs[*].chargeEffectivenessPercentage 100
param *.cs[*].nonLinearPhaseStartPercentage 85
param *.cs[*].chargeCurrent 6.0A
param *.cs[*].prioritizeFastCharge true
param *.missionControl.replacementSearchMethod 0
param *.*.timeStep 9s

scalar OsgEarthNet.uav[0] utilizationSecMission 193048.00884956
scalar OsgEarthNet.uav[0] utilizationSecMaintenance 103431.03989478
scalar OsgEarthNet.uav[0] utilizationSecCharge 909660
scalar OsgEarthNet.uav[0] utilizationSecIdle 3460.9502556647
scalar OsgEarthNet.uav[0] utilizationEnergyMission 931078.94654465
scalar OsgEarthNet.uav[0] utilizationEnergyMaintenance 485936.84318417
scalar OsgEarthNet.uav[0] utilizationEnergyCharge 1417167.3293457
scalar OsgEarthNet.uav[0] utilizationEnergyOverdrawMission 0
scalar OsgEarthNet.uav[0] utilizationEnergyOverdrawMaintenance 0
scalar OsgEarthNet.uav[0] utilizationCountMissions 336
scalar OsgEarthNet.uav[0] utilizationCountManeuversMission 5624
scalar OsgEarthNet.uav[0] utilizationCountManeuversMaintenance 673
scalar OsgEarthNet.uav[0] utilizationCountChargeState 336
scalar OsgEarthNet.uav[0] utilizationCountOverdrawnAfterMission 0
scalar OsgEarthNet.uav[0] utilizationCountIdleState 1
scalar OsgEarthNet.uav[0] utilizationFail 0
scalar OsgEarthNet.uav[0] simulationTime 1209600
scalar OsgEarthNet.uav[1] utilizationSecMission 183857.79155007
scalar OsgEarthNet.uav[1] utilizationSecMaintenance 119619.60257738
scalar OsgEarthNet.uav[1] utilizationSecCharge 903467.16178386
scalar OsgEarthNet.uav[1] utilizationSecIdle 2655.443088691
scalar OsgEarthNet.uav[1] utilizationEnergyMission 896361.46537399
scalar OsgEarthNet.uav[1] utilizationEnergyMaintenance 563787.90806961
scalar OsgEarthNet.uav[1] utilizationEnergyCharge 1463688.8312988
scalar OsgEarthNet.uav[1] utilizationEnergyOverdrawMission 0
scalar OsgEarthNet.uav[1] utilizationEnergyOverdrawMaintenance 0
scalar OsgEarthNet.uav[1] utilizationCountMissions 343
scalar OsgEarthNet.uav[1] utilizationCountManeuversMission 6146
scalar OsgEarthNet.uav[1] utilizationCountManeuversMaintenance 686
scalar OsgEarthNet.uav[1] utilizationCountChargeState 343
scalar OsgEarthNet.uav[1] utilizationCountOverdrawnAfterMission 0
scalar OsgEarthNet.uav[1] utilizationCountIdleState 4
scalar OsgEarthNet.uav[1] utilizationFail 0
scalar OsgEarthNet.uav[1] simulationTime 1209600
scalar OsgEarthNet.uav[2] utilizationSecMission 189817.75166143
scalar OsgEarthNet.uav[2] utilizationSecMaintenance 110067.75167713
scalar OsgEarthNet.uav[2] utilizationSecCharge 908243.04270273
scalar OsgEarthNet.uav[2] utilizationSecIdle 1471.4529587171
scalar OsgEarthNet.uav[2] utilizationEnergyMission 922545.58257675
scalar OsgEarthNet.uav[2] utilizationEnergyMaintenance 516783.24087906
scalar OsgEarthNet.uav[2] utilizationEnergyCharge 1433203.2785645
scalar OsgEarthNet.uav[2] utilizationEnergyOverdrawMission 0
scalar OsgEarthNet.uav[2] utilizationEnergyOverdrawMaintenance 0
scalar OsgEarthNet.uav[2] utilizationCountMissions 338
scalar OsgEarthNet.uav[2] utilizationCountManeuversMission 5839
scalar OsgEarthNet.uav[2] utilizationCountManeuversMaintenance 676
scalar OsgEarthNet.uav[2] utilizationCountChargeState 338
scalar OsgEarthNet.uav[2] utilizationCountOverdrawnAfterMission 0
scalar OsgEarthNet.uav[2] utilizationCountIdleState 1
scalar OsgEarthNet.uav[2] utilizationFail 0
scalar OsgEarthNet.uav[2] simulationTime 1209600
scalar OsgEarthNet.uav[3] utilizationSecMission 185341.76881525
scalar OsgEarthNet.uav[3] utilizationSecMaintenance 114134.55880085
scalar OsgEarthNet.uav[3] utilizationSecCharge 908451.53157075
scalar OsgEarthNet.uav[3] utilizationSecIdle 1672.1398131443
scalar OsgEarthNet.uav[3] utilizationEnergyMission 902125.82133865
scalar OsgEarthNet.uav[3] utilizationEnergyMaintenance 538443.40643692
scalar OsgEarthNet.uav[3] utilizationEnergyCharge 1437557.9980469
scalar OsgEarthNet.uav[3] utilizationEnergyOverdrawMission 0
scalar OsgEarthNet.uav[3] utilizationEnergyOverdrawMaintenance 0
scalar OsgEarthNet.uav[3] utilizationCountMissions 340
scalar OsgEarthNet.uav[3] utilizationCountManeuversMission 5840
scalar OsgEarthNet.uav[3] utilizationCountManeuversMaintenance 680
scalar OsgEarthNet.uav[3] utilizationCountChargeState 340
scalar OsgEarthNet.uav[3] utilizationCountOverdrawnAfterMission 0
scalar OsgEarthNet.uav[3] utilizationCountIdleState 1
scalar OsgEarthNet.uav[3] utilizationFail 0
scalar OsgEarthNet.uav[3] simulationTime 1209600
scalar OsgEarthNet.uav[4] utilizationSecMission 186146.48860606
scalar OsgEarthNet.uav[4] utilizationSecMaintenance 111180.13562788
scalar OsgEarthNet.uav[4] utilizationSecCharge 912271.37476606
scalar OsgEarthNet.uav[4] utilizationSecIdle 2
scalar OsgEarthNet.uav[4] utilizationEnergyMission 896206.49998474
scalar OsgEarthNet.uav[4] utilizationEnergyMaintenance 524761.15251541
scalar OsgEarthNet.uav[4] utilizationEnergyCharge 1420970.0084229
scalar OsgEarthNet.uav[4] utilizationEnergyOverdrawMission 0
scalar OsgEarthNet.uav[4] utilizationEnergyOverdrawMaintenance 0
scalar OsgEarthNet.uav[4] utilizationCountMissions 343
scalar OsgEarthNet.uav[4] utilizationCountManeuversMission 5668
scalar OsgEarthNet.uav[4] utilizationCountManeuversMaintenance 685
scalar OsgEarthNet.uav[4] utilizationCountChargeState 343
scalar OsgEarthNet.uav[4] utilizationCountOverdrawnAfterMission 0
scalar OsgEarthNet.uav[4] utilizationCountIdleState 1
scalar OsgEarthNet.uav[4] utilizationFail 0
scalar OsgEarthNet.uav[4] simulationTime 1209600
scalar OsgEarthNet.uav[5] utilizationSecMission 201120.01357379
scalar OsgEarthNet.uav[5] utilizationSecMaintenance 98247.982426212
scalar OsgEarthNet.uav[5] utilizationSecCharge 908670
scalar OsgEarthNet.uav[5] utilizationSecIdle 1562.003
scalar OsgEarthNet.uav[5] utilizationEnergyMission 984553.60737991
scalar OsgEarthNet.uav[5] utilizationEnergyMaintenance 459389.15909047
scalar OsgEarthNet.uav[5] utilizationEnergyCharge 1443009.1096191
scalar OsgEarthNet.uav[5] utilizationEnergyOverdrawMission 0
scalar OsgEarthNet.uav[5] utilizationEnergyOverdrawMaintenance 0
scalar OsgEarthNet.uav[5] utilizationCountMissions 329
scalar OsgEarthNet.uav[5] utilizationCountManeuversMission 6626
scalar OsgEarthNet.uav[5] utilizationCountManeuversMaintenance 659
scalar OsgEarthNet.uav[5] utilizationCountChargeState 329
scalar OsgEarthNet.uav[5] utilizationCountOverdrawnAfterMission 0
scalar OsgEarthNet.uav[5] utilizationCountIdleState 1
scalar OsgEarthNet.uav[5] utilizationFail 0
scalar OsgEarthNet.uav[5] simulationTime 1209600
scalar OsgEarthNet.uav[6] utilizationSecMission 202311.20603987
scalar OsgEarthNet.uav[6] utilizationSecMaintenance 100371.62661595
scalar OsgEarthNet.uav[6] utilizationSecCharge 903335.15934418
scalar OsgEarthNet.uav[6] utilizationSecIdle 3582.007
scalar OsgEarthNet.uav[6] utilizationEnergyMission 979648.54471207
scalar OsgEarthNet.uav[6] utilizationEnergyMaintenance 467951.48838425
scalar OsgEarthNet.uav[6] utilizationEnergyCharge 1440212.4535522
scalar OsgEarthNet.uav[6] utilizationEnergyOverdrawMission 0
scalar OsgEarthNet.uav[6] utilizationEnergyOverdrawMaintenance 0
scalar OsgEarthNet.uav[6] utilizationCountMissions 331
scalar OsgEarthNet.uav[6] utilizationCountManeuversMission 6235
scalar OsgEarthNet.uav[6] utilizationCountManeuversMaintenance 662
scalar OsgEarthNet.uav[6] utilizationCountChargeState 331
scalar OsgEarthNet.uav[6] utilizationCountOverdrawnAfterMission 0
scalar OsgEarthNet.uav[6] utilizationCountIdleState 2
scalar OsgEarthNet.uav[6] utilizationFail 0
scalar OsgEarthNet.uav[6] simulationTime 1209600
scalar OsgEarthNet.uav[7] utilizationSecMission 203850.01962939
scalar OsgEarthNet.uav[7] utilizationSecMaintenance 96766.107831196
scalar OsgEarthNet.uav[7] utilizationSecCharge 906791.86753942
scalar OsgEarthNet.uav[7] utilizationSecIdle 2192.004
scalar OsgEarthNet.uav[7] utilizationEnergyMission 997978.4631691
scalar OsgEarthNet.uav[7] utilizationEnergyMaintenance 449580.81072617
scalar OsgEarthNet.uav[7] utilizationEnergyCharge 1446835.3232422
scalar OsgEarthNet.uav[7] utilizationEnergyOverdrawMission 0
scalar OsgEarthNet.uav[7] utilizationEnergyOverdrawMaintenance 0
scalar OsgEarthNet.uav[7] utilizationCountMissions 328
scalar OsgEarthNet.uav[7] utilizationCountManeuversMission 6904
scalar OsgEarthNet.uav[7] utilizationCountManeuversMaintenance 656
scalar OsgEarthNet.uav[7] utilizationCountChargeState 328
scalar OsgEarthNet.uav[7] utilizationCountOverdrawnAfterMission 0
scalar OsgEarthNet.uav[7] utilizationCountIdleState 2
scalar OsgEarthNet.uav[7] utilizationFail 0
scalar OsgEarthNet.uav[7] simulationTime 1209600
scalar OsgEarthNet.uav[8] utilizationSecMission 195429.64440633
scalar OsgEarthNet.uav[8] utilizationSecMaintenance 104708.35459367
scalar OsgEarthNet.uav[8] utilizationSecCharge 909460
scalar OsgEarthNet.uav[8] utilizationSecIdle 2
scalar OsgEarthNet.uav[8] utilizationEnergyMission 951590.7964609
scalar OsgEarthNet.uav[8] utilizationEnergyMaintenance 492152.42381611
scalar OsgEarthNet.uav[8] utilizationEnergyCharge 1440891.2409668
scalar OsgEarthNet.uav[8] utilizationEnergyOverdrawMission 0
scalar OsgEarthNet.uav[8] utilizationEnergyOverdrawMaintenance 0
scalar OsgEarthNet.uav[8] utilizationCountMissions 334
scalar OsgEarthNet.uav[8] utilizationCountManeuversMission 5998
scalar OsgEarthNet.uav[8] utilizationCountManeuversMaintenance 667
scalar OsgEarthNet.uav[8] utilizationCountChargeState 333
scalar OsgEarthNet.uav[8] utilizationCountOverdrawnAfterMission 0
scalar OsgEarthNet.uav[8] utilizationCountIdleState 1
scalar OsgEarthNet.uav[8] utilizationFail 0
scalar OsgEarthNet.uav[8] simulationTime 1209600
scalar OsgEarthNet.uav[9] utilizationSecMission 177923.10564218
scalar OsgEarthNet.uav[9] utilizationSecMaintenance 120348.89202319
scalar OsgEarthNet.uav[9] utilizationSecCharge 911306.00133463
scalar OsgEarthNet.uav[9] utilizationSecIdle 22
scalar OsgEarthNet.uav[9] utilizationEnergyMission 867743.27218246
scalar OsgEarthNet.uav[9] utilizationEnergyMaintenance 570726.92412949
scalar OsgEarthNet.uav[9] utilizationEnergyCharge 1435037.0556641
scalar OsgEarthNet.uav[9] utilizationEnergyOverdrawMission 0
scalar OsgEarthNet.uav[9] utilizationEnergyOverdrawMaintenance 0
scalar OsgEarthNet.uav[9] utilizationCountMissions 346
scalar OsgEarthNet.uav[9] utilizationCountManeuversMission 5797
scalar OsgEarthNet.uav[9] utilizationCountManeuversMaintenance 691
scalar OsgEarthNet.uav[9] utilizationCountChargeState 346
scalar OsgEarthNet.uav[9] utilizationCountOverdrawnAfterMission 0
scalar OsgEarthNet.uav[9] utilizationCountIdleState 2
scalar OsgEarthNet.uav[9] utilizationFail 0
scalar OsgEarthNet.uav[9] simulationTime 1209600
scalar OsgEarthNet.uav[10] utilizationSecMission 184719.03420356
scalar OsgEarthNet.uav[10] utilizationSecMaintenance 114276.2046414
scalar OsgEarthNet.uav[10] utilizationSecCharge 907673.85747267
scalar OsgEarthNet.uav[10] utilizationSecIdle 2930.9026823698
scalar OsgEarthNet.uav[10] utilizationEnergyMission 896252.79478836
scalar OsgEarthNet.uav[10] utilizationEnergyMaintenance 539865.00442123
scalar OsgEarthNet.uav[10] utilizationEnergyCharge 1430505.5031738
scalar OsgEarthNet.uav[10] utilizationEnergyOverdrawMission 0
scalar OsgEarthNet.uav[10] utilizationEnergyOverdrawMaintenance 0
scalar OsgEarthNet.uav[10] utilizationCountMissions 341
scalar OsgEarthNet.uav[10] utilizationCountManeuversMission 5961
scalar OsgEarthNet.uav[10] utilizationCountManeuversMaintenance 682
scalar OsgEarthNet.uav[10] utilizationCountChargeState 341
scalar OsgEarthNet.uav[10] utilizationCountOverdrawnAfterMission 0
scalar OsgEarthNet.uav[10] utilizationCountIdleState 1
scalar OsgEarthNet.uav[10] utilizationFail 0
scalar OsgEarthNet.uav[10] simulationTime 1209600
scalar OsgEarthNet.uav[11] utilizationSecMission 189616.15728367
scalar OsgEarthNet.uav[11] utilizationSecMaintenance 110797.5722796
scalar OsgEarthNet.uav[11] utilizationSecCharge 906738.9533549
scalar OsgEarthNet.uav[11] utilizationSecIdle 2447.3160818306
scalar OsgEarthNet.uav[11] utilizationEnergyMission 917153.4832077
scalar OsgEarthNet.uav[11] utilizationEnergyMaintenance 521574.3913269
scalar OsgEarthNet.uav[11] utilizationEnergyCharge 1432266.284668
scalar OsgEarthNet.uav[11] utilizationEnergyOverdrawMission 0
scalar OsgEarthNet.uav[11] utilizationEnergyOverdrawMaintenance 0
scalar OsgEarthNet.uav[11] utilizationCountMissions 342
scalar OsgEarthNet.uav[11] utilizationCountManeuversMission 5784
scalar OsgEarthNet.uav[11] utilizationCountManeuversMaintenance 684
scalar OsgEarthNet.uav[11] utilizationCountChargeState 342
scalar OsgEarthNet.uav[11] utilizationCountOverdrawnAfterMission 0
scalar OsgEarthNet.uav[11] utilizationCountIdleState 2
scalar OsgEarthNet.uav[11] utilizationFail 0
scalar OsgEarthNet.uav[11] simulationTime 1209600
scalar OsgEarthNet.uav[12] utilizationSecMission 201621.87104923
scalar OsgEarthNet.uav[12] utilizationSecMaintenance 99746.127950771
scalar OsgEarthNet.uav[12] utilizationSecCharge 908230
scalar OsgEarthNet.uav[12] utilizationSecIdle 2
scalar OsgEarthNet.uav[12] utilizationEnergyMission 971132.95258257
scalar OsgEarthNet.uav[12] utilizationEnergyMaintenance 466768.40994644
scalar OsgEarthNet.uav[12] utilizationEnergyCharge 1438009.8481445
scalar OsgEarthNet.uav[12] utilizationEnergyOverdrawMission 0
scalar OsgEarthNet.uav[12] utilizationEnergyOverdrawMaintenance 0
scalar OsgEarthNet.uav[12] utilizationCountMissions 330
scalar OsgEarthNet.uav[12] utilizationCountManeuversMission 6074
scalar OsgEarthNet.uav[12] utilizationCountManeuversMaintenance 660
scalar OsgEarthNet.uav[12] utilizationCountChargeState 330
scalar OsgEarthNet.uav[12] utilizationCountOverdrawnAfterMission 0
scalar OsgEarthNet.uav[12] utilizationCountIdleState 1
scalar OsgEarthNet.uav[12] utilizationFail 0
scalar OsgEarthNet.uav[12] simulationTime 1209600
scalar OsgEarthNet.uav[13] utilizationSecMission 188547.75808907
scalar OsgEarthNet.uav[13] utilizationSecMaintenance 114020.8264468
scalar OsgEarthNet.uav[13] utilizationSecCharge 906029.90080319
scalar OsgEarthNet.uav[13] utilizationSecIdle 1001.5136609497
scalar OsgEarthNet.uav[13] utilizationEnergyMission 923002.27841568
scalar OsgEarthNet.uav[13] utilizationEnergyMaintenance 535324.70928574
scalar OsgEarthNet.uav[13] utilizationEnergyCharge 1448125.7544556
scalar OsgEarthNet.uav[13] utilizationEnergyOverdrawMission 0
scalar OsgEarthNet.uav[13] utilizationEnergyOverdrawMaintenance 0
scalar OsgEarthNet.uav[13] utilizationCountMissions 340
scalar OsgEarthNet.uav[13] utilizationCountManeuversMission 6238
scalar OsgEarthNet.uav[13] utilizationCountManeuversMaintenance 680
scalar OsgEarthNet.uav[13] utilizationCountChargeState 340
scalar OsgEarthNet.uav[13] utilizationCountOverdrawnAfterMission 0
scalar OsgEarthNet.uav[13] utilizationCountIdleState 2
scalar OsgEarthNet.uav[13] utilizationFail 0
scalar OsgEarthNet.uav[13] simulationTime 1209600
scalar OsgEarthNet.uav[14] utilizationSecMission 201158.08490581
scalar OsgEarthNet.uav[14] utilizationSecMaintenance 98558.907876534
scalar OsgEarthNet.uav[14] utilizationSecCharge 908074.65261478
scalar OsgEarthNet.uav[14] utilizationSecIdle 1808.3536028792
scalar OsgEarthNet.uav[14] utilizationEnergyMission 976601.82307816
scalar OsgEarthNet.uav[14] utilizationEnergyMaintenance 457953.31098557
scalar OsgEarthNet.uav[14] utilizationEnergyCharge 1435607.4287109
scalar OsgEarthNet.uav[14] utilizationEnergyOverdrawMission 0
scalar OsgEarthNet.uav[14] utilizationEnergyOverdrawMaintenance 0
scalar OsgEarthNet.uav[14] utilizationCountMissions 328
scalar OsgEarthNet.uav[14] utilizationCountManeuversMission 6454
scalar OsgEarthNet.uav[14] utilizationCountManeuversMaintenance 656
scalar OsgEarthNet.uav[14] utilizationCountChargeState 328
scalar OsgEarthNet.uav[14] utilizationCountOverdrawnAfterMission 0
scalar OsgEarthNet.uav[14] utilizationCountIdleState 1
scalar OsgEarthNet.uav[14] utilizationFail 0
scalar OsgEarthNet.uav[14] simulationTime 1209600
scalar OsgEarthNet.uav[15] utilizationSecMission 193533.3103571
scalar OsgEarthNet.uav[15] utilizationSecMaintenance 106436.22944666
scalar OsgEarthNet.uav[15] utilizationSecCharge 908191.03384896
scalar OsgEarthNet.uav[15] utilizationSecIdle 1439.4253472904
scalar OsgEarthNet.uav[15] utilizationEnergyMission 945971.62859344
scalar OsgEarthNet.uav[15] utilizationEnergyMaintenance 497680.14992523
scalar OsgEarthNet.uav[15] utilizationEnergyCharge 1436786.1761475
scalar OsgEarthNet.uav[15] utilizationEnergyOverdrawMission 0
scalar OsgEarthNet.uav[15] utilizationEnergyOverdrawMaintenance 0
scalar OsgEarthNet.uav[15] utilizationCountMissions 336
scalar OsgEarthNet.uav[15] utilizationCountManeuversMission 6286
scalar OsgEarthNet.uav[15] utilizationCountManeuversMaintenance 672
scalar OsgEarthNet.uav[15] utilizationCountChargeState 336
scalar OsgEarthNet.uav[15] utilizationCountOverdrawnAfterMission 0
scalar OsgEarthNet.uav[15] utilizationCountIdleState 1
scalar OsgEarthNet.uav[15] utilizationFail 0
scalar OsgEarthNet.uav[15] simulationTime 1209600
scalar OsgEarthNet.uav[16] utilizationSecMission 182310.00093221
scalar OsgEarthNet.uav[16] utilizationSecMaintenance 111539.04981213
scalar OsgEarthNet.uav[16] utilizationSecCharge 913230
scalar OsgEarthNet.uav[16] utilizationSecIdle 2520.9482556647
scalar OsgEarthNet.uav[16] utilizationEnergyMission 882122.85553558
scalar OsgEarthNet.uav[16] utilizationEnergyMaintenance 531380.96123886
scalar OsgEarthNet.uav[16] utilizationEnergyCharge 1405342.7324219
scalar OsgEarthNet.uav[16] utilizationEnergyOverdrawMission 0
scalar OsgEarthNet.uav[16] utilizationEnergyOverdrawMaintenance 0
scalar OsgEarthNet.uav[16] utilizationCountMissions 343
scalar OsgEarthNet.uav[16] utilizationCountManeuversMission 5387
scalar OsgEarthNet.uav[16] utilizationCountManeuversMaintenance 687
scalar OsgEarthNet.uav[16] utilizationCountChargeState 343
scalar OsgEarthNet.uav[16] utilizationCountOverdrawnAfterMission 0
scalar OsgEarthNet.uav[16] utilizationCountIdleState 1
scalar OsgEarthNet.uav[16] utilizationFail 0
scalar OsgEarthNet.uav[16] simulationTime 1209600
scalar OsgEarthNet.uav[17] utilizationSecMission 186966.23700776
scalar OsgEarthNet.uav[17] utilizationSecMaintenance 105729.34103819
scalar OsgEarthNet.uav[17] utilizationSecCharge 914260
scalar OsgEarthNet.uav[17] utilizationSecIdle 2644.4209540413
scalar OsgEarthNet.uav[17] utilizationEnergyMission 902786.74587038
scalar OsgEarthNet.uav[17] utilizationEnergyMaintenance 495974.98623657
scalar OsgEarthNet.uav[17] utilizationEnergyCharge 1401181.4841309
scalar OsgEarthNet.uav[17] utilizationEnergyOverdrawMission 0
scalar OsgEarthNet.uav[17] utilizationEnergyOverdrawMaintenance 0
scalar OsgEarthNet.uav[17] utilizationCountMissions 335
scalar OsgEarthNet.uav[17] utilizationCountManeuversMission 5878
scalar OsgEarthNet.uav[17] utilizationCountManeuversMaintenance 671
scalar OsgEarthNet.uav[17] utilizationCountChargeState 335
scalar OsgEarthNet.uav[17] utilizationCountOverdrawnAfterMission 0
scalar OsgEarthNet.uav[17] utilizationCountIdleState 1
scalar OsgEarthNet.uav[17] utilizationFail 0
scalar OsgEarthNet.uav[17] simulationTime 1209600
scalar OsgEarthNet.uav[18] utilizationSecMission 201725.23775398
scalar OsgEarthNet.uav[18] utilizationSecMaintenance 99013.088194428
scalar OsgEarthNet.uav[18] utilizationSecCharge 907100
scalar OsgEarthNet.uav[18] utilizationSecIdle 1761.6730515863
scalar OsgEarthNet.uav[18] utilizationEnergyMission 983100.37591033
scalar OsgEarthNet.uav[18] utilizationEnergyMaintenance 458800.44350815
scalar OsgEarthNet.uav[18] utilizationEnergyCharge 1438394.4333496
scalar OsgEarthNet.uav[18] utilizationEnergyOverdrawMission 0
scalar OsgEarthNet.uav[18] utilizationEnergyOverdrawMaintenance 0
scalar OsgEarthNet.uav[18] utilizationCountMissions 331
scalar OsgEarthNet.uav[18] utilizationCountManeuversMission 6416
scalar OsgEarthNet.uav[18] utilizationCountManeuversMaintenance 663
scalar OsgEarthNet.uav[18] utilizationCountChargeState 331
scalar OsgEarthNet.uav[18] utilizationCountOverdrawnAfterMission 0
scalar OsgEarthNet.uav[18] utilizationCountIdleState 2
scalar OsgEarthNet.uav[18] utilizationFail 0
scalar OsgEarthNet.uav[18] simulationTime 1209600
scalar OsgEarthNet.uav[19] utilizationSecMission 192792.21149082
scalar OsgEarthNet.uav[19] utilizationSecMaintenance 106953.87888948
scalar OsgEarthNet.uav[19] utilizationSecCharge 909851.9086197
scalar OsgEarthNet.uav[19] utilizationSecIdle 2
scalar OsgEarthNet.uav[19] utilizationEnergyMission 939072.68794632
scalar OsgEarthNet.uav[19] utilizationEnergyMaintenance 503403.59268951
scalar OsgEarthNet.uav[19] utilizationEnergyCharge 1437174.4086914
scalar OsgEarthNet.uav[19] utilizationEnergyOverdrawMission 0
scalar OsgEarthNet.uav[19] utilizationEnergyOverdrawMaintenance 0
scalar OsgEarthNet.uav[19] utilizationCountMissions 337
scalar OsgEarthNet.uav[19] utilizationCountManeuversMission 6178
scalar OsgEarthNet.uav[19] utilizationCountManeuversMaintenance 673
scalar OsgEarthNet.uav[19] utilizationCountChargeState 337
scalar OsgEarthNet.uav[19] utilizationCountOverdrawnAfterMission 0
scalar OsgEarthNet.uav[19] utilizationCountIdleState 1
scalar OsgEarthNet.uav[19] utilizationFail 0
scalar OsgEarthNet.uav[19] simulationTime 1209600
scalar OsgEarthNet.uav[20] utilizationSecMission 195431.60073323
scalar OsgEarthNet.uav[20] utilizationSecMaintenance 102229.28317174
scalar OsgEarthNet.uav[20] utilizationSecCharge 908858.16583937
scalar OsgEarthNet.uav[20] utilizationSecIdle 3080.9492556647
scalar OsgEarthNet.uav[20] utilizationEnergyMission 938875.60647583
scalar OsgEarthNet.uav[20] utilizationEnergyMaintenance 479615.50439453
scalar OsgEarthNet.uav[20] utilizationEnergyCharge 1416644.0678711
scalar OsgEarthNet.uav[20] utilizationEnergyOverdrawMission 0
scalar OsgEarthNet.uav[20] utilizationEnergyOverdrawMaintenance 0
scalar OsgEarthNet.uav[20] utilizationCountMissions 334
scalar OsgEarthNet.uav[20] utilizationCountManeuversMission 5771
scalar OsgEarthNet.uav[20] utilizationCountManeuversMaintenance 668
scalar OsgEarthNet.uav[20] utilizationCountChargeState 334
scalar OsgEarthNet.uav[20] utilizationCountOverdrawnAfterMission 0
scalar OsgEarthNet.uav[20] utilizationCountIdleState 2
scalar OsgEarthNet.uav[20] utilizationFail 0
scalar OsgEarthNet.uav[20] simulationTime 1209600
scalar OsgEarthNet.uav[21] utilizationSecMission 191826.24505133
scalar OsgEarthNet.uav[21] utilizationSecMaintenance 106309.49181926
scalar OsgEarthNet.uav[21] utilizationSecCharge 910362.2601294
scalar OsgEarthNet.uav[21] utilizationSecIdle 1102.002
scalar OsgEarthNet.uav[21] utilizationEnergyMission 934321.75629807
scalar OsgEarthNet.uav[21] utilizationEnergyMaintenance 501729.55655289
scalar OsgEarthNet.uav[21] utilizationEnergyCharge 1422801.0628662
scalar OsgEarthNet.uav[21] utilizationEnergyOverdrawMission 0
scalar OsgEarthNet.uav[21] utilizationEnergyOverdrawMaintenance 0
scalar OsgEarthNet.uav[21] utilizationCountMissions 335
scalar OsgEarthNet.uav[21] utilizationCountManeuversMission 5849
scalar OsgEarthNet.uav[21] utilizationCountManeuversMaintenance 670
scalar OsgEarthNet.uav[21] utilizationCountChargeState 335
scalar OsgEarthNet.uav[21] utilizationCountOverdrawnAfterMission 0
scalar OsgEarthNet.uav[21] utilizationCountIdleState 2
scalar OsgEarthNet.uav[21] utilizationFail 0
scalar OsgEarthNet.uav[21] simulationTime 1209600
scalar OsgEarthNet.uav[22] utilizationSecMission 189913.83216042
scalar OsgEarthNet.uav[22] utilizationSecMaintenance 109364.16683958
scalar OsgEarthNet.uav[22] utilizationSecCharge 910320
scalar OsgEarthNet.uav[22] utilizationSecIdle 2
scalar OsgEarthNet.uav[22] utilizationEnergyMission 925802.2247732
scalar OsgEarthNet.uav[22] utilizationEnergyMaintenance 517109.40015411
scalar OsgEarthNet.uav[22] utilizationEnergyCharge 1440358.4221191
scalar OsgEarthNet.uav[22] utilizationEnergyOverdrawMission 0
scalar OsgEarthNet.uav[22] utilizationEnergyOverdrawMaintenance 0
scalar OsgEarthNet.uav[22] utilizationCountMissions 338
scalar OsgEarthNet.uav[22] utilizationCountManeuversMission 6100
scalar OsgEarthNet.uav[22] utilizationCountManeuversMaintenance 677
scalar OsgEarthNet.uav[22] utilizationCountChargeState 338
scalar OsgEarthNet.uav[22] utilizationCountOverdrawnAfterMission 0
scalar OsgEarthNet.uav[22] utilizationCountIdleState 1
scalar OsgEarthNet.uav[22] utilizationFail 0
scalar OsgEarthNet.uav[22] simulationTime 1209600
scalar OsgEarthNet.uav[23] utilizationSecMission 200121.54740609
scalar OsgEarthNet.uav[23] utilizationSecMaintenance 102122.55691712
scalar OsgEarthNet.uav[23] utilizationSecCharge 905020
scalar OsgEarthNet.uav[23] utilizationSecIdle 2335.8946767885
scalar OsgEarthNet.uav[23] utilizationEnergyMission 966185.47966669
scalar OsgEarthNet.uav[23] utilizationEnergyMaintenance 478194.33666611
scalar OsgEarthNet.uav[23] utilizationEnergyCharge 1440630.654541
scalar OsgEarthNet.uav[23] utilizationEnergyOverdrawMission 0
scalar OsgEarthNet.uav[23] utilizationEnergyOverdrawMaintenance 0
scalar OsgEarthNet.uav[23] utilizationCountMissions 332
scalar OsgEarthNet.uav[23] utilizationCountManeuversMission 6174
scalar OsgEarthNet.uav[23] utilizationCountManeuversMaintenance 665
scalar OsgEarthNet.uav[23] utilizationCountChargeState 332
scalar OsgEarthNet.uav[23] utilizationCountOverdrawnAfterMission 0
scalar OsgEarthNet.uav[23] utilizationCountIdleState 1
scalar OsgEarthNet.uav[23] utilizationFail 0
scalar OsgEarthNet.uav[23] simulationTime 1209600
scalar OsgEarthNet.uav[24] utilizationSecMission 184199.32974529
scalar OsgEarthNet.uav[24] utilizationSecMaintenance 112868.96785305
scalar OsgEarthNet.uav[24] utilizationSecCharge 909869.69640165
scalar OsgEarthNet.uav[24] utilizationSecIdle 2662.005
scalar OsgEarthNet.uav[24] utilizationEnergyMission 894553.4372139
scalar OsgEarthNet.uav[24] utilizationEnergyMaintenance 532131.92139435
scalar OsgEarthNet.uav[24] utilizationEnergyCharge 1420509.7355957
scalar OsgEarthNet.uav[24] utilizationEnergyOverdrawMission 0
scalar OsgEarthNet.uav[24] utilizationEnergyOverdrawMaintenance 0
scalar OsgEarthNet.uav[24] utilizationCountMissions 342
scalar OsgEarthNet.uav[24] utilizationCountManeuversMission 5554
scalar OsgEarthNet.uav[24] utilizationCountManeuversMaintenance 684
scalar OsgEarthNet.uav[24] utilizationCountChargeState 342
scalar OsgEarthNet.uav[24] utilizationCountOverdrawnAfterMission 0
scalar OsgEarthNet.uav[24] utilizationCountIdleState 3
scalar OsgEarthNet.uav[24] utilizationFail 0
scalar OsgEarthNet.uav[24] simulationTime 1209600
scalar OsgEarthNet.uav[25] utilizationSecMission 188654.97572235
scalar OsgEarthNet.uav[25] utilizationSecMaintenance 108715.06300802
scalar OsgEarthNet.uav[25] utilizationSecCharge 911210.78515922
scalar OsgEarthNet.uav[25] utilizationSecIdle 1019.1751104107
scalar OsgEarthNet.uav[25] utilizationEnergyMission 910027.70807266
scalar OsgEarthNet.uav[25] utilizationEnergyMaintenance 511552.83731842
scalar OsgEarthNet.uav[25] utilizationEnergyCharge 1415972.8376465
scalar OsgEarthNet.uav[25] utilizationEnergyOverdrawMission 0
scalar OsgEarthNet.uav[25] utilizationEnergyOverdrawMaintenance 0
scalar OsgEarthNet.uav[25] utilizationCountMissions 341
scalar OsgEarthNet.uav[25] utilizationCountManeuversMission 5689
scalar OsgEarthNet.uav[25] utilizationCountManeuversMaintenance 682
scalar OsgEarthNet.uav[25] utilizationCountChargeState 341
scalar OsgEarthNet.uav[25] utilizationCountOverdrawnAfterMission 0
scalar OsgEarthNet.uav[25] utilizationCountIdleState 3
scalar OsgEarthNet.uav[25] utilizationFail 0
scalar OsgEarthNet.uav[25] simulationTime 1209600
scalar OsgEarthNet.uav[26] utilizationSecMission 195980.29589843
scalar OsgEarthNet.uav[26] utilizationSecMaintenance 104437.55836162
scalar OsgEarthNet.uav[26] utilizationSecCharge 906350
scalar OsgEarthNet.uav[26] utilizationSecIdle 2832.1447399488
scalar OsgEarthNet.uav[26] utilizationEnergyMission 943147.20930099
scalar OsgEarthNet.uav[26] utilizationEnergyMaintenance 492222.11109896
scalar OsgEarthNet.uav[26] utilizationEnergyCharge 1429164.5390625
scalar OsgEarthNet.uav[26] utilizationEnergyOverdrawMission 0
scalar OsgEarthNet.uav[26] utilizationEnergyOverdrawMaintenance 0
scalar OsgEarthNet.uav[26] utilizationCountMissions 338
scalar OsgEarthNet.uav[26] utilizationCountManeuversMission 5665
scalar OsgEarthNet.uav[26] utilizationCountManeuversMaintenance 676
scalar OsgEarthNet.uav[26] utilizationCountChargeState 337
scalar OsgEarthNet.uav[26] utilizationCountOverdrawnAfterMission 0
scalar OsgEarthNet.uav[26] utilizationCountIdleState 1
scalar OsgEarthNet.uav[26] utilizationFail 0
scalar OsgEarthNet.uav[26] simulationTime 1209600
scalar OsgEarthNet.uav[27] utilizationSecMission 180157.65677454
scalar OsgEarthNet.uav[27] utilizationSecMaintenance 119022.88549879
scalar OsgEarthNet.uav[27] utilizationSecCharge 908174.01463798
scalar OsgEarthNet.uav[27] utilizationSecIdle 2245.4420886909
scalar OsgEarthNet.uav[27] utilizationEnergyMission 872505.4907341
scalar OsgEarthNet.uav[27] utilizationEnergyMaintenance 563699.95299149
scalar OsgEarthNet.uav[27] utilizationEnergyCharge 1435891.4506836
scalar OsgEarthNet.uav[27] utilizationEnergyOverdrawMission 0
scalar OsgEarthNet.uav[27] utilizationEnergyOverdrawMaintenance 0
scalar OsgEarthNet.uav[27] utilizationCountMissions 347
scalar OsgEarthNet.uav[27] utilizationCountManeuversMission 5779
scalar OsgEarthNet.uav[27] utilizationCountManeuversMaintenance 694
scalar OsgEarthNet.uav[27] utilizationCountChargeState 347
scalar OsgEarthNet.uav[27] utilizationCountOverdrawnAfterMission 0
scalar OsgEarthNet.uav[27] utilizationCountIdleState 2
scalar OsgEarthNet.uav[27] utilizationFail 0
scalar OsgEarthNet.uav[27] simulationTime 1209600
scalar OsgEarthNet.uav[28] utilizationSecMission 197985.43207389
scalar OsgEarthNet.uav[28] utilizationSecMaintenance 98131.966169261
scalar OsgEarthNet.uav[28] utilizationSecCharge 911262.96967618
scalar OsgEarthNet.uav[28] utilizationSecIdle 2219.6310806652
scalar OsgEarthNet.uav[28] utilizationEnergyMission 957466.07130432
scalar OsgEarthNet.uav[28] utilizationEnergyMaintenance 459668.45207214
scalar OsgEarthNet.uav[28] utilizationEnergyCharge 1415708.2872314
scalar OsgEarthNet.uav[28] utilizationEnergyOverdrawMission 0
scalar OsgEarthNet.uav[28] utilizationEnergyOverdrawMaintenance 0
scalar OsgEarthNet.uav[28] utilizationCountMissions 328
scalar OsgEarthNet.uav[28] utilizationCountManeuversMission 6115
scalar OsgEarthNet.uav[28] utilizationCountManeuversMaintenance 656
scalar OsgEarthNet.uav[28] utilizationCountChargeState 328
scalar OsgEarthNet.uav[28] utilizationCountOverdrawnAfterMission 0
scalar OsgEarthNet.uav[28] utilizationCountIdleState 2
scalar OsgEarthNet.uav[28] utilizationFail 0
scalar OsgEarthNet.uav[28] simulationTime 1209600
scalar OsgEarthNet.uav[29] utilizationSecMission 187161.58649278
scalar OsgEarthNet.uav[29] utilizationSecMaintenance 113636.11321966
scalar OsgEarthNet.uav[29] utilizationSecCharge 907780.29728756
scalar OsgEarthNet.uav[29] utilizationSecIdle 1022.002
scalar OsgEarthNet.uav[29] utilizationEnergyMission 917354.25637817
scalar OsgEarthNet.uav[29] utilizationEnergyMaintenance 538051.55954361
scalar OsgEarthNet.uav[29] utilizationEnergyCharge 1450960.6945801
scalar OsgEarthNet.uav[29] utilizationEnergyOverdrawMission 0
scalar OsgEarthNet.uav[29] utilizationEnergyOverdrawMaintenance 0
scalar OsgEarthNet.uav[29] utilizationCountMissions 339
scalar OsgEarthNet.uav[29] utilizationCountManeuversMission 6309
scalar OsgEarthNet.uav[29] utilizationCountManeuversMaintenance 678
scalar OsgEarthNet.uav[29] utilizationCountChargeState 339
scalar OsgEarthNet.uav[29] utilizationCountOverdrawnAfterMission 0
scalar OsgEarthNet.uav[29] utilizationCountIdleState 1
scalar OsgEarthNet.uav[29] utilizationFail 0
scalar OsgEarthNet.uav[29] simulationTime 1209600
scalar OsgEarthNet.uav[30] utilizationSecMission 192182.87313395
scalar OsgEarthNet.uav[30] utilizationSecMaintenance 111269.33027808
scalar OsgEarthNet.uav[30] utilizationSecCharge 903279.2149311
scalar OsgEarthNet.uav[30] utilizationSecIdle 2868.5806568717
scalar OsgEarthNet.uav[30] utilizationEnergyMission 931402.62483215
scalar OsgEarthNet.uav[30] utilizationEnergyMaintenance 520644.67773056
scalar OsgEarthNet.uav[30] utilizationEnergyCharge 1457172.2854004
scalar OsgEarthNet.uav[30] utilizationEnergyOverdrawMission 0
scalar OsgEarthNet.uav[30] utilizationEnergyOverdrawMaintenance 0
scalar OsgEarthNet.uav[30] utilizationCountMissions 336
scalar OsgEarthNet.uav[30] utilizationCountManeuversMission 6360
scalar OsgEarthNet.uav[30] utilizationCountManeuversMaintenance 672
scalar OsgEarthNet.uav[30] utilizationCountChargeState 336
scalar OsgEarthNet.uav[30] utilizationCountOverdrawnAfterMission 0
scalar OsgEarthNet.uav[30] utilizationCountIdleState 1
scalar OsgEarthNet.uav[30] utilizationFail 0
scalar OsgEarthNet.uav[30] simulationTime 1209600
scalar OsgEarthNet.uav[31] utilizationSecMission 196912.6783041
scalar OsgEarthNet.uav[31] utilizationSecMaintenance 103345.14705016
scalar OsgEarthNet.uav[31] utilizationSecCharge 907476.73255705
scalar OsgEarthNet.uav[31] utilizationSecIdle 1865.4410886909
scalar OsgEarthNet.uav[31] utilizationEnergyMission 955083.86198807
scalar OsgEarthNet.uav[31] utilizationEnergyMaintenance 481571.20889282
scalar OsgEarthNet.uav[31] utilizationEnergyCharge 1440389.7788086
scalar OsgEarthNet.uav[31] utilizationEnergyOverdrawMission 0
scalar OsgEarthNet.uav[31] utilizationEnergyOverdrawMaintenance 0
scalar OsgEarthNet.uav[31] utilizationCountMissions 332
scalar OsgEarthNet.uav[31] utilizationCountManeuversMission 6306
scalar OsgEarthNet.uav[31] utilizationCountManeuversMaintenance 664
scalar OsgEarthNet.uav[31] utilizationCountChargeState 332
scalar OsgEarthNet.uav[31] utilizationCountOverdrawnAfterMission 0
scalar OsgEarthNet.uav[31] utilizationCountIdleState 1
scalar OsgEarthNet.uav[31] utilizationFail 0
scalar OsgEarthNet.uav[31] simulationTime 1209600
scalar OsgEarthNet.uav[32] utilizationSecMission 188431.31015993
scalar OsgEarthNet.uav[32] utilizationSecMaintenance 108692.0603237
scalar OsgEarthNet.uav[32] utilizationSecCharge 911314.62651637
scalar OsgEarthNet.uav[32] utilizationSecIdle 1162.002
scalar OsgEarthNet.uav[32] utilizationEnergyMission 910924.34525299
scalar OsgEarthNet.uav[32] utilizationEnergyMaintenance 510921.55171585
scalar OsgEarthNet.uav[32] utilizationEnergyCharge 1419060.1968994
scalar OsgEarthNet.uav[32] utilizationEnergyOverdrawMission 0
scalar OsgEarthNet.uav[32] utilizationEnergyOverdrawMaintenance 0
scalar OsgEarthNet.uav[32] utilizationCountMissions 341
scalar OsgEarthNet.uav[32] utilizationCountManeuversMission 6035
scalar OsgEarthNet.uav[32] utilizationCountManeuversMaintenance 682
scalar OsgEarthNet.uav[32] utilizationCountChargeState 341
scalar OsgEarthNet.uav[32] utilizationCountOverdrawnAfterMission 0
scalar OsgEarthNet.uav[32] utilizationCountIdleState 3
scalar OsgEarthNet.uav[32] utilizationFail 0
scalar OsgEarthNet.uav[32] simulationTime 1209600
scalar OsgEarthNet.uav[33] utilizationSecMission 194387.7635489
scalar OsgEarthNet.uav[33] utilizationSecMaintenance 103988.06281915
scalar OsgEarthNet.uav[33] utilizationSecCharge 909642.16963195
scalar OsgEarthNet.uav[33] utilizationSecIdle 1582.003
scalar OsgEarthNet.uav[33] utilizationEnergyMission 940032.51581573
scalar OsgEarthNet.uav[33] utilizationEnergyMaintenance 485962.57470703
scalar OsgEarthNet.uav[33] utilizationEnergyCharge 1422209.0510254
scalar OsgEarthNet.uav[33] utilizationEnergyOverdrawMission 0
scalar OsgEarthNet.uav[33] utilizationEnergyOverdrawMaintenance 0
scalar OsgEarthNet.uav[33] utilizationCountMissions 335
scalar OsgEarthNet.uav[33] utilizationCountManeuversMission 6059
scalar OsgEarthNet.uav[33] utilizationCountManeuversMaintenance 670
scalar OsgEarthNet.uav[33] utilizationCountChargeState 335
scalar OsgEarthNet.uav[33] utilizationCountOverdrawnAfterMission 0
scalar OsgEarthNet.uav[33] utilizationCountIdleState 3
scalar OsgEarthNet.uav[33] utilizationFail 0
scalar OsgEarthNet.uav[33] simulationTime 1209600
scalar OsgEarthNet.uav[34] utilizationSecMission 191990.36346761
scalar OsgEarthNet.uav[34] utilizationSecMaintenance 108229.4476321
scalar OsgEarthNet.uav[34] utilizationSecCharge 908488.18639357
scalar OsgEarthNet.uav[34] utilizationSecIdle 892.00150672213
scalar OsgEarthNet.uav[34] utilizationEnergyMission 930160.07168961
scalar OsgEarthNet.uav[34] utilizationEnergyMaintenance 509449.93811798
scalar OsgEarthNet.uav[34] utilizationEnergyCharge 1436734.2419434
scalar OsgEarthNet.uav[34] utilizationEnergyOverdrawMission 0
scalar OsgEarthNet.uav[34] utilizationEnergyOverdrawMaintenance 0
scalar OsgEarthNet.uav[34] utilizationCountMissions 338
scalar OsgEarthNet.uav[34] utilizationCountManeuversMission 5987
scalar OsgEarthNet.uav[34] utilizationCountManeuversMaintenance 676
scalar OsgEarthNet.uav[34] utilizationCountChargeState 338
scalar OsgEarthNet.uav[34] utilizationCountOverdrawnAfterMission 0
scalar OsgEarthNet.uav[34] utilizationCountIdleState 1
scalar OsgEarthNet.uav[34] utilizationFail 0
scalar OsgEarthNet.uav[34] simulationTime 1209600
scalar OsgEarthNet.uav[35] utilizationSecMission 185188.19634234
scalar OsgEarthNet.uav[35] utilizationSecMaintenance 107519.80165766
scalar OsgEarthNet.uav[35] utilizationSecCharge 916140
scalar OsgEarthNet.uav[35] utilizationSecIdle 752.001
scalar OsgEarthNet.uav[35] utilizationEnergyMission 891867.56966095
scalar OsgEarthNet.uav[35] utilizationEnergyMaintenance 505447.04177094
scalar OsgEarthNet.uav[35] utilizationEnergyCharge 1398365.6286621
scalar OsgEarthNet.uav[35] utilizationEnergyOverdrawMission 0
scalar OsgEarthNet.uav[35] utilizationEnergyOverdrawMaintenance 0
scalar OsgEarthNet.uav[35] utilizationCountMissions 342
scalar OsgEarthNet.uav[35] utilizationCountManeuversMission 5408
scalar OsgEarthNet.uav[35] utilizationCountManeuversMaintenance 685
scalar OsgEarthNet.uav[35] utilizationCountChargeState 342
scalar OsgEarthNet.uav[35] utilizationCountOverdrawnAfterMission 0
scalar OsgEarthNet.uav[35] utilizationCountIdleState 3
scalar OsgEarthNet.uav[35] utilizationFail 0
scalar OsgEarthNet.uav[35] simulationTime 1209600
scalar OsgEarthNet.uav[36] utilizationSecMission 193706.01395787
scalar OsgEarthNet.uav[36] utilizationSecMaintenance 104098.37033009
scalar OsgEarthNet.uav[36] utilizationSecCharge 908853.60871203
scalar OsgEarthNet.uav[36] utilizationSecIdle 2942.006
scalar OsgEarthNet.uav[36] utilizationEnergyMission 939915.07101059
scalar OsgEarthNet.uav[36] utilizationEnergyMaintenance 484348.09080887
scalar OsgEarthNet.uav[36] utilizationEnergyCharge 1417807.6259766
scalar OsgEarthNet.uav[36] utilizationEnergyOverdrawMission 0
scalar OsgEarthNet.uav[36] utilizationEnergyOverdrawMaintenance 0
scalar OsgEarthNet.uav[36] utilizationCountMissions 334
scalar OsgEarthNet.uav[36] utilizationCountManeuversMission 6206
scalar OsgEarthNet.uav[36] utilizationCountManeuversMaintenance 668
scalar OsgEarthNet.uav[36] utilizationCountChargeState 334
scalar OsgEarthNet.uav[36] utilizationCountOverdrawnAfterMission 0
scalar OsgEarthNet.uav[36] utilizationCountIdleState 1
scalar OsgEarthNet.uav[36] utilizationFail 0
scalar OsgEarthNet.uav[36] simulationTime 1209600
scalar OsgEarthNet.uav[37] utilizationSecMission 185765.0650325
scalar OsgEarthNet.uav[37] utilizationSecMaintenance 110441.17649108
scalar OsgEarthNet.uav[37] utilizationSecCharge 911801.75447642
scalar OsgEarthNet.uav[37] utilizationSecIdle 1592.003
scalar OsgEarthNet.uav[37] utilizationEnergyMission 904277.53251648
scalar OsgEarthNet.uav[37] utilizationEnergyMaintenance 520060.43225861
scalar OsgEarthNet.uav[37] utilizationEnergyCharge 1422094.2421875
scalar OsgEarthNet.uav[37] utilizationEnergyOverdrawMission 0
scalar OsgEarthNet.uav[37] utilizationEnergyOverdrawMaintenance 0
scalar OsgEarthNet.uav[37] utilizationCountMissions 340
scalar OsgEarthNet.uav[37] utilizationCountManeuversMission 5960
scalar OsgEarthNet.uav[37] utilizationCountManeuversMaintenance 680
scalar OsgEarthNet.uav[37] utilizationCountChargeState 340
scalar OsgEarthNet.uav[37] utilizationCountOverdrawnAfterMission 0
scalar OsgEarthNet.uav[37] utilizationCountIdleState 2
scalar OsgEarthNet.uav[37] utilizationFail 0
scalar OsgEarthNet.uav[37] simulationTime 1209600
scalar OsgEarthNet.uav[38] utilizationSecMission 199649.19369341
scalar OsgEarthNet.uav[38] utilizationSecMaintenance 101174.52524381
scalar OsgEarthNet.uav[38] utilizationSecCharge 907374.27806279
scalar OsgEarthNet.uav[38] utilizationSecIdle 1402.002
scalar OsgEarthNet.uav[38] utilizationEnergyMission 964839.52027893
scalar OsgEarthNet.uav[38] utilizationEnergyMaintenance 474608.29852295
scalar OsgEarthNet.uav[38] utilizationEnergyCharge 1433561.8765869
scalar OsgEarthNet.uav[38] utilizationEnergyOverdrawMission 0
scalar OsgEarthNet.uav[38] utilizationEnergyOverdrawMaintenance 0
scalar OsgEarthNet.uav[38] utilizationCountMissions 334
scalar OsgEarthNet.uav[38] utilizationCountManeuversMission 5945
scalar OsgEarthNet.uav[38] utilizationCountManeuversMaintenance 668
scalar OsgEarthNet.uav[38] utilizationCountChargeState 334
scalar OsgEarthNet.uav[38] utilizationCountOverdrawnAfterMission 0
scalar OsgEarthNet.uav[38] utilizationCountIdleState 2
scalar OsgEarthNet.uav[38] utilizationFail 0
scalar OsgEarthNet.uav[38] simulationTime 1209600
scalar OsgEarthNet.uav[39] utilizationSecMission 195039.9114284
scalar OsgEarthNet.uav[39] utilizationSecMaintenance 105170.84228473
scalar OsgEarthNet.uav[39] utilizationSecCharge 907427.24128687
scalar OsgEarthNet.uav[39] utilizationSecIdle 1962.004
scalar OsgEarthNet.uav[39] utilizationEnergyMission 943711.73774338
scalar OsgEarthNet.uav[39] utilizationEnergyMaintenance 493434.47823715
scalar OsgEarthNet.uav[39] utilizationEnergyCharge 1433570.8221436
scalar OsgEarthNet.uav[39] utilizationEnergyOverdrawMission 0
scalar OsgEarthNet.uav[39] utilizationEnergyOverdrawMaintenance 0
scalar OsgEarthNet.uav[39] utilizationCountMissions 335
scalar OsgEarthNet.uav[39] utilizationCountManeuversMission 6056
scalar OsgEarthNet.uav[39] utilizationCountManeuversMaintenance 670
scalar OsgEarthNet.uav[39] utilizationCountChargeState 335
scalar OsgEarthNet.uav[39] utilizationCountOverdrawnAfterMission 0
scalar OsgEarthNet.uav[39] utilizationCountIdleState 1
scalar OsgEarthNet.uav[39] utilizationFail 0
scalar OsgEarthNet.uav[39] simulationTime 1209600
scalar OsgEarthNet.uav[40] utilizationSecMission 204698.52878527
scalar OsgEarthNet.uav[40] utilizationSecMaintenance 97829.465214724
scalar OsgEarthNet.uav[40] utilizationSecCharge 904590
scalar OsgEarthNet.uav[40] utilizationSecIdle 2482.005
scalar OsgEarthNet.uav[40] utilizationEnergyMission 993726.14806366
scalar OsgEarthNet.uav[40] utilizationEnergyMaintenance 454502.17709712
scalar OsgEarthNet.uav[40] utilizationEnergyCharge 1441931.4440918
scalar OsgEarthNet.uav[40] utilizationEnergyOverdrawMission 0
scalar OsgEarthNet.uav[40] utilizationEnergyOverdrawMaintenance 0
scalar OsgEarthNet.uav[40] utilizationCountMissions 328
scalar OsgEarthNet.uav[40] utilizationCountManeuversMission 6445
scalar OsgEarthNet.uav[40] utilizationCountManeuversMaintenance 656
scalar OsgEarthNet.uav[40] utilizationCountChargeState 327
scalar OsgEarthNet.uav[40] utilizationCountOverdrawnAfterMission 0
scalar OsgEarthNet.uav[40] utilizationCountIdleState 1
scalar OsgEarthNet.uav[40] utilizationFail 0
scalar OsgEarthNet.uav[40] simulationTime 1209600
scalar OsgEarthNet.uav[41] utilizationSecMission 204895.95156596
scalar OsgEarthNet.uav[41] utilizationSecMaintenance 96381.806392618
scalar OsgEarthNet.uav[41] utilizationSecCharge 906821.27705574
scalar OsgEarthNet.uav[41] utilizationSecIdle 1500.9639856735
scalar OsgEarthNet.uav[41] utilizationEnergyMission 995667.4395256
scalar OsgEarthNet.uav[41] utilizationEnergyMaintenance 443624.57562637
scalar OsgEarthNet.uav[41] utilizationEnergyCharge 1438123.0241699
scalar OsgEarthNet.uav[41] utilizationEnergyOverdrawMission 0
scalar OsgEarthNet.uav[41] utilizationEnergyOverdrawMaintenance 0
scalar OsgEarthNet.uav[41] utilizationCountMissions 327
scalar OsgEarthNet.uav[41] utilizationCountManeuversMission 6539
scalar OsgEarthNet.uav[41] utilizationCountManeuversMaintenance 654
scalar OsgEarthNet.uav[41] utilizationCountChargeState 327
scalar OsgEarthNet.uav[41] utilizationCountOverdrawnAfterMission 0
scalar OsgEarthNet.uav[41] utilizationCountIdleState 1
scalar OsgEarthNet.uav[41] utilizationFail 0
scalar OsgEarthNet.uav[41] simulationTime 1209600
scalar OsgEarthNet.uav[42] utilizationSecMission 197669.26242951
scalar OsgEarthNet.uav[42] utilizationSecMaintenance 104678.73357049
scalar OsgEarthNet.uav[42] utilizationSecCharge 905270
scalar OsgEarthNet.uav[42] utilizationSecIdle 1982.003
scalar OsgEarthNet.uav[42] utilizationEnergyMission 960513.21406174
scalar OsgEarthNet.uav[42] utilizationEnergyMaintenance 489790.12152232
scalar OsgEarthNet.uav[42] utilizationEnergyCharge 1448373.1672363
scalar OsgEarthNet.uav[42] utilizationEnergyOverdrawMission 0
scalar OsgEarthNet.uav[42] utilizationEnergyOverdrawMaintenance 0
scalar OsgEarthNet.uav[42] utilizationCountMissions 335
scalar OsgEarthNet.uav[42] utilizationCountManeuversMission 6342
scalar OsgEarthNet.uav[42] utilizationCountManeuversMaintenance 670
scalar OsgEarthNet.uav[42] utilizationCountChargeState 334
scalar OsgEarthNet.uav[42] utilizationCountOverdrawnAfterMission 0
scalar OsgEarthNet.uav[42] utilizationCountIdleState 1
scalar OsgEarthNet.uav[42] utilizationFail 0
scalar OsgEarthNet.uav[42] simulationTime 1209600
scalar OsgEarthNet.uav[43] utilizationSecMission 193365.35280938
scalar OsgEarthNet.uav[43] utilizationSecMaintenance 106208.60414551
scalar OsgEarthNet.uav[43] utilizationSecCharge 906877.95906532
scalar OsgEarthNet.uav[43] utilizationSecIdle 3148.0829797894
scalar OsgEarthNet.uav[43] utilizationEnergyMission 945854.31308365
scalar OsgEarthNet.uav[43] utilizationEnergyMaintenance 497810.43994141
scalar OsgEarthNet.uav[43] utilizationEnergyCharge 1436068.9660645
scalar OsgEarthNet.uav[43] utilizationEnergyOverdrawMission 0
scalar OsgEarthNet.uav[43] utilizationEnergyOverdrawMaintenance 0
scalar OsgEarthNet.uav[43] utilizationCountMissions 337
scalar OsgEarthNet.uav[43] utilizationCountManeuversMission 6161
scalar OsgEarthNet.uav[43] utilizationCountManeuversMaintenance 674
scalar OsgEarthNet.uav[43] utilizationCountChargeState 337
scalar OsgEarthNet.uav[43] utilizationCountOverdrawnAfterMission 0
scalar OsgEarthNet.uav[43] utilizationCountIdleState 1
scalar OsgEarthNet.uav[43] utilizationFail 0
scalar OsgEarthNet.uav[43] simulationTime 1209600
scalar OsgEarthNet.uav[44] utilizationSecMission 202700.31741928
scalar OsgEarthNet.uav[44] utilizationSecMaintenance 98561.681730194
scalar OsgEarthNet.uav[44] utilizationSecCharge 906320
scalar OsgEarthNet.uav[44] utilizationSecIdle 2017.9998505245
scalar OsgEarthNet.uav[44] utilizationEnergyMission 977960.56674801
scalar OsgEarthNet.uav[44] utilizationEnergyMaintenance 460394.0008316
scalar OsgEarthNet.uav[44] utilizationEnergyCharge 1434569.4638672
scalar OsgEarthNet.uav[44] utilizationEnergyOverdrawMission 0
scalar OsgEarthNet.uav[44] utilizationEnergyOverdrawMaintenance 0
scalar OsgEarthNet.uav[44] utilizationCountMissions 329
scalar OsgEarthNet.uav[44] utilizationCountManeuversMission 5935
scalar OsgEarthNet.uav[44] utilizationCountManeuversMaintenance 659
scalar OsgEarthNet.uav[44] utilizationCountChargeState 329
scalar OsgEarthNet.uav[44] utilizationCountOverdrawnAfterMission 0
scalar OsgEarthNet.uav[44] utilizationCountIdleState 2
scalar OsgEarthNet.uav[44] utilizationFail 0
scalar OsgEarthNet.uav[44] simulationTime 1209600
scalar OsgEarthNet.uav[45] utilizationSecMission 194302.57297597
scalar OsgEarthNet.uav[45] utilizationSecMaintenance 108845.42502403
scalar OsgEarthNet.uav[45] utilizationSecCharge 905950
scalar OsgEarthNet.uav[45] utilizationSecIdle 502.001
scalar OsgEarthNet.uav[45] utilizationEnergyMission 948451.60318756
scalar OsgEarthNet.uav[45] utilizationEnergyMaintenance 509073.02737088
scalar OsgEarthNet.uav[45] utilizationEnergyCharge 1457350.8845215
scalar OsgEarthNet.uav[45] utilizationEnergyOverdrawMission 0
scalar OsgEarthNet.uav[45] utilizationEnergyOverdrawMaintenance 0
scalar OsgEarthNet.uav[45] utilizationCountMissions 336
scalar OsgEarthNet.uav[45] utilizationCountManeuversMission 6209
scalar OsgEarthNet.uav[45] utilizationCountManeuversMaintenance 672
scalar OsgEarthNet.uav[45] utilizationCountChargeState 335
scalar OsgEarthNet.uav[45] utilizationCountOverdrawnAfterMission 0
scalar OsgEarthNet.uav[45] utilizationCountIdleState 1
scalar OsgEarthNet.uav[45] utilizationFail 0
scalar OsgEarthNet.uav[45] simulationTime 1209600
scalar OsgEarthNet.uav[46] utilizationSecMission 193788.51219737
scalar OsgEarthNet.uav[46] utilizationSecMaintenance 103996.10198053
scalar OsgEarthNet.uav[46] utilizationSecCharge 911293.3838221
scalar OsgEarthNet.uav[46] utilizationSecIdle 522.001
scalar OsgEarthNet.uav[46] utilizationEnergyMission 935322.88408661
scalar OsgEarthNet.uav[46] utilizationEnergyMaintenance 488679.50017166
scalar OsgEarthNet.uav[46] utilizationEnergyCharge 1423026.7416992
scalar OsgEarthNet.uav[46] utilizationEnergyOverdrawMission 0
scalar OsgEarthNet.uav[46] utilizationEnergyOverdrawMaintenance 0
scalar OsgEarthNet.uav[46] utilizationCountMissions 338
scalar OsgEarthNet.uav[46] utilizationCountManeuversMission 5844
scalar OsgEarthNet.uav[46] utilizationCountManeuversMaintenance 676
scalar OsgEarthNet.uav[46] utilizationCountChargeState 338
scalar OsgEarthNet.uav[46] utilizationCountOverdrawnAfterMission 0
scalar OsgEarthNet.uav[46] utilizationCountIdleState 1
scalar OsgEarthNet.uav[46] utilizationFail 0
scalar OsgEarthNet.uav[46] simulationTime 1209600
scalar OsgEarthNet.uav[47] utilizationSecMission 184196.6257424
scalar OsgEarthNet.uav[47] utilizationSecMaintenance 113892.45878515
scalar OsgEarthNet.uav[47] utilizationSecCharge 911488.91447246
scalar OsgEarthNet.uav[47] utilizationSecIdle 22
scalar OsgEarthNet.uav[47] utilizationEnergyMission 896766.56431198
scalar OsgEarthNet.uav[47] utilizationEnergyMaintenance 536054.77777863
scalar OsgEarthNet.uav[47] utilizationEnergyCharge 1432385.8046875
scalar OsgEarthNet.uav[47] utilizationEnergyOverdrawMission 0
scalar OsgEarthNet.uav[47] utilizationEnergyOverdrawMaintenance 0
scalar OsgEarthNet.uav[47] utilizationCountMissions 342
scalar OsgEarthNet.uav[47] utilizationCountManeuversMission 5743
scalar OsgEarthNet.uav[47] utilizationCountManeuversMaintenance 684
scalar OsgEarthNet.uav[47] utilizationCountChargeState 342
scalar OsgEarthNet.uav[47] utilizationCountOverdrawnAfterMission 0
scalar OsgEarthNet.uav[47] utilizationCountIdleState 2
scalar OsgEarthNet.uav[47] utilizationFail 0
scalar OsgEarthNet.uav[47] simulationTime 1209600
scalar OsgEarthNet.uav[48] utilizationSecMission 200924.03323578
scalar OsgEarthNet.uav[48] utilizationSecMaintenance 97318.515500191
scalar OsgEarthNet.uav[48] utilizationSecCharge 910450
scalar OsgEarthNet.uav[48] utilizationSecIdle 907.4502640309
scalar OsgEarthNet.uav[48] utilizationEnergyMission 970535.27954731
scalar OsgEarthNet.uav[48] utilizationEnergyMaintenance 455948.59968948
scalar OsgEarthNet.uav[48] utilizationEnergyCharge 1421705.1069336
scalar OsgEarthNet.uav[48] utilizationEnergyOverdrawMission 0
scalar OsgEarthNet.uav[48] utilizationEnergyOverdrawMaintenance 0
scalar OsgEarthNet.uav[48] utilizationCountMissions 330
scalar OsgEarthNet.uav[48] utilizationCountManeuversMission 6072
scalar OsgEarthNet.uav[48] utilizationCountManeuversMaintenance 661
scalar OsgEarthNet.uav[48] utilizationCountChargeState 330
scalar OsgEarthNet.uav[48] utilizationCountOverdrawnAfterMission 0
scalar OsgEarthNet.uav[48] utilizationCountIdleState 4
scalar OsgEarthNet.uav[48] utilizationFail 0
scalar OsgEarthNet.uav[48] simulationTime 1209600
scalar OsgEarthNet.uav[49] utilizationSecMission 186041.61261562
scalar OsgEarthNet.uav[49] utilizationSecMaintenance 115972.41347337
scalar OsgEarthNet.uav[49] utilizationSecCharge 907513.97291101
scalar OsgEarthNet.uav[49] utilizationSecIdle 72
scalar OsgEarthNet.uav[49] utilizationEnergyMission 915718.5266304
scalar OsgEarthNet.uav[49] utilizationEnergyMaintenance 543194.24584961
scalar OsgEarthNet.uav[49] utilizationEnergyCharge 1454289.3149414
scalar OsgEarthNet.uav[49] utilizationEnergyOverdrawMission 0
scalar OsgEarthNet.uav[49] utilizationEnergyOverdrawMaintenance 0
scalar OsgEarthNet.uav[49] utilizationCountMissions 342
scalar OsgEarthNet.uav[49] utilizationCountManeuversMission 6309
scalar OsgEarthNet.uav[49] utilizationCountManeuversMaintenance 684
scalar OsgEarthNet.uav[49] utilizationCountChargeState 342
scalar OsgEarthNet.uav[49] utilizationCountOverdrawnAfterMission 0
scalar OsgEarthNet.uav[49] utilizationCountIdleState 2
scalar OsgEarthNet.uav[49] utilizationFail 0
scalar OsgEarthNet.uav[49] simulationTime 1209600
scalar OsgEarthNet.uav[50] utilizationSecMission 182327.59740175
scalar OsgEarthNet.uav[50] utilizationSecMaintenance 114794.96738517
scalar OsgEarthNet.uav[50] utilizationSecCharge 909204.04209555
scalar OsgEarthNet.uav[50] utilizationSecIdle 3273.3921175336
scalar OsgEarthNet.uav[50] utilizationEnergyMission 884913.88415527
scalar OsgEarthNet.uav[50] utilizationEnergyMaintenance 543293.21851349
scalar OsgEarthNet.uav[50] utilizationEnergyCharge 1428679.0727539
scalar OsgEarthNet.uav[50] utilizationEnergyOverdrawMission 0
scalar OsgEarthNet.uav[50] utilizationEnergyOverdrawMaintenance 0
scalar OsgEarthNet.uav[50] utilizationCountMissions 341
scalar OsgEarthNet.uav[50] utilizationCountManeuversMission 5996
scalar OsgEarthNet.uav[50] utilizationCountManeuversMaintenance 682
scalar OsgEarthNet.uav[50] utilizationCountChargeState 341
scalar OsgEarthNet.uav[50] utilizationCountOverdrawnAfterMission 0
scalar OsgEarthNet.uav[50] utilizationCountIdleState 3
scalar OsgEarthNet.uav[50] utilizationFail 0
scalar OsgEarthNet.uav[50] simulationTime 1209600
scalar OsgEarthNet.uav[51] utilizationSecMission 202974.75491259
scalar OsgEarthNet.uav[51] utilizationSecMaintenance 97683.45872785
scalar OsgEarthNet.uav[51] utilizationSecCharge 908399.78435956
scalar OsgEarthNet.uav[51] utilizationSecIdle 542.001
scalar OsgEarthNet.uav[51] utilizationEnergyMission 977621.74974442
scalar OsgEarthNet.uav[51] utilizationEnergyMaintenance 457108.5604744
scalar OsgEarthNet.uav[51] utilizationEnergyCharge 1431155.8891602
scalar OsgEarthNet.uav[51] utilizationEnergyOverdrawMission 0
scalar OsgEarthNet.uav[51] utilizationEnergyOverdrawMaintenance 0
scalar OsgEarthNet.uav[51] utilizationCountMissions 329
scalar OsgEarthNet.uav[51] utilizationCountManeuversMission 6022
scalar OsgEarthNet.uav[51] utilizationCountManeuversMaintenance 658
scalar OsgEarthNet.uav[51] utilizationCountChargeState 329
scalar OsgEarthNet.uav[51] utilizationCountOverdrawnAfterMission 0
scalar OsgEarthNet.uav[51] utilizationCountIdleState 1
scalar OsgEarthNet.uav[51] utilizationFail 0
scalar OsgEarthNet.uav[51] simulationTime 1209600
scalar OsgEarthNet.uav[52] utilizationSecMission 188369.13957196
scalar OsgEarthNet.uav[52] utilizationSecMaintenance 107513.6278813
scalar OsgEarthNet.uav[52] utilizationSecCharge 913715.23154674
scalar OsgEarthNet.uav[52] utilizationSecIdle 2
scalar OsgEarthNet.uav[52] utilizationEnergyMission 913788.71960449
scalar OsgEarthNet.uav[52] utilizationEnergyMaintenance 507924.28850174
scalar OsgEarthNet.uav[52] utilizationEnergyCharge 1421228.4597168
scalar OsgEarthNet.uav[52] utilizationEnergyOverdrawMission 0
scalar OsgEarthNet.uav[52] utilizationEnergyOverdrawMaintenance 0
scalar OsgEarthNet.uav[52] utilizationCountMissions 337
scalar OsgEarthNet.uav[52] utilizationCountManeuversMission 5806
scalar OsgEarthNet.uav[52] utilizationCountManeuversMaintenance 674
scalar OsgEarthNet.uav[52] utilizationCountChargeState 337
scalar OsgEarthNet.uav[52] utilizationCountOverdrawnAfterMission 0
scalar OsgEarthNet.uav[52] utilizationCountIdleState 1
scalar OsgEarthNet.uav[52] utilizationFail 0
scalar OsgEarthNet.uav[52] simulationTime 1209600
scalar OsgEarthNet.uav[53] utilizationSecMission 197234.62582702
scalar OsgEarthNet.uav[53] utilizationSecMaintenance 100252.67040447
scalar OsgEarthNet.uav[53] utilizationSecCharge 909559.93680317
scalar OsgEarthNet.uav[53] utilizationSecIdle 2552.765965339
scalar OsgEarthNet.uav[53] utilizationEnergyMission 947540.31361771
scalar OsgEarthNet.uav[53] utilizationEnergyMaintenance 471765.17112732
scalar OsgEarthNet.uav[53] utilizationEnergyCharge 1415459.2758789
scalar OsgEarthNet.uav[53] utilizationEnergyOverdrawMission 0
scalar OsgEarthNet.uav[53] utilizationEnergyOverdrawMaintenance 0
scalar OsgEarthNet.uav[53] utilizationCountMissions 331
scalar OsgEarthNet.uav[53] utilizationCountManeuversMission 5637
scalar OsgEarthNet.uav[53] utilizationCountManeuversMaintenance 662
scalar OsgEarthNet.uav[53] utilizationCountChargeState 331
scalar OsgEarthNet.uav[53] utilizationCountOverdrawnAfterMission 0
scalar OsgEarthNet.uav[53] utilizationCountIdleState 4
scalar OsgEarthNet.uav[53] utilizationFail 0
scalar OsgEarthNet.uav[53] simulationTime 1209600
scalar OsgEarthNet.uav[54] utilizationSecMission 182230.74535385
scalar OsgEarthNet.uav[54] utilizationSecMaintenance 116770.9853377
scalar OsgEarthNet.uav[54] utilizationSecCharge 909983.65641893
scalar OsgEarthNet.uav[54] utilizationSecIdle 614.61188951643
scalar OsgEarthNet.uav[54] utilizationEnergyMission 883690.16461945
scalar OsgEarthNet.uav[54] utilizationEnergyMaintenance 553406.41754532
scalar OsgEarthNet.uav[54] utilizationEnergyCharge 1436554.6635742
scalar OsgEarthNet.uav[54] utilizationEnergyOverdrawMission 0
scalar OsgEarthNet.uav[54] utilizationEnergyOverdrawMaintenance 0
scalar OsgEarthNet.uav[54] utilizationCountMissions 345
scalar OsgEarthNet.uav[54] utilizationCountManeuversMission 5736
scalar OsgEarthNet.uav[54] utilizationCountManeuversMaintenance 690
scalar OsgEarthNet.uav[54] utilizationCountChargeState 345
scalar OsgEarthNet.uav[54] utilizationCountOverdrawnAfterMission 0
scalar OsgEarthNet.uav[54] utilizationCountIdleState 2
scalar OsgEarthNet.uav[54] utilizationFail 0
scalar OsgEarthNet.uav[54] simulationTime 1209600
scalar OsgEarthNet.uav[55] utilizationSecMission 198509.16999906
scalar OsgEarthNet.uav[55] utilizationSecMaintenance 101869.9016932
scalar OsgEarthNet.uav[55] utilizationSecCharge 908531.70769382
scalar OsgEarthNet.uav[55] utilizationSecIdle 689.21961391566
scalar OsgEarthNet.uav[55] utilizationEnergyMission 960476.29773712
scalar OsgEarthNet.uav[55] utilizationEnergyMaintenance 476306.15534973
scalar OsgEarthNet.uav[55] utilizationEnergyCharge 1433949.3703613
scalar OsgEarthNet.uav[55] utilizationEnergyOverdrawMission 0
scalar OsgEarthNet.uav[55] utilizationEnergyOverdrawMaintenance 0
scalar OsgEarthNet.uav[55] utilizationCountMissions 332
scalar OsgEarthNet.uav[55] utilizationCountManeuversMission 6004
scalar OsgEarthNet.uav[55] utilizationCountManeuversMaintenance 664
scalar OsgEarthNet.uav[55] utilizationCountChargeState 332
scalar OsgEarthNet.uav[55] utilizationCountOverdrawnAfterMission 0
scalar OsgEarthNet.uav[55] utilizationCountIdleState 1
scalar OsgEarthNet.uav[55] utilizationFail 0
scalar OsgEarthNet.uav[55] simulationTime 1209600
scalar OsgEarthNet.cs[0] usedPower 19892748.017703
scalar OsgEarthNet.cs[0] chargedPower 19892748.017703
scalar OsgEarthNet.cs[0] chargedMobileNodes 2
scalar OsgEarthNet.cs[0] reservations 4677
scalar OsgEarthNet.cs[1] usedPower 24791879.070923
scalar OsgEarthNet.cs[1] chargedPower 24791879.070923
scalar OsgEarthNet.cs[1] chargedMobileNodes 23
scalar OsgEarthNet.cs[1] reservations 6163
scalar OsgEarthNet.cs[2] usedPower 35521731.131992
scalar OsgEarthNet.cs[2] chargedPower 35521731.131992
scalar OsgEarthNet.cs[2] chargedMobileNodes 13
scalar OsgEarthNet.cs[2] reservations 7991

