version 2
run Szenario_Hotel_Gabelbach-14-20180712-18:29:23-12900
attr configname Szenario_Hotel_Gabelbach
attr datetime 20180712-18:29:23
attr experiment Szenario_Hotel_Gabelbach
attr inifile omnetpp.ini
attr iterationvars "$replM=2, $biWeight=0.35, $replSearchM=1, $numUAVs=58"
attr iterationvarsf replM=2,biWeight=0.35,replSearchM=1,numUAVs=58-
attr measurement "$replM=2, $biWeight=0.35, $replSearchM=1, $numUAVs=58"
attr network OsgEarthNet
attr processid 12900
attr repetition 2
attr replication #2
attr resultdir results
attr runnumber 14
attr seedset 14
itervar biWeight 0.35
itervar numUAVs 58
itervar replM 2
itervar replSearchM 1
param *.osgEarthScene.scene "\"Szenario_Hotel_Gabelbach.earth\""
param *.playgroundLatitude 50.6830269
param *.playgroundLongitude 10.8538055
param *.playgroundWidth 3500m
param *.playgroundHeight 3500m
param *.cs[0].posX 3537m
param *.cs[0].posY 965m
param *.cs[0].posZ 538m
param *.cs[1].posX 312m
param *.cs[1].posY 1262m
param *.cs[1].posZ 539m
param *.cs[2].posX 2185m
param *.cs[2].posY 3026m
param *.cs[2].posZ 777m
param *.cs[3].posX 10m
param *.cs[3].posY 2200m
param *.cs[3].posZ 560m
param *.cs[4].posX 750m
param *.cs[4].posY 200m
param *.cs[4].posZ 540m
param *.cs[5].posX 2450m
param *.cs[5].posY 180m
param *.cs[5].posZ 524m
param *.cs[6].posX 3140m
param *.cs[6].posY 1790m
param *.cs[6].posZ 606m
param *.numCSs 3
param *.uav[*].replacementMethod 2
param *.uav[*].weightedSumWeight 0.35
param *.missionControl.replacementSearchMethod 1
param *.numUAVs 58
param *.numCSs 3
param *.numUAVs 100
param *.*.timeStep 10s
param *.uav[*].commandPreviewCommandCount 20
param *.missionControl.missionFiles "\"missions\\\\Szenario_WB_Hotel_Gabelbach_Mission_Hotel.waypoints,missions\\\\Szenario_WB_Hotel_Gabelbach_Mission_Kickelhahn.waypoints,missions\\\\Szenario_WB_Hotel_Gabelbach_Mission_Ilmenau_Sportplatz.waypoints,missions\\\\Szenario_WB_Hotel_Gabelbach_Mission_Manebach_Mitte.waypoints,missions\\\\Szenario_WB_Hotel_Gabelbach_Mission_Manebach_Sued.waypoints,missions\\\\Szenario_WB_Hotel_Gabelbach_Hover_HoheSchlaufe.waypoints,missions\\\\Szenario_WB_Hotel_Gabelbach_Hover_Kickelhahn.waypoints,missions\\\\Szenario_WB_Hotel_Gabelbach_Hover_Gabelbachskopf.waypoints,missions\\\\Szenario_WB_Hotel_Gabelbach_Hover_Dachskopf.waypoints\""
param *.uav[0].startX 3537m
param *.uav[0].startY 965m
param *.uav[0].startZ 539m
param *.uav[1].startX 312m
param *.uav[1].startY 1262m
param *.uav[1].startZ 540m
param *.uav[2].startX 2185m
param *.uav[2].startY 3026m
param *.uav[2].startZ 778m
param *.uav[3].startX 3537m
param *.uav[3].startY 965m
param *.uav[3].startZ 539m
param *.uav[4].startX 312m
param *.uav[4].startY 1262m
param *.uav[4].startZ 540m
param *.uav[5].startX 2185m
param *.uav[5].startY 3026m
param *.uav[5].startZ 778m
param *.uav[6].startX 3537m
param *.uav[6].startY 965m
param *.uav[6].startZ 539m
param *.uav[7].startX 312m
param *.uav[7].startY 1262m
param *.uav[7].startZ 540m
param *.uav[8].startX 2185m
param *.uav[8].startY 3026m
param *.uav[8].startZ 778m
param *.uav[9].startX 3537m
param *.uav[9].startY 965m
param *.uav[9].startZ 539m
param *.uav[10].startX 3537m
param *.uav[10].startY 965m
param *.uav[10].startZ 539m
param *.uav[11].startX 312m
param *.uav[11].startY 1262m
param *.uav[11].startZ 540m
param *.uav[12].startX 2185m
param *.uav[12].startY 3026m
param *.uav[12].startZ 778m
param *.uav[13].startX 3537m
param *.uav[13].startY 965m
param *.uav[13].startZ 539m
param *.uav[14].startX 312m
param *.uav[14].startY 1262m
param *.uav[14].startZ 540m
param *.uav[15].startX 2185m
param *.uav[15].startY 3026m
param *.uav[15].startZ 778m
param *.uav[16].startX 3537m
param *.uav[16].startY 965m
param *.uav[16].startZ 539m
param *.uav[17].startX 312m
param *.uav[17].startY 1262m
param *.uav[17].startZ 540m
param *.uav[18].startX 2185m
param *.uav[18].startY 3026m
param *.uav[18].startZ 778m
param *.uav[19].startX 3537m
param *.uav[19].startY 965m
param *.uav[19].startZ 539m
param *.uav[20].startX 3537m
param *.uav[20].startY 965m
param *.uav[20].startZ 539m
param *.uav[21].startX 312m
param *.uav[21].startY 1262m
param *.uav[21].startZ 540m
param *.uav[22].startX 2185m
param *.uav[22].startY 3026m
param *.uav[22].startZ 778m
param *.uav[23].startX 3537m
param *.uav[23].startY 965m
param *.uav[23].startZ 539m
param *.uav[24].startX 312m
param *.uav[24].startY 1262m
param *.uav[24].startZ 540m
param *.uav[25].startX 2185m
param *.uav[25].startY 3026m
param *.uav[25].startZ 778m
param *.uav[26].startX 3537m
param *.uav[26].startY 965m
param *.uav[26].startZ 539m
param *.uav[27].startX 312m
param *.uav[27].startY 1262m
param *.uav[27].startZ 540m
param *.uav[28].startX 2185m
param *.uav[28].startY 3026m
param *.uav[28].startZ 778m
param *.uav[29].startX 3537m
param *.uav[29].startY 965m
param *.uav[29].startZ 539m
param *.uav[30].startX 3537m
param *.uav[30].startY 965m
param *.uav[30].startZ 539m
param *.uav[31].startX 312m
param *.uav[31].startY 1262m
param *.uav[31].startZ 540m
param *.uav[32].startX 2185m
param *.uav[32].startY 3026m
param *.uav[32].startZ 778m
param *.uav[33].startX 3537m
param *.uav[33].startY 965m
param *.uav[33].startZ 539m
param *.uav[34].startX 312m
param *.uav[34].startY 1262m
param *.uav[34].startZ 540m
param *.uav[35].startX 2185m
param *.uav[35].startY 3026m
param *.uav[35].startZ 778m
param *.uav[36].startX 3537m
param *.uav[36].startY 965m
param *.uav[36].startZ 539m
param *.uav[37].startX 312m
param *.uav[37].startY 1262m
param *.uav[37].startZ 540m
param *.uav[38].startX 2185m
param *.uav[38].startY 3026m
param *.uav[38].startZ 778m
param *.uav[39].startX 3537m
param *.uav[39].startY 965m
param *.uav[39].startZ 539m
param *.uav[40].startX 3537m
param *.uav[40].startY 965m
param *.uav[40].startZ 539m
param *.uav[41].startX 312m
param *.uav[41].startY 1262m
param *.uav[41].startZ 540m
param *.uav[42].startX 2185m
param *.uav[42].startY 3026m
param *.uav[42].startZ 778m
param *.uav[43].startX 3537m
param *.uav[43].startY 965m
param *.uav[43].startZ 539m
param *.uav[44].startX 312m
param *.uav[44].startY 1262m
param *.uav[44].startZ 540m
param *.uav[45].startX 2185m
param *.uav[45].startY 3026m
param *.uav[45].startZ 778m
param *.uav[46].startX 3537m
param *.uav[46].startY 965m
param *.uav[46].startZ 539m
param *.uav[47].startX 312m
param *.uav[47].startY 1262m
param *.uav[47].startZ 540m
param *.uav[48].startX 2185m
param *.uav[48].startY 3026m
param *.uav[48].startZ 778m
param *.uav[49].startX 3537m
param *.uav[49].startY 965m
param *.uav[49].startZ 539m
param *.uav[50].startX 3537m
param *.uav[50].startY 965m
param *.uav[50].startZ 539m
param *.uav[51].startX 312m
param *.uav[51].startY 1262m
param *.uav[51].startZ 540m
param *.uav[52].startX 2185m
param *.uav[52].startY 3026m
param *.uav[52].startZ 778m
param *.uav[53].startX 3537m
param *.uav[53].startY 965m
param *.uav[53].startZ 539m
param *.uav[54].startX 312m
param *.uav[54].startY 1262m
param *.uav[54].startZ 540m
param *.uav[55].startX 2185m
param *.uav[55].startY 3026m
param *.uav[55].startZ 778m
param *.uav[56].startX 3537m
param *.uav[56].startY 965m
param *.uav[56].startZ 539m
param *.uav[57].startX 312m
param *.uav[57].startY 1262m
param *.uav[57].startZ 540m
param *.uav[58].startX 2185m
param *.uav[58].startY 3026m
param *.uav[58].startZ 778m
param *.uav[59].startX 3537m
param *.uav[59].startY 965m
param *.uav[59].startZ 539m
param *.uav[60].startX 3537m
param *.uav[60].startY 965m
param *.uav[60].startZ 539m
param *.uav[61].startX 312m
param *.uav[61].startY 1262m
param *.uav[61].startZ 540m
param *.uav[62].startX 2185m
param *.uav[62].startY 3026m
param *.uav[62].startZ 778m
param *.uav[63].startX 3537m
param *.uav[63].startY 965m
param *.uav[63].startZ 539m
param *.uav[64].startX 312m
param *.uav[64].startY 1262m
param *.uav[64].startZ 540m
param *.uav[65].startX 2185m
param *.uav[65].startY 3026m
param *.uav[65].startZ 778m
param *.uav[66].startX 3537m
param *.uav[66].startY 965m
param *.uav[66].startZ 539m
param *.uav[67].startX 312m
param *.uav[67].startY 1262m
param *.uav[67].startZ 540m
param *.uav[68].startX 2185m
param *.uav[68].startY 3026m
param *.uav[68].startZ 778m
param *.uav[69].startX 3537m
param *.uav[69].startY 965m
param *.uav[69].startZ 539m
param *.uav[70].startX 3537m
param *.uav[70].startY 965m
param *.uav[70].startZ 539m
param *.uav[71].startX 312m
param *.uav[71].startY 1262m
param *.uav[71].startZ 540m
param *.uav[72].startX 2185m
param *.uav[72].startY 3026m
param *.uav[72].startZ 778m
param *.uav[73].startX 3537m
param *.uav[73].startY 965m
param *.uav[73].startZ 539m
param *.uav[74].startX 312m
param *.uav[74].startY 1262m
param *.uav[74].startZ 540m
param *.uav[75].startX 2185m
param *.uav[75].startY 3026m
param *.uav[75].startZ 778m
param *.uav[76].startX 3537m
param *.uav[76].startY 965m
param *.uav[76].startZ 539m
param *.uav[77].startX 312m
param *.uav[77].startY 1262m
param *.uav[77].startZ 540m
param *.uav[78].startX 2185m
param *.uav[78].startY 3026m
param *.uav[78].startZ 778m
param *.uav[79].startX 3537m
param *.uav[79].startY 965m
param *.uav[79].startZ 539m
param *.uav[80].startX 3537m
param *.uav[80].startY 965m
param *.uav[80].startZ 539m
param *.uav[81].startX 312m
param *.uav[81].startY 1262m
param *.uav[81].startZ 540m
param *.uav[82].startX 2185m
param *.uav[82].startY 3026m
param *.uav[82].startZ 778m
param *.uav[83].startX 3537m
param *.uav[83].startY 965m
param *.uav[83].startZ 539m
param *.uav[84].startX 312m
param *.uav[84].startY 1262m
param *.uav[84].startZ 540m
param *.uav[85].startX 2185m
param *.uav[85].startY 3026m
param *.uav[85].startZ 778m
param *.uav[86].startX 3537m
param *.uav[86].startY 965m
param *.uav[86].startZ 539m
param *.uav[87].startX 312m
param *.uav[87].startY 1262m
param *.uav[87].startZ 540m
param *.uav[88].startX 2185m
param *.uav[88].startY 3026m
param *.uav[88].startZ 778m
param *.uav[89].startX 3537m
param *.uav[89].startY 965m
param *.uav[89].startZ 539m
param *.uav[90].startX 3537m
param *.uav[90].startY 965m
param *.uav[90].startZ 539m
param *.uav[91].startX 312m
param *.uav[91].startY 1262m
param *.uav[91].startZ 540m
param *.uav[92].startX 2185m
param *.uav[92].startY 3026m
param *.uav[92].startZ 778m
param *.uav[93].startX 3537m
param *.uav[93].startY 965m
param *.uav[93].startZ 539m
param *.uav[94].startX 312m
param *.uav[94].startY 1262m
param *.uav[94].startZ 540m
param *.uav[95].startX 2185m
param *.uav[95].startY 3026m
param *.uav[95].startZ 778m
param *.uav[96].startX 3537m
param *.uav[96].startY 965m
param *.uav[96].startZ 539m
param *.uav[97].startX 312m
param *.uav[97].startY 1262m
param *.uav[97].startZ 540m
param *.uav[98].startX 2185m
param *.uav[98].startY 3026m
param *.uav[98].startZ 778m
param *.uav[99].startX 3537m
param *.uav[99].startY 965m
param *.uav[99].startZ 539m
param *.osgEarthScene.scene "\"boston.earth\""
param *.playgroundLatitude 42.3558
param *.playgroundLongitude -71.0677
param *.playgroundWidth 400m
param *.playgroundHeight 200m
param *.channelController.connectionColor "\"#0000FF40\""
param *.channelController.showConnections false
param *.uav[*].modelURL "\"quadrocopter.small.obj.15.scale.0,0,90.rot\""
param *.uav[*].labelColor "\"#FF7C00CC\""
param *.uav[*].label2Color "\"#FF7C00EE\""
param *.uav[*].batteryCapacity 5200mAh
param *.uav[*].batteryRemaining uav[index].batteryCapacity
param *.uav[*].predictionQuantile 0.95
param *.uav[*].replacementMethod 2
param *.uav[*].weightedSumWeight 0.5
param *.cs[*].modelURL "\"chargingstation_v1.osgt.2.scale.0,0,0.rot.0,0,-15e-1.trans\""
param *.cs[*].spotsWaiting 999
param *.cs[*].spotsCharging 999
param *.cs[*].chargeEffectivenessPercentage 100
param *.cs[*].nonLinearPhaseStartPercentage 85
param *.cs[*].chargeCurrent 6.0A
param *.cs[*].prioritizeFastCharge true
param *.missionControl.replacementSearchMethod 0
param *.*.timeStep 9s

scalar OsgEarthNet.uav[0] utilizationSecMission 186669.23768576
scalar OsgEarthNet.uav[0] utilizationSecMaintenance 97308.755314236
scalar OsgEarthNet.uav[0] utilizationSecCharge 921950
scalar OsgEarthNet.uav[0] utilizationSecIdle 3672.006
scalar OsgEarthNet.uav[0] utilizationEnergyMission 903236.17936668
scalar OsgEarthNet.uav[0] utilizationEnergyMaintenance 457205.22010422
scalar OsgEarthNet.uav[0] utilizationEnergyCharge 1356042.4509277
scalar OsgEarthNet.uav[0] utilizationEnergyOverdrawMission 0
scalar OsgEarthNet.uav[0] utilizationEnergyOverdrawMaintenance 0
scalar OsgEarthNet.uav[0] utilizationCountMissions 316
scalar OsgEarthNet.uav[0] utilizationCountManeuversMission 5857
scalar OsgEarthNet.uav[0] utilizationCountManeuversMaintenance 633
scalar OsgEarthNet.uav[0] utilizationCountChargeState 316
scalar OsgEarthNet.uav[0] utilizationCountOverdrawnAfterMission 0
scalar OsgEarthNet.uav[0] utilizationCountIdleState 13
scalar OsgEarthNet.uav[0] utilizationFail 0
scalar OsgEarthNet.uav[0] simulationTime 1209600
scalar OsgEarthNet.uav[1] utilizationSecMission 179310.00140464
scalar OsgEarthNet.uav[1] utilizationSecMaintenance 108384.55650667
scalar OsgEarthNet.uav[1] utilizationSecCharge 919050
scalar OsgEarthNet.uav[1] utilizationSecIdle 2855.4410886909
scalar OsgEarthNet.uav[1] utilizationEnergyMission 872371.03219313
scalar OsgEarthNet.uav[1] utilizationEnergyMaintenance 515120.52642059
scalar OsgEarthNet.uav[1] utilizationEnergyCharge 1379828.8989258
scalar OsgEarthNet.uav[1] utilizationEnergyOverdrawMission 0
scalar OsgEarthNet.uav[1] utilizationEnergyOverdrawMaintenance 0
scalar OsgEarthNet.uav[1] utilizationCountMissions 321
scalar OsgEarthNet.uav[1] utilizationCountManeuversMission 5669
scalar OsgEarthNet.uav[1] utilizationCountManeuversMaintenance 643
scalar OsgEarthNet.uav[1] utilizationCountChargeState 321
scalar OsgEarthNet.uav[1] utilizationCountOverdrawnAfterMission 0
scalar OsgEarthNet.uav[1] utilizationCountIdleState 11
scalar OsgEarthNet.uav[1] utilizationFail 0
scalar OsgEarthNet.uav[1] simulationTime 1209600
scalar OsgEarthNet.uav[2] utilizationSecMission 183811.29328385
scalar OsgEarthNet.uav[2] utilizationSecMaintenance 101263.12369264
scalar OsgEarthNet.uav[2] utilizationSecCharge 921563.58002351
scalar OsgEarthNet.uav[2] utilizationSecIdle 2962.002
scalar OsgEarthNet.uav[2] utilizationEnergyMission 892548.80410385
scalar OsgEarthNet.uav[2] utilizationEnergyMaintenance 474332.23881912
scalar OsgEarthNet.uav[2] utilizationEnergyCharge 1367667.6948242
scalar OsgEarthNet.uav[2] utilizationEnergyOverdrawMission 0
scalar OsgEarthNet.uav[2] utilizationEnergyOverdrawMaintenance 0
scalar OsgEarthNet.uav[2] utilizationCountMissions 317
scalar OsgEarthNet.uav[2] utilizationCountManeuversMission 5866
scalar OsgEarthNet.uav[2] utilizationCountManeuversMaintenance 634
scalar OsgEarthNet.uav[2] utilizationCountChargeState 317
scalar OsgEarthNet.uav[2] utilizationCountOverdrawnAfterMission 0
scalar OsgEarthNet.uav[2] utilizationCountIdleState 15
scalar OsgEarthNet.uav[2] utilizationFail 0
scalar OsgEarthNet.uav[2] simulationTime 1209600
scalar OsgEarthNet.uav[3] utilizationSecMission 182423.04984285
scalar OsgEarthNet.uav[3] utilizationSecMaintenance 105613.46070522
scalar OsgEarthNet.uav[3] utilizationSecCharge 917583.54419539
scalar OsgEarthNet.uav[3] utilizationSecIdle 3979.9442565444
scalar OsgEarthNet.uav[3] utilizationEnergyMission 886474.83730698
scalar OsgEarthNet.uav[3] utilizationEnergyMaintenance 495454.01896286
scalar OsgEarthNet.uav[3] utilizationEnergyCharge 1377756.2341309
scalar OsgEarthNet.uav[3] utilizationEnergyOverdrawMission 0
scalar OsgEarthNet.uav[3] utilizationEnergyOverdrawMaintenance 0
scalar OsgEarthNet.uav[3] utilizationCountMissions 320
scalar OsgEarthNet.uav[3] utilizationCountManeuversMission 5745
scalar OsgEarthNet.uav[3] utilizationCountManeuversMaintenance 640
scalar OsgEarthNet.uav[3] utilizationCountChargeState 320
scalar OsgEarthNet.uav[3] utilizationCountOverdrawnAfterMission 0
scalar OsgEarthNet.uav[3] utilizationCountIdleState 14
scalar OsgEarthNet.uav[3] utilizationFail 0
scalar OsgEarthNet.uav[3] simulationTime 1209600
scalar OsgEarthNet.uav[4] utilizationSecMission 173453.45559292
scalar OsgEarthNet.uav[4] utilizationSecMaintenance 101083.74140365
scalar OsgEarthNet.uav[4] utilizationSecCharge 930944.44840055
scalar OsgEarthNet.uav[4] utilizationSecIdle 4118.3536028792
scalar OsgEarthNet.uav[4] utilizationEnergyMission 838695.86881638
scalar OsgEarthNet.uav[4] utilizationEnergyMaintenance 478295.2722168
scalar OsgEarthNet.uav[4] utilizationEnergyCharge 1315247.2426758
scalar OsgEarthNet.uav[4] utilizationEnergyOverdrawMission 0
scalar OsgEarthNet.uav[4] utilizationEnergyOverdrawMaintenance 0
scalar OsgEarthNet.uav[4] utilizationCountMissions 319
scalar OsgEarthNet.uav[4] utilizationCountManeuversMission 5070
scalar OsgEarthNet.uav[4] utilizationCountManeuversMaintenance 638
scalar OsgEarthNet.uav[4] utilizationCountChargeState 319
scalar OsgEarthNet.uav[4] utilizationCountOverdrawnAfterMission 0
scalar OsgEarthNet.uav[4] utilizationCountIdleState 29
scalar OsgEarthNet.uav[4] utilizationFail 0
scalar OsgEarthNet.uav[4] simulationTime 1209600
scalar OsgEarthNet.uav[5] utilizationSecMission 187341.79292163
scalar OsgEarthNet.uav[5] utilizationSecMaintenance 99789.871158843
scalar OsgEarthNet.uav[5] utilizationSecCharge 921396.33491953
scalar OsgEarthNet.uav[5] utilizationSecIdle 1072
scalar OsgEarthNet.uav[5] utilizationEnergyMission 908336.94019699
scalar OsgEarthNet.uav[5] utilizationEnergyMaintenance 471384.05296707
scalar OsgEarthNet.uav[5] utilizationEnergyCharge 1380037.5129395
scalar OsgEarthNet.uav[5] utilizationEnergyOverdrawMission 0
scalar OsgEarthNet.uav[5] utilizationEnergyOverdrawMaintenance 0
scalar OsgEarthNet.uav[5] utilizationCountMissions 317
scalar OsgEarthNet.uav[5] utilizationCountManeuversMission 5958
scalar OsgEarthNet.uav[5] utilizationCountManeuversMaintenance 634
scalar OsgEarthNet.uav[5] utilizationCountChargeState 317
scalar OsgEarthNet.uav[5] utilizationCountOverdrawnAfterMission 0
scalar OsgEarthNet.uav[5] utilizationCountIdleState 12
scalar OsgEarthNet.uav[5] utilizationFail 0
scalar OsgEarthNet.uav[5] simulationTime 1209600
scalar OsgEarthNet.uav[6] utilizationSecMission 172116.42059383
scalar OsgEarthNet.uav[6] utilizationSecMaintenance 99443.439571712
scalar OsgEarthNet.uav[6] utilizationSecCharge 932988.35273193
scalar OsgEarthNet.uav[6] utilizationSecIdle 5051.7861025228
scalar OsgEarthNet.uav[6] utilizationEnergyMission 833304.91429901
scalar OsgEarthNet.uav[6] utilizationEnergyMaintenance 470092.51771545
scalar OsgEarthNet.uav[6] utilizationEnergyCharge 1296899.0993652
scalar OsgEarthNet.uav[6] utilizationEnergyOverdrawMission 0
scalar OsgEarthNet.uav[6] utilizationEnergyOverdrawMaintenance 0
scalar OsgEarthNet.uav[6] utilizationCountMissions 315
scalar OsgEarthNet.uav[6] utilizationCountManeuversMission 5244
scalar OsgEarthNet.uav[6] utilizationCountManeuversMaintenance 630
scalar OsgEarthNet.uav[6] utilizationCountChargeState 315
scalar OsgEarthNet.uav[6] utilizationCountOverdrawnAfterMission 0
scalar OsgEarthNet.uav[6] utilizationCountIdleState 33
scalar OsgEarthNet.uav[6] utilizationFail 0
scalar OsgEarthNet.uav[6] simulationTime 1209600
scalar OsgEarthNet.uav[7] utilizationSecMission 192483.69919098
scalar OsgEarthNet.uav[7] utilizationSecMaintenance 91954.298302299
scalar OsgEarthNet.uav[7] utilizationSecCharge 922050
scalar OsgEarthNet.uav[7] utilizationSecIdle 3112.0015067221
scalar OsgEarthNet.uav[7] utilizationEnergyMission 927366.10205495
scalar OsgEarthNet.uav[7] utilizationEnergyMaintenance 429830.91175079
scalar OsgEarthNet.uav[7] utilizationEnergyCharge 1360750.8857422
scalar OsgEarthNet.uav[7] utilizationEnergyOverdrawMission 0
scalar OsgEarthNet.uav[7] utilizationEnergyOverdrawMaintenance 0
scalar OsgEarthNet.uav[7] utilizationCountMissions 313
scalar OsgEarthNet.uav[7] utilizationCountManeuversMission 5985
scalar OsgEarthNet.uav[7] utilizationCountManeuversMaintenance 627
scalar OsgEarthNet.uav[7] utilizationCountChargeState 313
scalar OsgEarthNet.uav[7] utilizationCountOverdrawnAfterMission 0
scalar OsgEarthNet.uav[7] utilizationCountIdleState 26
scalar OsgEarthNet.uav[7] utilizationFail 0
scalar OsgEarthNet.uav[7] simulationTime 1209600
scalar OsgEarthNet.uav[8] utilizationSecMission 194900.98776174
scalar OsgEarthNet.uav[8] utilizationSecMaintenance 90490.120803322
scalar OsgEarthNet.uav[8] utilizationSecCharge 922231.44017091
scalar OsgEarthNet.uav[8] utilizationSecIdle 1977.4502640309
scalar OsgEarthNet.uav[8] utilizationEnergyMission 948031.68206406
scalar OsgEarthNet.uav[8] utilizationEnergyMaintenance 421843.65040588
scalar OsgEarthNet.uav[8] utilizationEnergyCharge 1365659.8937988
scalar OsgEarthNet.uav[8] utilizationEnergyOverdrawMission 0
scalar OsgEarthNet.uav[8] utilizationEnergyOverdrawMaintenance 0
scalar OsgEarthNet.uav[8] utilizationCountMissions 311
scalar OsgEarthNet.uav[8] utilizationCountManeuversMission 6140
scalar OsgEarthNet.uav[8] utilizationCountManeuversMaintenance 622
scalar OsgEarthNet.uav[8] utilizationCountChargeState 311
scalar OsgEarthNet.uav[8] utilizationCountOverdrawnAfterMission 0
scalar OsgEarthNet.uav[8] utilizationCountIdleState 19
scalar OsgEarthNet.uav[8] utilizationFail 0
scalar OsgEarthNet.uav[8] simulationTime 1209600
scalar OsgEarthNet.uav[9] utilizationSecMission 203153.31595543
scalar OsgEarthNet.uav[9] utilizationSecMaintenance 90194.538304618
scalar OsgEarthNet.uav[9] utilizationSecCharge 913280
scalar OsgEarthNet.uav[9] utilizationSecIdle 2972.1447399488
scalar OsgEarthNet.uav[9] utilizationEnergyMission 988242.93547058
scalar OsgEarthNet.uav[9] utilizationEnergyMaintenance 414625.13278707
scalar OsgEarthNet.uav[9] utilizationEnergyCharge 1404758.2199707
scalar OsgEarthNet.uav[9] utilizationEnergyOverdrawMission 0
scalar OsgEarthNet.uav[9] utilizationEnergyOverdrawMaintenance 0
scalar OsgEarthNet.uav[9] utilizationCountMissions 314
scalar OsgEarthNet.uav[9] utilizationCountManeuversMission 6700
scalar OsgEarthNet.uav[9] utilizationCountManeuversMaintenance 628
scalar OsgEarthNet.uav[9] utilizationCountChargeState 313
scalar OsgEarthNet.uav[9] utilizationCountOverdrawnAfterMission 0
scalar OsgEarthNet.uav[9] utilizationCountIdleState 2
scalar OsgEarthNet.uav[9] utilizationFail 0
scalar OsgEarthNet.uav[9] simulationTime 1209600
scalar OsgEarthNet.uav[10] utilizationSecMission 195429.80243472
scalar OsgEarthNet.uav[10] utilizationSecMaintenance 92214.508440412
scalar OsgEarthNet.uav[10] utilizationSecCharge 919386.37002354
scalar OsgEarthNet.uav[10] utilizationSecIdle 2569.3181013329
scalar OsgEarthNet.uav[10] utilizationEnergyMission 944710.78829956
scalar OsgEarthNet.uav[10] utilizationEnergyMaintenance 432003.02455902
scalar OsgEarthNet.uav[10] utilizationEnergyCharge 1378965.6015625
scalar OsgEarthNet.uav[10] utilizationEnergyOverdrawMission 0
scalar OsgEarthNet.uav[10] utilizationEnergyOverdrawMaintenance 0
scalar OsgEarthNet.uav[10] utilizationCountMissions 312
scalar OsgEarthNet.uav[10] utilizationCountManeuversMission 6067
scalar OsgEarthNet.uav[10] utilizationCountManeuversMaintenance 624
scalar OsgEarthNet.uav[10] utilizationCountChargeState 312
scalar OsgEarthNet.uav[10] utilizationCountOverdrawnAfterMission 0
scalar OsgEarthNet.uav[10] utilizationCountIdleState 8
scalar OsgEarthNet.uav[10] utilizationFail 0
scalar OsgEarthNet.uav[10] simulationTime 1209600
scalar OsgEarthNet.uav[11] utilizationSecMission 175005.29571583
scalar OsgEarthNet.uav[11] utilizationSecMaintenance 109984.13388974
scalar OsgEarthNet.uav[11] utilizationSecCharge 919985.8636954
scalar OsgEarthNet.uav[11] utilizationSecIdle 4624.7056990363
scalar OsgEarthNet.uav[11] utilizationEnergyMission 845678.6578331
scalar OsgEarthNet.uav[11] utilizationEnergyMaintenance 522332.99625015
scalar OsgEarthNet.uav[11] utilizationEnergyCharge 1374011.2185059
scalar OsgEarthNet.uav[11] utilizationEnergyOverdrawMission 0
scalar OsgEarthNet.uav[11] utilizationEnergyOverdrawMaintenance 0
scalar OsgEarthNet.uav[11] utilizationCountMissions 325
scalar OsgEarthNet.uav[11] utilizationCountManeuversMission 5508
scalar OsgEarthNet.uav[11] utilizationCountManeuversMaintenance 650
scalar OsgEarthNet.uav[11] utilizationCountChargeState 325
scalar OsgEarthNet.uav[11] utilizationCountOverdrawnAfterMission 0
scalar OsgEarthNet.uav[11] utilizationCountIdleState 22
scalar OsgEarthNet.uav[11] utilizationFail 0
scalar OsgEarthNet.uav[11] simulationTime 1209600
scalar OsgEarthNet.uav[12] utilizationSecMission 201729.42167661
scalar OsgEarthNet.uav[12] utilizationSecMaintenance 91350.760878838
scalar OsgEarthNet.uav[12] utilizationSecCharge 914777.81344455
scalar OsgEarthNet.uav[12] utilizationSecIdle 1742.003
scalar OsgEarthNet.uav[12] utilizationEnergyMission 983030.45866013
scalar OsgEarthNet.uav[12] utilizationEnergyMaintenance 422938.24758148
scalar OsgEarthNet.uav[12] utilizationEnergyCharge 1401160.3037109
scalar OsgEarthNet.uav[12] utilizationEnergyOverdrawMission 0
scalar OsgEarthNet.uav[12] utilizationEnergyOverdrawMaintenance 0
scalar OsgEarthNet.uav[12] utilizationCountMissions 313
scalar OsgEarthNet.uav[12] utilizationCountManeuversMission 6558
scalar OsgEarthNet.uav[12] utilizationCountManeuversMaintenance 626
scalar OsgEarthNet.uav[12] utilizationCountChargeState 313
scalar OsgEarthNet.uav[12] utilizationCountOverdrawnAfterMission 0
scalar OsgEarthNet.uav[12] utilizationCountIdleState 3
scalar OsgEarthNet.uav[12] utilizationFail 0
scalar OsgEarthNet.uav[12] simulationTime 1209600
scalar OsgEarthNet.uav[13] utilizationSecMission 188590.29993887
scalar OsgEarthNet.uav[13] utilizationSecMaintenance 100783.08038299
scalar OsgEarthNet.uav[13] utilizationSecCharge 918700
scalar OsgEarthNet.uav[13] utilizationSecIdle 1526.6186781405
scalar OsgEarthNet.uav[13] utilizationEnergyMission 917296.25935364
scalar OsgEarthNet.uav[13] utilizationEnergyMaintenance 472452.98967796
scalar OsgEarthNet.uav[13] utilizationEnergyCharge 1380035.4707031
scalar OsgEarthNet.uav[13] utilizationEnergyOverdrawMission 0
scalar OsgEarthNet.uav[13] utilizationEnergyOverdrawMaintenance 0
scalar OsgEarthNet.uav[13] utilizationCountMissions 317
scalar OsgEarthNet.uav[13] utilizationCountManeuversMission 5857
scalar OsgEarthNet.uav[13] utilizationCountManeuversMaintenance 634
scalar OsgEarthNet.uav[13] utilizationCountChargeState 316
scalar OsgEarthNet.uav[13] utilizationCountOverdrawnAfterMission 0
scalar OsgEarthNet.uav[13] utilizationCountIdleState 14
scalar OsgEarthNet.uav[13] utilizationFail 0
scalar OsgEarthNet.uav[13] simulationTime 1209600
scalar OsgEarthNet.uav[14] utilizationSecMission 177983.16234147
scalar OsgEarthNet.uav[14] utilizationSecMaintenance 113236.49391863
scalar OsgEarthNet.uav[14] utilizationSecCharge 916988.34173989
scalar OsgEarthNet.uav[14] utilizationSecIdle 1392.001
scalar OsgEarthNet.uav[14] utilizationEnergyMission 867597.84184647
scalar OsgEarthNet.uav[14] utilizationEnergyMaintenance 538235.92670059
scalar OsgEarthNet.uav[14] utilizationEnergyCharge 1407023.9577637
scalar OsgEarthNet.uav[14] utilizationEnergyOverdrawMission 0
scalar OsgEarthNet.uav[14] utilizationEnergyOverdrawMaintenance 0
scalar OsgEarthNet.uav[14] utilizationCountMissions 322
scalar OsgEarthNet.uav[14] utilizationCountManeuversMission 5645
scalar OsgEarthNet.uav[14] utilizationCountManeuversMaintenance 644
scalar OsgEarthNet.uav[14] utilizationCountChargeState 322
scalar OsgEarthNet.uav[14] utilizationCountOverdrawnAfterMission 0
scalar OsgEarthNet.uav[14] utilizationCountIdleState 10
scalar OsgEarthNet.uav[14] utilizationFail 0
scalar OsgEarthNet.uav[14] simulationTime 1209600
scalar OsgEarthNet.uav[15] utilizationSecMission 187585.43839678
scalar OsgEarthNet.uav[15] utilizationSecMaintenance 101368.5143258
scalar OsgEarthNet.uav[15] utilizationSecCharge 919864.04627742
scalar OsgEarthNet.uav[15] utilizationSecIdle 782
scalar OsgEarthNet.uav[15] utilizationEnergyMission 916468.74410311
scalar OsgEarthNet.uav[15] utilizationEnergyMaintenance 475684.29330826
scalar OsgEarthNet.uav[15] utilizationEnergyCharge 1385140.5153809
scalar OsgEarthNet.uav[15] utilizationEnergyOverdrawMission 0
scalar OsgEarthNet.uav[15] utilizationEnergyOverdrawMaintenance 0
scalar OsgEarthNet.uav[15] utilizationCountMissions 315
scalar OsgEarthNet.uav[15] utilizationCountManeuversMission 6013
scalar OsgEarthNet.uav[15] utilizationCountManeuversMaintenance 629
scalar OsgEarthNet.uav[15] utilizationCountChargeState 315
scalar OsgEarthNet.uav[15] utilizationCountOverdrawnAfterMission 0
scalar OsgEarthNet.uav[15] utilizationCountIdleState 12
scalar OsgEarthNet.uav[15] utilizationFail 0
scalar OsgEarthNet.uav[15] simulationTime 1209600
scalar OsgEarthNet.uav[16] utilizationSecMission 179308.10799528
scalar OsgEarthNet.uav[16] utilizationSecMaintenance 104814.0942244
scalar OsgEarthNet.uav[16] utilizationSecCharge 921035.78978032
scalar OsgEarthNet.uav[16] utilizationSecIdle 4442.007
scalar OsgEarthNet.uav[16] utilizationEnergyMission 870372.98981857
scalar OsgEarthNet.uav[16] utilizationEnergyMaintenance 492550.83539963
scalar OsgEarthNet.uav[16] utilizationEnergyCharge 1361443.1469727
scalar OsgEarthNet.uav[16] utilizationEnergyOverdrawMission 0
scalar OsgEarthNet.uav[16] utilizationEnergyOverdrawMaintenance 0
scalar OsgEarthNet.uav[16] utilizationCountMissions 317
scalar OsgEarthNet.uav[16] utilizationCountManeuversMission 5667
scalar OsgEarthNet.uav[16] utilizationCountManeuversMaintenance 634
scalar OsgEarthNet.uav[16] utilizationCountChargeState 317
scalar OsgEarthNet.uav[16] utilizationCountOverdrawnAfterMission 0
scalar OsgEarthNet.uav[16] utilizationCountIdleState 22
scalar OsgEarthNet.uav[16] utilizationFail 0
scalar OsgEarthNet.uav[16] simulationTime 1209600
scalar OsgEarthNet.uav[17] utilizationSecMission 183101.84926987
scalar OsgEarthNet.uav[17] utilizationSecMaintenance 101166.62401011
scalar OsgEarthNet.uav[17] utilizationSecCharge 922189.52072002
scalar OsgEarthNet.uav[17] utilizationSecIdle 3142.005
scalar OsgEarthNet.uav[17] utilizationEnergyMission 890767.18106461
scalar OsgEarthNet.uav[17] utilizationEnergyMaintenance 474893.28969193
scalar OsgEarthNet.uav[17] utilizationEnergyCharge 1362743.2094727
scalar OsgEarthNet.uav[17] utilizationEnergyOverdrawMission 0
scalar OsgEarthNet.uav[17] utilizationEnergyOverdrawMaintenance 0
scalar OsgEarthNet.uav[17] utilizationCountMissions 318
scalar OsgEarthNet.uav[17] utilizationCountManeuversMission 5946
scalar OsgEarthNet.uav[17] utilizationCountManeuversMaintenance 636
scalar OsgEarthNet.uav[17] utilizationCountChargeState 318
scalar OsgEarthNet.uav[17] utilizationCountOverdrawnAfterMission 0
scalar OsgEarthNet.uav[17] utilizationCountIdleState 7
scalar OsgEarthNet.uav[17] utilizationFail 0
scalar OsgEarthNet.uav[17] simulationTime 1209600
scalar OsgEarthNet.uav[18] utilizationSecMission 199776.32585497
scalar OsgEarthNet.uav[18] utilizationSecMaintenance 90388.291369391
scalar OsgEarthNet.uav[18] utilizationSecCharge 917375.95642835
scalar OsgEarthNet.uav[18] utilizationSecIdle 2059.4253472904
scalar OsgEarthNet.uav[18] utilizationEnergyMission 969917.71877289
scalar OsgEarthNet.uav[18] utilizationEnergyMaintenance 421451.60402679
scalar OsgEarthNet.uav[18] utilizationEnergyCharge 1388445.175293
scalar OsgEarthNet.uav[18] utilizationEnergyOverdrawMission 0
scalar OsgEarthNet.uav[18] utilizationEnergyOverdrawMaintenance 0
scalar OsgEarthNet.uav[18] utilizationCountMissions 313
scalar OsgEarthNet.uav[18] utilizationCountManeuversMission 6445
scalar OsgEarthNet.uav[18] utilizationCountManeuversMaintenance 626
scalar OsgEarthNet.uav[18] utilizationCountChargeState 313
scalar OsgEarthNet.uav[18] utilizationCountOverdrawnAfterMission 0
scalar OsgEarthNet.uav[18] utilizationCountIdleState 7
scalar OsgEarthNet.uav[18] utilizationFail 0
scalar OsgEarthNet.uav[18] simulationTime 1209600
scalar OsgEarthNet.uav[19] utilizationSecMission 192275.06029999
scalar OsgEarthNet.uav[19] utilizationSecMaintenance 102542.93870001
scalar OsgEarthNet.uav[19] utilizationSecCharge 914360
scalar OsgEarthNet.uav[19] utilizationSecIdle 422
scalar OsgEarthNet.uav[19] utilizationEnergyMission 943040.73122787
scalar OsgEarthNet.uav[19] utilizationEnergyMaintenance 480936.27163275
scalar OsgEarthNet.uav[19] utilizationEnergyCharge 1411642.3261719
scalar OsgEarthNet.uav[19] utilizationEnergyOverdrawMission 0
scalar OsgEarthNet.uav[19] utilizationEnergyOverdrawMaintenance 0
scalar OsgEarthNet.uav[19] utilizationCountMissions 320
scalar OsgEarthNet.uav[19] utilizationCountManeuversMission 6511
scalar OsgEarthNet.uav[19] utilizationCountManeuversMaintenance 639
scalar OsgEarthNet.uav[19] utilizationCountChargeState 319
scalar OsgEarthNet.uav[19] utilizationCountOverdrawnAfterMission 0
scalar OsgEarthNet.uav[19] utilizationCountIdleState 5
scalar OsgEarthNet.uav[19] utilizationFail 0
scalar OsgEarthNet.uav[19] simulationTime 1209600
scalar OsgEarthNet.uav[20] utilizationSecMission 181634.5366861
scalar OsgEarthNet.uav[20] utilizationSecMaintenance 101219.64209491
scalar OsgEarthNet.uav[20] utilizationSecCharge 925253.820219
scalar OsgEarthNet.uav[20] utilizationSecIdle 1492
scalar OsgEarthNet.uav[20] utilizationEnergyMission 872277.60609818
scalar OsgEarthNet.uav[20] utilizationEnergyMaintenance 479307.59404755
scalar OsgEarthNet.uav[20] utilizationEnergyCharge 1352765.847168
scalar OsgEarthNet.uav[20] utilizationEnergyOverdrawMission 0
scalar OsgEarthNet.uav[20] utilizationEnergyOverdrawMaintenance 0
scalar OsgEarthNet.uav[20] utilizationCountMissions 322
scalar OsgEarthNet.uav[20] utilizationCountManeuversMission 5201
scalar OsgEarthNet.uav[20] utilizationCountManeuversMaintenance 643
scalar OsgEarthNet.uav[20] utilizationCountChargeState 322
scalar OsgEarthNet.uav[20] utilizationCountOverdrawnAfterMission 0
scalar OsgEarthNet.uav[20] utilizationCountIdleState 22
scalar OsgEarthNet.uav[20] utilizationFail 0
scalar OsgEarthNet.uav[20] simulationTime 1209600
scalar OsgEarthNet.uav[21] utilizationSecMission 187854.79569683
scalar OsgEarthNet.uav[21] utilizationSecMaintenance 94629.760214476
scalar OsgEarthNet.uav[21] utilizationSecCharge 923120
scalar OsgEarthNet.uav[21] utilizationSecIdle 3995.443088691
scalar OsgEarthNet.uav[21] utilizationEnergyMission 906626.07183702
scalar OsgEarthNet.uav[21] utilizationEnergyMaintenance 442335.44176102
scalar OsgEarthNet.uav[21] utilizationEnergyCharge 1350789.4228516
scalar OsgEarthNet.uav[21] utilizationEnergyOverdrawMission 0
scalar OsgEarthNet.uav[21] utilizationEnergyOverdrawMaintenance 0
scalar OsgEarthNet.uav[21] utilizationCountMissions 318
scalar OsgEarthNet.uav[21] utilizationCountManeuversMission 5521
scalar OsgEarthNet.uav[21] utilizationCountManeuversMaintenance 637
scalar OsgEarthNet.uav[21] utilizationCountChargeState 318
scalar OsgEarthNet.uav[21] utilizationCountOverdrawnAfterMission 0
scalar OsgEarthNet.uav[21] utilizationCountIdleState 20
scalar OsgEarthNet.uav[21] utilizationFail 0
scalar OsgEarthNet.uav[21] simulationTime 1209600
scalar OsgEarthNet.uav[22] utilizationSecMission 185691.86128281
scalar OsgEarthNet.uav[22] utilizationSecMaintenance 94287.64873535
scalar OsgEarthNet.uav[22] utilizationSecCharge 926510.85790117
scalar OsgEarthNet.uav[22] utilizationSecIdle 3109.6310806652
scalar OsgEarthNet.uav[22] utilizationEnergyMission 899922.06616592
scalar OsgEarthNet.uav[22] utilizationEnergyMaintenance 446367.24144363
scalar OsgEarthNet.uav[22] utilizationEnergyCharge 1343394.2443848
scalar OsgEarthNet.uav[22] utilizationEnergyOverdrawMission 0
scalar OsgEarthNet.uav[22] utilizationEnergyOverdrawMaintenance 0
scalar OsgEarthNet.uav[22] utilizationCountMissions 311
scalar OsgEarthNet.uav[22] utilizationCountManeuversMission 5739
scalar OsgEarthNet.uav[22] utilizationCountManeuversMaintenance 622
scalar OsgEarthNet.uav[22] utilizationCountChargeState 311
scalar OsgEarthNet.uav[22] utilizationCountOverdrawnAfterMission 0
scalar OsgEarthNet.uav[22] utilizationCountIdleState 20
scalar OsgEarthNet.uav[22] utilizationFail 0
scalar OsgEarthNet.uav[22] simulationTime 1209600
scalar OsgEarthNet.uav[23] utilizationSecMission 182723.66108279
scalar OsgEarthNet.uav[23] utilizationSecMaintenance 104454.33791721
scalar OsgEarthNet.uav[23] utilizationSecCharge 920910
scalar OsgEarthNet.uav[23] utilizationSecIdle 1512
scalar OsgEarthNet.uav[23] utilizationEnergyMission 894309.38409855
scalar OsgEarthNet.uav[23] utilizationEnergyMaintenance 493340.81451797
scalar OsgEarthNet.uav[23] utilizationEnergyCharge 1378127.7937012
scalar OsgEarthNet.uav[23] utilizationEnergyOverdrawMission 0
scalar OsgEarthNet.uav[23] utilizationEnergyOverdrawMaintenance 0
scalar OsgEarthNet.uav[23] utilizationCountMissions 319
scalar OsgEarthNet.uav[23] utilizationCountManeuversMission 5945
scalar OsgEarthNet.uav[23] utilizationCountManeuversMaintenance 639
scalar OsgEarthNet.uav[23] utilizationCountChargeState 319
scalar OsgEarthNet.uav[23] utilizationCountOverdrawnAfterMission 0
scalar OsgEarthNet.uav[23] utilizationCountIdleState 16
scalar OsgEarthNet.uav[23] utilizationFail 0
scalar OsgEarthNet.uav[23] simulationTime 1209600
scalar OsgEarthNet.uav[24] utilizationSecMission 172545.40910207
scalar OsgEarthNet.uav[24] utilizationSecMaintenance 103065.00170862
scalar OsgEarthNet.uav[24] utilizationSecCharge 930217.58418931
scalar OsgEarthNet.uav[24] utilizationSecIdle 3772.004
scalar OsgEarthNet.uav[24] utilizationEnergyMission 829400.47747421
scalar OsgEarthNet.uav[24] utilizationEnergyMaintenance 488056.66620255
scalar OsgEarthNet.uav[24] utilizationEnergyCharge 1318650.4386597
scalar OsgEarthNet.uav[24] utilizationEnergyOverdrawMission 0
scalar OsgEarthNet.uav[24] utilizationEnergyOverdrawMaintenance 0
scalar OsgEarthNet.uav[24] utilizationCountMissions 323
scalar OsgEarthNet.uav[24] utilizationCountManeuversMission 5131
scalar OsgEarthNet.uav[24] utilizationCountManeuversMaintenance 646
scalar OsgEarthNet.uav[24] utilizationCountChargeState 323
scalar OsgEarthNet.uav[24] utilizationCountOverdrawnAfterMission 0
scalar OsgEarthNet.uav[24] utilizationCountIdleState 17
scalar OsgEarthNet.uav[24] utilizationFail 0
scalar OsgEarthNet.uav[24] simulationTime 1209600
scalar OsgEarthNet.uav[25] utilizationSecMission 192782.52859362
scalar OsgEarthNet.uav[25] utilizationSecMaintenance 96499.736206468
scalar OsgEarthNet.uav[25] utilizationSecCharge 919195.73419991
scalar OsgEarthNet.uav[25] utilizationSecIdle 1122
scalar OsgEarthNet.uav[25] utilizationEnergyMission 934354.58139038
scalar OsgEarthNet.uav[25] utilizationEnergyMaintenance 450907.00734711
scalar OsgEarthNet.uav[25] utilizationEnergyCharge 1376978.3486328
scalar OsgEarthNet.uav[25] utilizationEnergyOverdrawMission 0
scalar OsgEarthNet.uav[25] utilizationEnergyOverdrawMaintenance 0
scalar OsgEarthNet.uav[25] utilizationCountMissions 314
scalar OsgEarthNet.uav[25] utilizationCountManeuversMission 5948
scalar OsgEarthNet.uav[25] utilizationCountManeuversMaintenance 628
scalar OsgEarthNet.uav[25] utilizationCountChargeState 314
scalar OsgEarthNet.uav[25] utilizationCountOverdrawnAfterMission 0
scalar OsgEarthNet.uav[25] utilizationCountIdleState 18
scalar OsgEarthNet.uav[25] utilizationFail 0
scalar OsgEarthNet.uav[25] simulationTime 1209600
scalar OsgEarthNet.uav[26] utilizationSecMission 171625.2335286
scalar OsgEarthNet.uav[26] utilizationSecMaintenance 103821.54338236
scalar OsgEarthNet.uav[26] utilizationSecCharge 929931.21808905
scalar OsgEarthNet.uav[26] utilizationSecIdle 4222.004
scalar OsgEarthNet.uav[26] utilizationEnergyMission 828617.78492737
scalar OsgEarthNet.uav[26] utilizationEnergyMaintenance 495098.47143936
scalar OsgEarthNet.uav[26] utilizationEnergyCharge 1318963.5703125
scalar OsgEarthNet.uav[26] utilizationEnergyOverdrawMission 0
scalar OsgEarthNet.uav[26] utilizationEnergyOverdrawMaintenance 0
scalar OsgEarthNet.uav[26] utilizationCountMissions 322
scalar OsgEarthNet.uav[26] utilizationCountManeuversMission 5026
scalar OsgEarthNet.uav[26] utilizationCountManeuversMaintenance 644
scalar OsgEarthNet.uav[26] utilizationCountChargeState 322
scalar OsgEarthNet.uav[26] utilizationCountOverdrawnAfterMission 0
scalar OsgEarthNet.uav[26] utilizationCountIdleState 30
scalar OsgEarthNet.uav[26] utilizationFail 0
scalar OsgEarthNet.uav[26] simulationTime 1209600
scalar OsgEarthNet.uav[27] utilizationSecMission 179506.78828984
scalar OsgEarthNet.uav[27] utilizationSecMaintenance 96435.489693969
scalar OsgEarthNet.uav[27] utilizationSecCharge 930407.92079758
scalar OsgEarthNet.uav[27] utilizationSecIdle 3249.8002186065
scalar OsgEarthNet.uav[27] utilizationEnergyMission 868038.52135468
scalar OsgEarthNet.uav[27] utilizationEnergyMaintenance 455159.38427734
scalar OsgEarthNet.uav[27] utilizationEnergyCharge 1325634.5356445
scalar OsgEarthNet.uav[27] utilizationEnergyOverdrawMission 0
scalar OsgEarthNet.uav[27] utilizationEnergyOverdrawMaintenance 0
scalar OsgEarthNet.uav[27] utilizationCountMissions 315
scalar OsgEarthNet.uav[27] utilizationCountManeuversMission 5615
scalar OsgEarthNet.uav[27] utilizationCountManeuversMaintenance 630
scalar OsgEarthNet.uav[27] utilizationCountChargeState 315
scalar OsgEarthNet.uav[27] utilizationCountOverdrawnAfterMission 0
scalar OsgEarthNet.uav[27] utilizationCountIdleState 19
scalar OsgEarthNet.uav[27] utilizationFail 0
scalar OsgEarthNet.uav[27] simulationTime 1209600
scalar OsgEarthNet.uav[28] utilizationSecMission 182053.87171949
scalar OsgEarthNet.uav[28] utilizationSecMaintenance 107884.80767944
scalar OsgEarthNet.uav[28] utilizationSecCharge 918139.31860107
scalar OsgEarthNet.uav[28] utilizationSecIdle 1522.001
scalar OsgEarthNet.uav[28] utilizationEnergyMission 890310.66526031
scalar OsgEarthNet.uav[28] utilizationEnergyMaintenance 510585.61567307
scalar OsgEarthNet.uav[28] utilizationEnergyCharge 1394327.1463623
scalar OsgEarthNet.uav[28] utilizationEnergyOverdrawMission 0
scalar OsgEarthNet.uav[28] utilizationEnergyOverdrawMaintenance 0
scalar OsgEarthNet.uav[28] utilizationCountMissions 321
scalar OsgEarthNet.uav[28] utilizationCountManeuversMission 6186
scalar OsgEarthNet.uav[28] utilizationCountManeuversMaintenance 642
scalar OsgEarthNet.uav[28] utilizationCountChargeState 321
scalar OsgEarthNet.uav[28] utilizationCountOverdrawnAfterMission 0
scalar OsgEarthNet.uav[28] utilizationCountIdleState 9
scalar OsgEarthNet.uav[28] utilizationFail 0
scalar OsgEarthNet.uav[28] simulationTime 1209600
scalar OsgEarthNet.uav[29] utilizationSecMission 194634.42406654
scalar OsgEarthNet.uav[29] utilizationSecMaintenance 98371.379998665
scalar OsgEarthNet.uav[29] utilizationSecCharge 913106.88030167
scalar OsgEarthNet.uav[29] utilizationSecIdle 3487.3146331283
scalar OsgEarthNet.uav[29] utilizationEnergyMission 935629.48157501
scalar OsgEarthNet.uav[29] utilizationEnergyMaintenance 464346.59253693
scalar OsgEarthNet.uav[29] utilizationEnergyCharge 1398637.6174316
scalar OsgEarthNet.uav[29] utilizationEnergyOverdrawMission 0
scalar OsgEarthNet.uav[29] utilizationEnergyOverdrawMaintenance 0
scalar OsgEarthNet.uav[29] utilizationCountMissions 316
scalar OsgEarthNet.uav[29] utilizationCountManeuversMission 5863
scalar OsgEarthNet.uav[29] utilizationCountManeuversMaintenance 632
scalar OsgEarthNet.uav[29] utilizationCountChargeState 316
scalar OsgEarthNet.uav[29] utilizationCountOverdrawnAfterMission 0
scalar OsgEarthNet.uav[29] utilizationCountIdleState 10
scalar OsgEarthNet.uav[29] utilizationFail 0
scalar OsgEarthNet.uav[29] simulationTime 1209600
scalar OsgEarthNet.uav[30] utilizationSecMission 208634.08138131
scalar OsgEarthNet.uav[30] utilizationSecMaintenance 82497.063058568
scalar OsgEarthNet.uav[30] utilizationSecCharge 914617.90430445
scalar OsgEarthNet.uav[30] utilizationSecIdle 3850.9502556647
scalar OsgEarthNet.uav[30] utilizationEnergyMission 1009800.9985313
scalar OsgEarthNet.uav[30] utilizationEnergyMaintenance 380870.955616
scalar OsgEarthNet.uav[30] utilizationEnergyCharge 1390244.3069458
scalar OsgEarthNet.uav[30] utilizationEnergyOverdrawMission 0
scalar OsgEarthNet.uav[30] utilizationEnergyOverdrawMaintenance 0
scalar OsgEarthNet.uav[30] utilizationCountMissions 307
scalar OsgEarthNet.uav[30] utilizationCountManeuversMission 6437
scalar OsgEarthNet.uav[30] utilizationCountManeuversMaintenance 614
scalar OsgEarthNet.uav[30] utilizationCountChargeState 307
scalar OsgEarthNet.uav[30] utilizationCountOverdrawnAfterMission 0
scalar OsgEarthNet.uav[30] utilizationCountIdleState 5
scalar OsgEarthNet.uav[30] utilizationFail 0
scalar OsgEarthNet.uav[30] simulationTime 1209600
scalar OsgEarthNet.uav[31] utilizationSecMission 189572.18910148
scalar OsgEarthNet.uav[31] utilizationSecMaintenance 94882.367809831
scalar OsgEarthNet.uav[31] utilizationSecCharge 921830
scalar OsgEarthNet.uav[31] utilizationSecIdle 3315.4420886909
scalar OsgEarthNet.uav[31] utilizationEnergyMission 917831.65685988
scalar OsgEarthNet.uav[31] utilizationEnergyMaintenance 445832.69665146
scalar OsgEarthNet.uav[31] utilizationEnergyCharge 1358676.2214355
scalar OsgEarthNet.uav[31] utilizationEnergyOverdrawMission 0
scalar OsgEarthNet.uav[31] utilizationEnergyOverdrawMaintenance 0
scalar OsgEarthNet.uav[31] utilizationCountMissions 311
scalar OsgEarthNet.uav[31] utilizationCountManeuversMission 5805
scalar OsgEarthNet.uav[31] utilizationCountManeuversMaintenance 623
scalar OsgEarthNet.uav[31] utilizationCountChargeState 311
scalar OsgEarthNet.uav[31] utilizationCountOverdrawnAfterMission 0
scalar OsgEarthNet.uav[31] utilizationCountIdleState 21
scalar OsgEarthNet.uav[31] utilizationFail 0
scalar OsgEarthNet.uav[31] simulationTime 1209600
scalar OsgEarthNet.uav[32] utilizationSecMission 198081.29532165
scalar OsgEarthNet.uav[32] utilizationSecMaintenance 96414.374333201
scalar OsgEarthNet.uav[32] utilizationSecCharge 914802.32934515
scalar OsgEarthNet.uav[32] utilizationSecIdle 302
scalar OsgEarthNet.uav[32] utilizationEnergyMission 964953.79372079
scalar OsgEarthNet.uav[32] utilizationEnergyMaintenance 449269.77244949
scalar OsgEarthNet.uav[32] utilizationEnergyCharge 1410130.0692139
scalar OsgEarthNet.uav[32] utilizationEnergyOverdrawMission 0
scalar OsgEarthNet.uav[32] utilizationEnergyOverdrawMaintenance 0
scalar OsgEarthNet.uav[32] utilizationCountMissions 316
scalar OsgEarthNet.uav[32] utilizationCountManeuversMission 6421
scalar OsgEarthNet.uav[32] utilizationCountManeuversMaintenance 631
scalar OsgEarthNet.uav[32] utilizationCountChargeState 316
scalar OsgEarthNet.uav[32] utilizationCountOverdrawnAfterMission 0
scalar OsgEarthNet.uav[32] utilizationCountIdleState 4
scalar OsgEarthNet.uav[32] utilizationFail 0
scalar OsgEarthNet.uav[32] simulationTime 1209600
scalar OsgEarthNet.uav[33] utilizationSecMission 192754.54759639
scalar OsgEarthNet.uav[33] utilizationSecMaintenance 98403.407453614
scalar OsgEarthNet.uav[33] utilizationSecCharge 916830.04194999
scalar OsgEarthNet.uav[33] utilizationSecIdle 1612.002
scalar OsgEarthNet.uav[33] utilizationEnergyMission 943363.9588089
scalar OsgEarthNet.uav[33] utilizationEnergyMaintenance 458118.32546234
scalar OsgEarthNet.uav[33] utilizationEnergyCharge 1399621.8569336
scalar OsgEarthNet.uav[33] utilizationEnergyOverdrawMission 0
scalar OsgEarthNet.uav[33] utilizationEnergyOverdrawMaintenance 0
scalar OsgEarthNet.uav[33] utilizationCountMissions 314
scalar OsgEarthNet.uav[33] utilizationCountManeuversMission 6560
scalar OsgEarthNet.uav[33] utilizationCountManeuversMaintenance 628
scalar OsgEarthNet.uav[33] utilizationCountChargeState 314
scalar OsgEarthNet.uav[33] utilizationCountOverdrawnAfterMission 0
scalar OsgEarthNet.uav[33] utilizationCountIdleState 9
scalar OsgEarthNet.uav[33] utilizationFail 0
scalar OsgEarthNet.uav[33] simulationTime 1209600
scalar OsgEarthNet.uav[34] utilizationSecMission 177692.37553251
scalar OsgEarthNet.uav[34] utilizationSecMaintenance 98001.628097271
scalar OsgEarthNet.uav[34] utilizationSecCharge 930327.99551969
scalar OsgEarthNet.uav[34] utilizationSecIdle 3577.9998505245
scalar OsgEarthNet.uav[34] utilizationEnergyMission 861452.97958755
scalar OsgEarthNet.uav[34] utilizationEnergyMaintenance 463442.95183563
scalar OsgEarthNet.uav[34] utilizationEnergyCharge 1325993.1491699
scalar OsgEarthNet.uav[34] utilizationEnergyOverdrawMission 0
scalar OsgEarthNet.uav[34] utilizationEnergyOverdrawMaintenance 0
scalar OsgEarthNet.uav[34] utilizationCountMissions 316
scalar OsgEarthNet.uav[34] utilizationCountManeuversMission 5482
scalar OsgEarthNet.uav[34] utilizationCountManeuversMaintenance 632
scalar OsgEarthNet.uav[34] utilizationCountChargeState 316
scalar OsgEarthNet.uav[34] utilizationCountOverdrawnAfterMission 0
scalar OsgEarthNet.uav[34] utilizationCountIdleState 23
scalar OsgEarthNet.uav[34] utilizationFail 0
scalar OsgEarthNet.uav[34] simulationTime 1209600
scalar OsgEarthNet.uav[35] utilizationSecMission 187970.67949835
scalar OsgEarthNet.uav[35] utilizationSecMaintenance 99671.476346509
scalar OsgEarthNet.uav[35] utilizationSecCharge 920143.34521397
scalar OsgEarthNet.uav[35] utilizationSecIdle 1814.4979411756
scalar OsgEarthNet.uav[35] utilizationEnergyMission 912474.51760483
scalar OsgEarthNet.uav[35] utilizationEnergyMaintenance 467582.08150101
scalar OsgEarthNet.uav[35] utilizationEnergyCharge 1378889.4821777
scalar OsgEarthNet.uav[35] utilizationEnergyOverdrawMission 0
scalar OsgEarthNet.uav[35] utilizationEnergyOverdrawMaintenance 0
scalar OsgEarthNet.uav[35] utilizationCountMissions 316
scalar OsgEarthNet.uav[35] utilizationCountManeuversMission 5850
scalar OsgEarthNet.uav[35] utilizationCountManeuversMaintenance 632
scalar OsgEarthNet.uav[35] utilizationCountChargeState 316
scalar OsgEarthNet.uav[35] utilizationCountOverdrawnAfterMission 0
scalar OsgEarthNet.uav[35] utilizationCountIdleState 17
scalar OsgEarthNet.uav[35] utilizationFail 0
scalar OsgEarthNet.uav[35] simulationTime 1209600
scalar OsgEarthNet.uav[36] utilizationSecMission 193566.37878568
scalar OsgEarthNet.uav[36] utilizationSecMaintenance 93962.132816386
scalar OsgEarthNet.uav[36] utilizationSecCharge 918620.53914227
scalar OsgEarthNet.uav[36] utilizationSecIdle 3450.9482556647
scalar OsgEarthNet.uav[36] utilizationEnergyMission 953459.59820175
scalar OsgEarthNet.uav[36] utilizationEnergyMaintenance 436306.48477936
scalar OsgEarthNet.uav[36] utilizationEnergyCharge 1383023.5133057
scalar OsgEarthNet.uav[36] utilizationEnergyOverdrawMission 0
scalar OsgEarthNet.uav[36] utilizationEnergyOverdrawMaintenance 0
scalar OsgEarthNet.uav[36] utilizationCountMissions 313
scalar OsgEarthNet.uav[36] utilizationCountManeuversMission 6596
scalar OsgEarthNet.uav[36] utilizationCountManeuversMaintenance 626
scalar OsgEarthNet.uav[36] utilizationCountChargeState 313
scalar OsgEarthNet.uav[36] utilizationCountOverdrawnAfterMission 0
scalar OsgEarthNet.uav[36] utilizationCountIdleState 10
scalar OsgEarthNet.uav[36] utilizationFail 0
scalar OsgEarthNet.uav[36] simulationTime 1209600
scalar OsgEarthNet.uav[37] utilizationSecMission 193669.90578492
scalar OsgEarthNet.uav[37] utilizationSecMaintenance 91528.432997609
scalar OsgEarthNet.uav[37] utilizationSecCharge 923619.66021747
scalar OsgEarthNet.uav[37] utilizationSecIdle 782
scalar OsgEarthNet.uav[37] utilizationEnergyMission 936633.42867661
scalar OsgEarthNet.uav[37] utilizationEnergyMaintenance 428504.42158127
scalar OsgEarthNet.uav[37] utilizationEnergyCharge 1360393.8164062
scalar OsgEarthNet.uav[37] utilizationEnergyOverdrawMission 0
scalar OsgEarthNet.uav[37] utilizationEnergyOverdrawMaintenance 0
scalar OsgEarthNet.uav[37] utilizationCountMissions 316
scalar OsgEarthNet.uav[37] utilizationCountManeuversMission 5772
scalar OsgEarthNet.uav[37] utilizationCountManeuversMaintenance 631
scalar OsgEarthNet.uav[37] utilizationCountChargeState 316
scalar OsgEarthNet.uav[37] utilizationCountOverdrawnAfterMission 0
scalar OsgEarthNet.uav[37] utilizationCountIdleState 10
scalar OsgEarthNet.uav[37] utilizationFail 0
scalar OsgEarthNet.uav[37] simulationTime 1209600
scalar OsgEarthNet.uav[38] utilizationSecMission 193871.67937772
scalar OsgEarthNet.uav[38] utilizationSecMaintenance 100307.18080878
scalar OsgEarthNet.uav[38] utilizationSecCharge 913759.68585478
scalar OsgEarthNet.uav[38] utilizationSecIdle 1661.4529587171
scalar OsgEarthNet.uav[38] utilizationEnergyMission 941476.5032692
scalar OsgEarthNet.uav[38] utilizationEnergyMaintenance 470789.15900803
scalar OsgEarthNet.uav[38] utilizationEnergyCharge 1410717.3327637
scalar OsgEarthNet.uav[38] utilizationEnergyOverdrawMission 0
scalar OsgEarthNet.uav[38] utilizationEnergyOverdrawMaintenance 0
scalar OsgEarthNet.uav[38] utilizationCountMissions 318
scalar OsgEarthNet.uav[38] utilizationCountManeuversMission 6181
scalar OsgEarthNet.uav[38] utilizationCountManeuversMaintenance 636
scalar OsgEarthNet.uav[38] utilizationCountChargeState 318
scalar OsgEarthNet.uav[38] utilizationCountOverdrawnAfterMission 0
scalar OsgEarthNet.uav[38] utilizationCountIdleState 5
scalar OsgEarthNet.uav[38] utilizationFail 0
scalar OsgEarthNet.uav[38] simulationTime 1209600
scalar OsgEarthNet.uav[39] utilizationSecMission 172210.57472083
scalar OsgEarthNet.uav[39] utilizationSecMaintenance 98762.169896377
scalar OsgEarthNet.uav[39] utilizationSecCharge 933398.67372592
scalar OsgEarthNet.uav[39] utilizationSecIdle 5228.5806568717
scalar OsgEarthNet.uav[39] utilizationEnergyMission 825362.55197906
scalar OsgEarthNet.uav[39] utilizationEnergyMaintenance 468486.74882126
scalar OsgEarthNet.uav[39] utilizationEnergyCharge 1292442.4368896
scalar OsgEarthNet.uav[39] utilizationEnergyOverdrawMission 0
scalar OsgEarthNet.uav[39] utilizationEnergyOverdrawMaintenance 0
scalar OsgEarthNet.uav[39] utilizationCountMissions 321
scalar OsgEarthNet.uav[39] utilizationCountManeuversMission 4789
scalar OsgEarthNet.uav[39] utilizationCountManeuversMaintenance 642
scalar OsgEarthNet.uav[39] utilizationCountChargeState 321
scalar OsgEarthNet.uav[39] utilizationCountOverdrawnAfterMission 0
scalar OsgEarthNet.uav[39] utilizationCountIdleState 36
scalar OsgEarthNet.uav[39] utilizationFail 0
scalar OsgEarthNet.uav[39] simulationTime 1209600
scalar OsgEarthNet.uav[40] utilizationSecMission 194442.11752749
scalar OsgEarthNet.uav[40] utilizationSecMaintenance 97650.801334935
scalar OsgEarthNet.uav[40] utilizationSecCharge 915256.13288191
scalar OsgEarthNet.uav[40] utilizationSecIdle 2250.9472556647
scalar OsgEarthNet.uav[40] utilizationEnergyMission 955398.7063179
scalar OsgEarthNet.uav[40] utilizationEnergyMaintenance 453353.81473923
scalar OsgEarthNet.uav[40] utilizationEnergyCharge 1408734.2106934
scalar OsgEarthNet.uav[40] utilizationEnergyOverdrawMission 0
scalar OsgEarthNet.uav[40] utilizationEnergyOverdrawMaintenance 0
scalar OsgEarthNet.uav[40] utilizationCountMissions 316
scalar OsgEarthNet.uav[40] utilizationCountManeuversMission 6925
scalar OsgEarthNet.uav[40] utilizationCountManeuversMaintenance 632
scalar OsgEarthNet.uav[40] utilizationCountChargeState 316
scalar OsgEarthNet.uav[40] utilizationCountOverdrawnAfterMission 0
scalar OsgEarthNet.uav[40] utilizationCountIdleState 8
scalar OsgEarthNet.uav[40] utilizationFail 0
scalar OsgEarthNet.uav[40] simulationTime 1209600
scalar OsgEarthNet.uav[41] utilizationSecMission 178480.14640834
scalar OsgEarthNet.uav[41] utilizationSecMaintenance 96366.380518106
scalar OsgEarthNet.uav[41] utilizationSecCharge 931512.50808788
scalar OsgEarthNet.uav[41] utilizationSecIdle 3240.9639856735
scalar OsgEarthNet.uav[41] utilizationEnergyMission 858050.36423111
scalar OsgEarthNet.uav[41] utilizationEnergyMaintenance 454430.39705658
scalar OsgEarthNet.uav[41] utilizationEnergyCharge 1311450.2236328
scalar OsgEarthNet.uav[41] utilizationEnergyOverdrawMission 0
scalar OsgEarthNet.uav[41] utilizationEnergyOverdrawMaintenance 0
scalar OsgEarthNet.uav[41] utilizationCountMissions 319
scalar OsgEarthNet.uav[41] utilizationCountManeuversMission 5326
scalar OsgEarthNet.uav[41] utilizationCountManeuversMaintenance 638
scalar OsgEarthNet.uav[41] utilizationCountChargeState 319
scalar OsgEarthNet.uav[41] utilizationCountOverdrawnAfterMission 0
scalar OsgEarthNet.uav[41] utilizationCountIdleState 24
scalar OsgEarthNet.uav[41] utilizationFail 0
scalar OsgEarthNet.uav[41] simulationTime 1209600
scalar OsgEarthNet.uav[42] utilizationSecMission 178989.54503304
scalar OsgEarthNet.uav[42] utilizationSecMaintenance 101729.26013184
scalar OsgEarthNet.uav[42] utilizationSecCharge 925869.19283512
scalar OsgEarthNet.uav[42] utilizationSecIdle 3012.001
scalar OsgEarthNet.uav[42] utilizationEnergyMission 860199.74884796
scalar OsgEarthNet.uav[42] utilizationEnergyMaintenance 481159.699543
scalar OsgEarthNet.uav[42] utilizationEnergyCharge 1342740.9831543
scalar OsgEarthNet.uav[42] utilizationEnergyOverdrawMission 0
scalar OsgEarthNet.uav[42] utilizationEnergyOverdrawMaintenance 0
scalar OsgEarthNet.uav[42] utilizationCountMissions 319
scalar OsgEarthNet.uav[42] utilizationCountManeuversMission 5384
scalar OsgEarthNet.uav[42] utilizationCountManeuversMaintenance 638
scalar OsgEarthNet.uav[42] utilizationCountChargeState 319
scalar OsgEarthNet.uav[42] utilizationCountOverdrawnAfterMission 0
scalar OsgEarthNet.uav[42] utilizationCountIdleState 23
scalar OsgEarthNet.uav[42] utilizationFail 0
scalar OsgEarthNet.uav[42] simulationTime 1209600
scalar OsgEarthNet.uav[43] utilizationSecMission 169667.38617663
scalar OsgEarthNet.uav[43] utilizationSecMaintenance 106480.91326673
scalar OsgEarthNet.uav[43] utilizationSecCharge 929479.69455664
scalar OsgEarthNet.uav[43] utilizationSecIdle 3972.005
scalar OsgEarthNet.uav[43] utilizationEnergyMission 822090.17772675
scalar OsgEarthNet.uav[43] utilizationEnergyMaintenance 504678.00632858
scalar OsgEarthNet.uav[43] utilizationEnergyCharge 1324634.4458008
scalar OsgEarthNet.uav[43] utilizationEnergyOverdrawMission 0
scalar OsgEarthNet.uav[43] utilizationEnergyOverdrawMaintenance 0
scalar OsgEarthNet.uav[43] utilizationCountMissions 321
scalar OsgEarthNet.uav[43] utilizationCountManeuversMission 5287
scalar OsgEarthNet.uav[43] utilizationCountManeuversMaintenance 642
scalar OsgEarthNet.uav[43] utilizationCountChargeState 321
scalar OsgEarthNet.uav[43] utilizationCountOverdrawnAfterMission 0
scalar OsgEarthNet.uav[43] utilizationCountIdleState 18
scalar OsgEarthNet.uav[43] utilizationFail 0
scalar OsgEarthNet.uav[43] simulationTime 1209600
scalar OsgEarthNet.uav[44] utilizationSecMission 189821.32357137
scalar OsgEarthNet.uav[44] utilizationSecMaintenance 98686.675428627
scalar OsgEarthNet.uav[44] utilizationSecCharge 920050
scalar OsgEarthNet.uav[44] utilizationSecIdle 1042
scalar OsgEarthNet.uav[44] utilizationEnergyMission 922813.5920372
scalar OsgEarthNet.uav[44] utilizationEnergyMaintenance 459508.75356887
scalar OsgEarthNet.uav[44] utilizationEnergyCharge 1378537.121582
scalar OsgEarthNet.uav[44] utilizationEnergyOverdrawMission 0
scalar OsgEarthNet.uav[44] utilizationEnergyOverdrawMaintenance 0
scalar OsgEarthNet.uav[44] utilizationCountMissions 316
scalar OsgEarthNet.uav[44] utilizationCountManeuversMission 6219
scalar OsgEarthNet.uav[44] utilizationCountManeuversMaintenance 633
scalar OsgEarthNet.uav[44] utilizationCountChargeState 316
scalar OsgEarthNet.uav[44] utilizationCountOverdrawnAfterMission 0
scalar OsgEarthNet.uav[44] utilizationCountIdleState 10
scalar OsgEarthNet.uav[44] utilizationFail 0
scalar OsgEarthNet.uav[44] simulationTime 1209600
scalar OsgEarthNet.uav[45] utilizationSecMission 180579.27321102
scalar OsgEarthNet.uav[45] utilizationSecMaintenance 111001.75707334
scalar OsgEarthNet.uav[45] utilizationSecCharge 915960
scalar OsgEarthNet.uav[45] utilizationSecIdle 2058.9687156399
scalar OsgEarthNet.uav[45] utilizationEnergyMission 875527.6926506
scalar OsgEarthNet.uav[45] utilizationEnergyMaintenance 523270.72351456
scalar OsgEarthNet.uav[45] utilizationEnergyCharge 1396211.5341797
scalar OsgEarthNet.uav[45] utilizationEnergyOverdrawMission 0
scalar OsgEarthNet.uav[45] utilizationEnergyOverdrawMaintenance 0
scalar OsgEarthNet.uav[45] utilizationCountMissions 320
scalar OsgEarthNet.uav[45] utilizationCountManeuversMission 5836
scalar OsgEarthNet.uav[45] utilizationCountManeuversMaintenance 641
scalar OsgEarthNet.uav[45] utilizationCountChargeState 320
scalar OsgEarthNet.uav[45] utilizationCountOverdrawnAfterMission 0
scalar OsgEarthNet.uav[45] utilizationCountIdleState 11
scalar OsgEarthNet.uav[45] utilizationFail 0
scalar OsgEarthNet.uav[45] simulationTime 1209600
scalar OsgEarthNet.uav[46] utilizationSecMission 167981.20022816
scalar OsgEarthNet.uav[46] utilizationSecMaintenance 101491.10074808
scalar OsgEarthNet.uav[46] utilizationSecCharge 936475.69502376
scalar OsgEarthNet.uav[46] utilizationSecIdle 3652.003
scalar OsgEarthNet.uav[46] utilizationEnergyMission 814197.39552307
scalar OsgEarthNet.uav[46] utilizationEnergyMaintenance 482027.66579819
scalar OsgEarthNet.uav[46] utilizationEnergyCharge 1293721.0466309
scalar OsgEarthNet.uav[46] utilizationEnergyOverdrawMission 0
scalar OsgEarthNet.uav[46] utilizationEnergyOverdrawMaintenance 0
scalar OsgEarthNet.uav[46] utilizationCountMissions 325
scalar OsgEarthNet.uav[46] utilizationCountManeuversMission 4883
scalar OsgEarthNet.uav[46] utilizationCountManeuversMaintenance 650
scalar OsgEarthNet.uav[46] utilizationCountChargeState 325
scalar OsgEarthNet.uav[46] utilizationCountOverdrawnAfterMission 0
scalar OsgEarthNet.uav[46] utilizationCountIdleState 29
scalar OsgEarthNet.uav[46] utilizationFail 0
scalar OsgEarthNet.uav[46] simulationTime 1209600
scalar OsgEarthNet.uav[47] utilizationSecMission 177066.7847461
scalar OsgEarthNet.uav[47] utilizationSecMaintenance 96258.602364382
scalar OsgEarthNet.uav[47] utilizationSecCharge 933580
scalar OsgEarthNet.uav[47] utilizationSecIdle 2694.6118895164
scalar OsgEarthNet.uav[47] utilizationEnergyMission 849038.72340732
scalar OsgEarthNet.uav[47] utilizationEnergyMaintenance 455591.364151
scalar OsgEarthNet.uav[47] utilizationEnergyCharge 1300101.9387207
scalar OsgEarthNet.uav[47] utilizationEnergyOverdrawMission 0
scalar OsgEarthNet.uav[47] utilizationEnergyOverdrawMaintenance 0
scalar OsgEarthNet.uav[47] utilizationCountMissions 318
scalar OsgEarthNet.uav[47] utilizationCountManeuversMission 4967
scalar OsgEarthNet.uav[47] utilizationCountManeuversMaintenance 637
scalar OsgEarthNet.uav[47] utilizationCountChargeState 318
scalar OsgEarthNet.uav[47] utilizationCountOverdrawnAfterMission 0
scalar OsgEarthNet.uav[47] utilizationCountIdleState 35
scalar OsgEarthNet.uav[47] utilizationFail 0
scalar OsgEarthNet.uav[47] simulationTime 1209600
scalar OsgEarthNet.uav[48] utilizationSecMission 193412.56813205
scalar OsgEarthNet.uav[48] utilizationSecMaintenance 90832.885785313
scalar OsgEarthNet.uav[48] utilizationSecCharge 923865.32546872
scalar OsgEarthNet.uav[48] utilizationSecIdle 1489.2196139157
scalar OsgEarthNet.uav[48] utilizationEnergyMission 939169.86917877
scalar OsgEarthNet.uav[48] utilizationEnergyMaintenance 426055.78843689
scalar OsgEarthNet.uav[48] utilizationEnergyCharge 1358174.6157227
scalar OsgEarthNet.uav[48] utilizationEnergyOverdrawMission 0
scalar OsgEarthNet.uav[48] utilizationEnergyOverdrawMaintenance 0
scalar OsgEarthNet.uav[48] utilizationCountMissions 315
scalar OsgEarthNet.uav[48] utilizationCountManeuversMission 5864
scalar OsgEarthNet.uav[48] utilizationCountManeuversMaintenance 630
scalar OsgEarthNet.uav[48] utilizationCountChargeState 315
scalar OsgEarthNet.uav[48] utilizationCountOverdrawnAfterMission 0
scalar OsgEarthNet.uav[48] utilizationCountIdleState 12
scalar OsgEarthNet.uav[48] utilizationFail 0
scalar OsgEarthNet.uav[48] simulationTime 1209600
scalar OsgEarthNet.uav[49] utilizationSecMission 179952.83701607
scalar OsgEarthNet.uav[49] utilizationSecMaintenance 94804.986195344
scalar OsgEarthNet.uav[49] utilizationSecCharge 932420.17478859
scalar OsgEarthNet.uav[49] utilizationSecIdle 2422.001
scalar OsgEarthNet.uav[49] utilizationEnergyMission 862769.91704178
scalar OsgEarthNet.uav[49] utilizationEnergyMaintenance 449271.3225174
scalar OsgEarthNet.uav[49] utilizationEnergyCharge 1307389.5373535
scalar OsgEarthNet.uav[49] utilizationEnergyOverdrawMission 0
scalar OsgEarthNet.uav[49] utilizationEnergyOverdrawMaintenance 0
scalar OsgEarthNet.uav[49] utilizationCountMissions 317
scalar OsgEarthNet.uav[49] utilizationCountManeuversMission 4988
scalar OsgEarthNet.uav[49] utilizationCountManeuversMaintenance 634
scalar OsgEarthNet.uav[49] utilizationCountChargeState 317
scalar OsgEarthNet.uav[49] utilizationCountOverdrawnAfterMission 0
scalar OsgEarthNet.uav[49] utilizationCountIdleState 32
scalar OsgEarthNet.uav[49] utilizationFail 0
scalar OsgEarthNet.uav[49] simulationTime 1209600
scalar OsgEarthNet.uav[50] utilizationSecMission 182405.48011935
scalar OsgEarthNet.uav[50] utilizationSecMaintenance 103358.74626658
scalar OsgEarthNet.uav[50] utilizationSecCharge 919374.82335841
scalar OsgEarthNet.uav[50] utilizationSecIdle 4460.9492556647
scalar OsgEarthNet.uav[50] utilizationEnergyMission 887691.38288116
scalar OsgEarthNet.uav[50] utilizationEnergyMaintenance 485257.67165375
scalar OsgEarthNet.uav[50] utilizationEnergyCharge 1365691.7687988
scalar OsgEarthNet.uav[50] utilizationEnergyOverdrawMission 0
scalar OsgEarthNet.uav[50] utilizationEnergyOverdrawMaintenance 0
scalar OsgEarthNet.uav[50] utilizationCountMissions 320
scalar OsgEarthNet.uav[50] utilizationCountManeuversMission 5689
scalar OsgEarthNet.uav[50] utilizationCountManeuversMaintenance 640
scalar OsgEarthNet.uav[50] utilizationCountChargeState 320
scalar OsgEarthNet.uav[50] utilizationCountOverdrawnAfterMission 0
scalar OsgEarthNet.uav[50] utilizationCountIdleState 19
scalar OsgEarthNet.uav[50] utilizationFail 0
scalar OsgEarthNet.uav[50] simulationTime 1209600
scalar OsgEarthNet.uav[51] utilizationSecMission 192542.97758049
scalar OsgEarthNet.uav[51] utilizationSecMaintenance 97557.919562011
scalar OsgEarthNet.uav[51] utilizationSecCharge 917577.0988575
scalar OsgEarthNet.uav[51] utilizationSecIdle 1922.003
scalar OsgEarthNet.uav[51] utilizationEnergyMission 932079.56984329
scalar OsgEarthNet.uav[51] utilizationEnergyMaintenance 456879.98382187
scalar OsgEarthNet.uav[51] utilizationEnergyCharge 1386683.6322021
scalar OsgEarthNet.uav[51] utilizationEnergyOverdrawMission 0
scalar OsgEarthNet.uav[51] utilizationEnergyOverdrawMaintenance 0
scalar OsgEarthNet.uav[51] utilizationCountMissions 320
scalar OsgEarthNet.uav[51] utilizationCountManeuversMission 6146
scalar OsgEarthNet.uav[51] utilizationCountManeuversMaintenance 640
scalar OsgEarthNet.uav[51] utilizationCountChargeState 320
scalar OsgEarthNet.uav[51] utilizationCountOverdrawnAfterMission 0
scalar OsgEarthNet.uav[51] utilizationCountIdleState 7
scalar OsgEarthNet.uav[51] utilizationFail 0
scalar OsgEarthNet.uav[51] simulationTime 1209600
scalar OsgEarthNet.uav[52] utilizationSecMission 189230.44249181
scalar OsgEarthNet.uav[52] utilizationSecMaintenance 96102.797889067
scalar OsgEarthNet.uav[52] utilizationSecCharge 921630.4084005
scalar OsgEarthNet.uav[52] utilizationSecIdle 2636.3502186181
scalar OsgEarthNet.uav[52] utilizationEnergyMission 916050.98862839
scalar OsgEarthNet.uav[52] utilizationEnergyMaintenance 448847.79243469
scalar OsgEarthNet.uav[52] utilizationEnergyCharge 1369205.4914551
scalar OsgEarthNet.uav[52] utilizationEnergyOverdrawMission 0
scalar OsgEarthNet.uav[52] utilizationEnergyOverdrawMaintenance 0
scalar OsgEarthNet.uav[52] utilizationCountMissions 315
scalar OsgEarthNet.uav[52] utilizationCountManeuversMission 6070
scalar OsgEarthNet.uav[52] utilizationCountManeuversMaintenance 630
scalar OsgEarthNet.uav[52] utilizationCountChargeState 315
scalar OsgEarthNet.uav[52] utilizationCountOverdrawnAfterMission 0
scalar OsgEarthNet.uav[52] utilizationCountIdleState 17
scalar OsgEarthNet.uav[52] utilizationFail 0
scalar OsgEarthNet.uav[52] simulationTime 1209600
scalar OsgEarthNet.uav[53] utilizationSecMission 179470.9398523
scalar OsgEarthNet.uav[53] utilizationSecMaintenance 99132.755822421
scalar OsgEarthNet.uav[53] utilizationSecCharge 926618.91686005
scalar OsgEarthNet.uav[53] utilizationSecIdle 4377.3864652197
scalar OsgEarthNet.uav[53] utilizationEnergyMission 862362.2743187
scalar OsgEarthNet.uav[53] utilizationEnergyMaintenance 466631.89598846
scalar OsgEarthNet.uav[53] utilizationEnergyCharge 1328464.1103516
scalar OsgEarthNet.uav[53] utilizationEnergyOverdrawMission 0
scalar OsgEarthNet.uav[53] utilizationEnergyOverdrawMaintenance 0
scalar OsgEarthNet.uav[53] utilizationCountMissions 318
scalar OsgEarthNet.uav[53] utilizationCountManeuversMission 5319
scalar OsgEarthNet.uav[53] utilizationCountManeuversMaintenance 636
scalar OsgEarthNet.uav[53] utilizationCountChargeState 318
scalar OsgEarthNet.uav[53] utilizationCountOverdrawnAfterMission 0
scalar OsgEarthNet.uav[53] utilizationCountIdleState 27
scalar OsgEarthNet.uav[53] utilizationFail 0
scalar OsgEarthNet.uav[53] simulationTime 1209600
scalar OsgEarthNet.uav[54] utilizationSecMission 195513.97565241
scalar OsgEarthNet.uav[54] utilizationSecMaintenance 95374.021347587
scalar OsgEarthNet.uav[54] utilizationSecCharge 917260
scalar OsgEarthNet.uav[54] utilizationSecIdle 1452.002
scalar OsgEarthNet.uav[54] utilizationEnergyMission 954296.49899852
scalar OsgEarthNet.uav[54] utilizationEnergyMaintenance 444926.69449234
scalar OsgEarthNet.uav[54] utilizationEnergyCharge 1399907.2446289
scalar OsgEarthNet.uav[54] utilizationEnergyOverdrawMission 0
scalar OsgEarthNet.uav[54] utilizationEnergyOverdrawMaintenance 0
scalar OsgEarthNet.uav[54] utilizationCountMissions 315
scalar OsgEarthNet.uav[54] utilizationCountManeuversMission 6481
scalar OsgEarthNet.uav[54] utilizationCountManeuversMaintenance 631
scalar OsgEarthNet.uav[54] utilizationCountChargeState 315
scalar OsgEarthNet.uav[54] utilizationCountOverdrawnAfterMission 0
scalar OsgEarthNet.uav[54] utilizationCountIdleState 9
scalar OsgEarthNet.uav[54] utilizationFail 0
scalar OsgEarthNet.uav[54] simulationTime 1209600
scalar OsgEarthNet.uav[55] utilizationSecMission 203208.31598734
scalar OsgEarthNet.uav[55] utilizationSecMaintenance 90080.860938612
scalar OsgEarthNet.uav[55] utilizationSecCharge 915098.82007404
scalar OsgEarthNet.uav[55] utilizationSecIdle 1212.002
scalar OsgEarthNet.uav[55] utilizationEnergyMission 995334.47655487
scalar OsgEarthNet.uav[55] utilizationEnergyMaintenance 416074.04245758
scalar OsgEarthNet.uav[55] utilizationEnergyCharge 1407312.0998535
scalar OsgEarthNet.uav[55] utilizationEnergyOverdrawMission 0
scalar OsgEarthNet.uav[55] utilizationEnergyOverdrawMaintenance 0
scalar OsgEarthNet.uav[55] utilizationCountMissions 314
scalar OsgEarthNet.uav[55] utilizationCountManeuversMission 6798
scalar OsgEarthNet.uav[55] utilizationCountManeuversMaintenance 628
scalar OsgEarthNet.uav[55] utilizationCountChargeState 314
scalar OsgEarthNet.uav[55] utilizationCountOverdrawnAfterMission 0
scalar OsgEarthNet.uav[55] utilizationCountIdleState 5
scalar OsgEarthNet.uav[55] utilizationFail 0
scalar OsgEarthNet.uav[55] simulationTime 1209600
scalar OsgEarthNet.uav[56] utilizationSecMission 175318.08416061
scalar OsgEarthNet.uav[56] utilizationSecMaintenance 100617.22227284
scalar OsgEarthNet.uav[56] utilizationSecCharge 928641.29945513
scalar OsgEarthNet.uav[56] utilizationSecIdle 5023.3931114117
scalar OsgEarthNet.uav[56] utilizationEnergyMission 842982.08366394
scalar OsgEarthNet.uav[56] utilizationEnergyMaintenance 480190.8481102
scalar OsgEarthNet.uav[56] utilizationEnergyCharge 1322665.7949219
scalar OsgEarthNet.uav[56] utilizationEnergyOverdrawMission 0
scalar OsgEarthNet.uav[56] utilizationEnergyOverdrawMaintenance 0
scalar OsgEarthNet.uav[56] utilizationCountMissions 316
scalar OsgEarthNet.uav[56] utilizationCountManeuversMission 5069
scalar OsgEarthNet.uav[56] utilizationCountManeuversMaintenance 632
scalar OsgEarthNet.uav[56] utilizationCountChargeState 316
scalar OsgEarthNet.uav[56] utilizationCountOverdrawnAfterMission 0
scalar OsgEarthNet.uav[56] utilizationCountIdleState 27
scalar OsgEarthNet.uav[56] utilizationFail 0
scalar OsgEarthNet.uav[56] simulationTime 1209600
scalar OsgEarthNet.uav[57] utilizationSecMission 190315.88545091
scalar OsgEarthNet.uav[57] utilizationSecMaintenance 95917.463641172
scalar OsgEarthNet.uav[57] utilizationSecCharge 920069.33382608
scalar OsgEarthNet.uav[57] utilizationSecIdle 3297.3160818306
scalar OsgEarthNet.uav[57] utilizationEnergyMission 925744.34432983
scalar OsgEarthNet.uav[57] utilizationEnergyMaintenance 449761.99475479
scalar OsgEarthNet.uav[57] utilizationEnergyCharge 1370226.670166
scalar OsgEarthNet.uav[57] utilizationEnergyOverdrawMission 0
scalar OsgEarthNet.uav[57] utilizationEnergyOverdrawMaintenance 0
scalar OsgEarthNet.uav[57] utilizationCountMissions 314
scalar OsgEarthNet.uav[57] utilizationCountManeuversMission 5836
scalar OsgEarthNet.uav[57] utilizationCountManeuversMaintenance 628
scalar OsgEarthNet.uav[57] utilizationCountChargeState 314
scalar OsgEarthNet.uav[57] utilizationCountOverdrawnAfterMission 0
scalar OsgEarthNet.uav[57] utilizationCountIdleState 14
scalar OsgEarthNet.uav[57] utilizationFail 0
scalar OsgEarthNet.uav[57] simulationTime 1209600
scalar OsgEarthNet.cs[0] usedPower 19228880.370515
scalar OsgEarthNet.cs[0] chargedPower 19228880.370515
scalar OsgEarthNet.cs[0] chargedMobileNodes 138
scalar OsgEarthNet.cs[0] reservations 4408
scalar OsgEarthNet.cs[1] usedPower 27028640.048557
scalar OsgEarthNet.cs[1] chargedPower 27028640.048557
scalar OsgEarthNet.cs[1] chargedMobileNodes 700
scalar OsgEarthNet.cs[1] reservations 6678
scalar OsgEarthNet.cs[2] usedPower 32838244.613669
scalar OsgEarthNet.cs[2] chargedPower 32838244.613669
scalar OsgEarthNet.cs[2] chargedMobileNodes 85
scalar OsgEarthNet.cs[2] reservations 7296

