version 2
run Szenario_Hotel_Gabelbach-5-20180712-17:09:05-18676
attr configname Szenario_Hotel_Gabelbach
attr datetime 20180712-17:09:05
attr experiment Szenario_Hotel_Gabelbach
attr inifile omnetpp.ini
attr iterationvars "$replM=2, $biWeight=0.35, $replSearchM=1, $numUAVs=56"
attr iterationvarsf replM=2,biWeight=0.35,replSearchM=1,numUAVs=56-
attr measurement "$replM=2, $biWeight=0.35, $replSearchM=1, $numUAVs=56"
attr network OsgEarthNet
attr processid 18676
attr repetition 5
attr replication #5
attr resultdir results
attr runnumber 5
attr seedset 5
itervar biWeight 0.35
itervar numUAVs 56
itervar replM 2
itervar replSearchM 1
param *.osgEarthScene.scene "\"Szenario_Hotel_Gabelbach.earth\""
param *.playgroundLatitude 50.6830269
param *.playgroundLongitude 10.8538055
param *.playgroundWidth 3500m
param *.playgroundHeight 3500m
param *.cs[0].posX 3537m
param *.cs[0].posY 965m
param *.cs[0].posZ 538m
param *.cs[1].posX 312m
param *.cs[1].posY 1262m
param *.cs[1].posZ 539m
param *.cs[2].posX 2185m
param *.cs[2].posY 3026m
param *.cs[2].posZ 777m
param *.cs[3].posX 10m
param *.cs[3].posY 2200m
param *.cs[3].posZ 560m
param *.cs[4].posX 750m
param *.cs[4].posY 200m
param *.cs[4].posZ 540m
param *.cs[5].posX 2450m
param *.cs[5].posY 180m
param *.cs[5].posZ 524m
param *.cs[6].posX 3140m
param *.cs[6].posY 1790m
param *.cs[6].posZ 606m
param *.numCSs 3
param *.uav[*].replacementMethod 2
param *.uav[*].weightedSumWeight 0.35
param *.missionControl.replacementSearchMethod 1
param *.numUAVs 56
param *.numCSs 3
param *.numUAVs 100
param *.*.timeStep 10s
param *.uav[*].commandPreviewCommandCount 20
param *.missionControl.missionFiles "\"missions\\\\Szenario_WB_Hotel_Gabelbach_Mission_Hotel.waypoints,missions\\\\Szenario_WB_Hotel_Gabelbach_Mission_Kickelhahn.waypoints,missions\\\\Szenario_WB_Hotel_Gabelbach_Mission_Ilmenau_Sportplatz.waypoints,missions\\\\Szenario_WB_Hotel_Gabelbach_Mission_Manebach_Mitte.waypoints,missions\\\\Szenario_WB_Hotel_Gabelbach_Mission_Manebach_Sued.waypoints,missions\\\\Szenario_WB_Hotel_Gabelbach_Hover_HoheSchlaufe.waypoints,missions\\\\Szenario_WB_Hotel_Gabelbach_Hover_Kickelhahn.waypoints,missions\\\\Szenario_WB_Hotel_Gabelbach_Hover_Gabelbachskopf.waypoints,missions\\\\Szenario_WB_Hotel_Gabelbach_Hover_Dachskopf.waypoints\""
param *.uav[0].startX 3537m
param *.uav[0].startY 965m
param *.uav[0].startZ 539m
param *.uav[1].startX 312m
param *.uav[1].startY 1262m
param *.uav[1].startZ 540m
param *.uav[2].startX 2185m
param *.uav[2].startY 3026m
param *.uav[2].startZ 778m
param *.uav[3].startX 3537m
param *.uav[3].startY 965m
param *.uav[3].startZ 539m
param *.uav[4].startX 312m
param *.uav[4].startY 1262m
param *.uav[4].startZ 540m
param *.uav[5].startX 2185m
param *.uav[5].startY 3026m
param *.uav[5].startZ 778m
param *.uav[6].startX 3537m
param *.uav[6].startY 965m
param *.uav[6].startZ 539m
param *.uav[7].startX 312m
param *.uav[7].startY 1262m
param *.uav[7].startZ 540m
param *.uav[8].startX 2185m
param *.uav[8].startY 3026m
param *.uav[8].startZ 778m
param *.uav[9].startX 3537m
param *.uav[9].startY 965m
param *.uav[9].startZ 539m
param *.uav[10].startX 3537m
param *.uav[10].startY 965m
param *.uav[10].startZ 539m
param *.uav[11].startX 312m
param *.uav[11].startY 1262m
param *.uav[11].startZ 540m
param *.uav[12].startX 2185m
param *.uav[12].startY 3026m
param *.uav[12].startZ 778m
param *.uav[13].startX 3537m
param *.uav[13].startY 965m
param *.uav[13].startZ 539m
param *.uav[14].startX 312m
param *.uav[14].startY 1262m
param *.uav[14].startZ 540m
param *.uav[15].startX 2185m
param *.uav[15].startY 3026m
param *.uav[15].startZ 778m
param *.uav[16].startX 3537m
param *.uav[16].startY 965m
param *.uav[16].startZ 539m
param *.uav[17].startX 312m
param *.uav[17].startY 1262m
param *.uav[17].startZ 540m
param *.uav[18].startX 2185m
param *.uav[18].startY 3026m
param *.uav[18].startZ 778m
param *.uav[19].startX 3537m
param *.uav[19].startY 965m
param *.uav[19].startZ 539m
param *.uav[20].startX 3537m
param *.uav[20].startY 965m
param *.uav[20].startZ 539m
param *.uav[21].startX 312m
param *.uav[21].startY 1262m
param *.uav[21].startZ 540m
param *.uav[22].startX 2185m
param *.uav[22].startY 3026m
param *.uav[22].startZ 778m
param *.uav[23].startX 3537m
param *.uav[23].startY 965m
param *.uav[23].startZ 539m
param *.uav[24].startX 312m
param *.uav[24].startY 1262m
param *.uav[24].startZ 540m
param *.uav[25].startX 2185m
param *.uav[25].startY 3026m
param *.uav[25].startZ 778m
param *.uav[26].startX 3537m
param *.uav[26].startY 965m
param *.uav[26].startZ 539m
param *.uav[27].startX 312m
param *.uav[27].startY 1262m
param *.uav[27].startZ 540m
param *.uav[28].startX 2185m
param *.uav[28].startY 3026m
param *.uav[28].startZ 778m
param *.uav[29].startX 3537m
param *.uav[29].startY 965m
param *.uav[29].startZ 539m
param *.uav[30].startX 3537m
param *.uav[30].startY 965m
param *.uav[30].startZ 539m
param *.uav[31].startX 312m
param *.uav[31].startY 1262m
param *.uav[31].startZ 540m
param *.uav[32].startX 2185m
param *.uav[32].startY 3026m
param *.uav[32].startZ 778m
param *.uav[33].startX 3537m
param *.uav[33].startY 965m
param *.uav[33].startZ 539m
param *.uav[34].startX 312m
param *.uav[34].startY 1262m
param *.uav[34].startZ 540m
param *.uav[35].startX 2185m
param *.uav[35].startY 3026m
param *.uav[35].startZ 778m
param *.uav[36].startX 3537m
param *.uav[36].startY 965m
param *.uav[36].startZ 539m
param *.uav[37].startX 312m
param *.uav[37].startY 1262m
param *.uav[37].startZ 540m
param *.uav[38].startX 2185m
param *.uav[38].startY 3026m
param *.uav[38].startZ 778m
param *.uav[39].startX 3537m
param *.uav[39].startY 965m
param *.uav[39].startZ 539m
param *.uav[40].startX 3537m
param *.uav[40].startY 965m
param *.uav[40].startZ 539m
param *.uav[41].startX 312m
param *.uav[41].startY 1262m
param *.uav[41].startZ 540m
param *.uav[42].startX 2185m
param *.uav[42].startY 3026m
param *.uav[42].startZ 778m
param *.uav[43].startX 3537m
param *.uav[43].startY 965m
param *.uav[43].startZ 539m
param *.uav[44].startX 312m
param *.uav[44].startY 1262m
param *.uav[44].startZ 540m
param *.uav[45].startX 2185m
param *.uav[45].startY 3026m
param *.uav[45].startZ 778m
param *.uav[46].startX 3537m
param *.uav[46].startY 965m
param *.uav[46].startZ 539m
param *.uav[47].startX 312m
param *.uav[47].startY 1262m
param *.uav[47].startZ 540m
param *.uav[48].startX 2185m
param *.uav[48].startY 3026m
param *.uav[48].startZ 778m
param *.uav[49].startX 3537m
param *.uav[49].startY 965m
param *.uav[49].startZ 539m
param *.uav[50].startX 3537m
param *.uav[50].startY 965m
param *.uav[50].startZ 539m
param *.uav[51].startX 312m
param *.uav[51].startY 1262m
param *.uav[51].startZ 540m
param *.uav[52].startX 2185m
param *.uav[52].startY 3026m
param *.uav[52].startZ 778m
param *.uav[53].startX 3537m
param *.uav[53].startY 965m
param *.uav[53].startZ 539m
param *.uav[54].startX 312m
param *.uav[54].startY 1262m
param *.uav[54].startZ 540m
param *.uav[55].startX 2185m
param *.uav[55].startY 3026m
param *.uav[55].startZ 778m
param *.uav[56].startX 3537m
param *.uav[56].startY 965m
param *.uav[56].startZ 539m
param *.uav[57].startX 312m
param *.uav[57].startY 1262m
param *.uav[57].startZ 540m
param *.uav[58].startX 2185m
param *.uav[58].startY 3026m
param *.uav[58].startZ 778m
param *.uav[59].startX 3537m
param *.uav[59].startY 965m
param *.uav[59].startZ 539m
param *.uav[60].startX 3537m
param *.uav[60].startY 965m
param *.uav[60].startZ 539m
param *.uav[61].startX 312m
param *.uav[61].startY 1262m
param *.uav[61].startZ 540m
param *.uav[62].startX 2185m
param *.uav[62].startY 3026m
param *.uav[62].startZ 778m
param *.uav[63].startX 3537m
param *.uav[63].startY 965m
param *.uav[63].startZ 539m
param *.uav[64].startX 312m
param *.uav[64].startY 1262m
param *.uav[64].startZ 540m
param *.uav[65].startX 2185m
param *.uav[65].startY 3026m
param *.uav[65].startZ 778m
param *.uav[66].startX 3537m
param *.uav[66].startY 965m
param *.uav[66].startZ 539m
param *.uav[67].startX 312m
param *.uav[67].startY 1262m
param *.uav[67].startZ 540m
param *.uav[68].startX 2185m
param *.uav[68].startY 3026m
param *.uav[68].startZ 778m
param *.uav[69].startX 3537m
param *.uav[69].startY 965m
param *.uav[69].startZ 539m
param *.uav[70].startX 3537m
param *.uav[70].startY 965m
param *.uav[70].startZ 539m
param *.uav[71].startX 312m
param *.uav[71].startY 1262m
param *.uav[71].startZ 540m
param *.uav[72].startX 2185m
param *.uav[72].startY 3026m
param *.uav[72].startZ 778m
param *.uav[73].startX 3537m
param *.uav[73].startY 965m
param *.uav[73].startZ 539m
param *.uav[74].startX 312m
param *.uav[74].startY 1262m
param *.uav[74].startZ 540m
param *.uav[75].startX 2185m
param *.uav[75].startY 3026m
param *.uav[75].startZ 778m
param *.uav[76].startX 3537m
param *.uav[76].startY 965m
param *.uav[76].startZ 539m
param *.uav[77].startX 312m
param *.uav[77].startY 1262m
param *.uav[77].startZ 540m
param *.uav[78].startX 2185m
param *.uav[78].startY 3026m
param *.uav[78].startZ 778m
param *.uav[79].startX 3537m
param *.uav[79].startY 965m
param *.uav[79].startZ 539m
param *.uav[80].startX 3537m
param *.uav[80].startY 965m
param *.uav[80].startZ 539m
param *.uav[81].startX 312m
param *.uav[81].startY 1262m
param *.uav[81].startZ 540m
param *.uav[82].startX 2185m
param *.uav[82].startY 3026m
param *.uav[82].startZ 778m
param *.uav[83].startX 3537m
param *.uav[83].startY 965m
param *.uav[83].startZ 539m
param *.uav[84].startX 312m
param *.uav[84].startY 1262m
param *.uav[84].startZ 540m
param *.uav[85].startX 2185m
param *.uav[85].startY 3026m
param *.uav[85].startZ 778m
param *.uav[86].startX 3537m
param *.uav[86].startY 965m
param *.uav[86].startZ 539m
param *.uav[87].startX 312m
param *.uav[87].startY 1262m
param *.uav[87].startZ 540m
param *.uav[88].startX 2185m
param *.uav[88].startY 3026m
param *.uav[88].startZ 778m
param *.uav[89].startX 3537m
param *.uav[89].startY 965m
param *.uav[89].startZ 539m
param *.uav[90].startX 3537m
param *.uav[90].startY 965m
param *.uav[90].startZ 539m
param *.uav[91].startX 312m
param *.uav[91].startY 1262m
param *.uav[91].startZ 540m
param *.uav[92].startX 2185m
param *.uav[92].startY 3026m
param *.uav[92].startZ 778m
param *.uav[93].startX 3537m
param *.uav[93].startY 965m
param *.uav[93].startZ 539m
param *.uav[94].startX 312m
param *.uav[94].startY 1262m
param *.uav[94].startZ 540m
param *.uav[95].startX 2185m
param *.uav[95].startY 3026m
param *.uav[95].startZ 778m
param *.uav[96].startX 3537m
param *.uav[96].startY 965m
param *.uav[96].startZ 539m
param *.uav[97].startX 312m
param *.uav[97].startY 1262m
param *.uav[97].startZ 540m
param *.uav[98].startX 2185m
param *.uav[98].startY 3026m
param *.uav[98].startZ 778m
param *.uav[99].startX 3537m
param *.uav[99].startY 965m
param *.uav[99].startZ 539m
param *.osgEarthScene.scene "\"boston.earth\""
param *.playgroundLatitude 42.3558
param *.playgroundLongitude -71.0677
param *.playgroundWidth 400m
param *.playgroundHeight 200m
param *.channelController.connectionColor "\"#0000FF40\""
param *.channelController.showConnections false
param *.uav[*].modelURL "\"quadrocopter.small.obj.15.scale.0,0,90.rot\""
param *.uav[*].labelColor "\"#FF7C00CC\""
param *.uav[*].label2Color "\"#FF7C00EE\""
param *.uav[*].batteryCapacity 5200mAh
param *.uav[*].batteryRemaining uav[index].batteryCapacity
param *.uav[*].predictionQuantile 0.95
param *.uav[*].replacementMethod 2
param *.uav[*].weightedSumWeight 0.5
param *.cs[*].modelURL "\"chargingstation_v1.osgt.2.scale.0,0,0.rot.0,0,-15e-1.trans\""
param *.cs[*].spotsWaiting 999
param *.cs[*].spotsCharging 999
param *.cs[*].chargeEffectivenessPercentage 100
param *.cs[*].nonLinearPhaseStartPercentage 85
param *.cs[*].chargeCurrent 6.0A
param *.cs[*].prioritizeFastCharge true
param *.missionControl.replacementSearchMethod 0
param *.*.timeStep 9s

scalar OsgEarthNet.uav[0] utilizationSecMission 188329.26140847
scalar OsgEarthNet.uav[0] utilizationSecMaintenance 109222.17409929
scalar OsgEarthNet.uav[0] utilizationSecCharge 912016.56349224
scalar OsgEarthNet.uav[0] utilizationSecIdle 32
scalar OsgEarthNet.uav[0] utilizationEnergyMission 911264.00947189
scalar OsgEarthNet.uav[0] utilizationEnergyMaintenance 513390.57006836
scalar OsgEarthNet.uav[0] utilizationEnergyCharge 1423583.005127
scalar OsgEarthNet.uav[0] utilizationEnergyOverdrawMission 0
scalar OsgEarthNet.uav[0] utilizationEnergyOverdrawMaintenance 0
scalar OsgEarthNet.uav[0] utilizationCountMissions 341
scalar OsgEarthNet.uav[0] utilizationCountManeuversMission 5808
scalar OsgEarthNet.uav[0] utilizationCountManeuversMaintenance 682
scalar OsgEarthNet.uav[0] utilizationCountChargeState 341
scalar OsgEarthNet.uav[0] utilizationCountOverdrawnAfterMission 0
scalar OsgEarthNet.uav[0] utilizationCountIdleState 2
scalar OsgEarthNet.uav[0] utilizationFail 0
scalar OsgEarthNet.uav[0] simulationTime 1209600
scalar OsgEarthNet.uav[1] utilizationSecMission 200686.62202923
scalar OsgEarthNet.uav[1] utilizationSecMaintenance 96984.791997016
scalar OsgEarthNet.uav[1] utilizationSecCharge 910427.62098808
scalar OsgEarthNet.uav[1] utilizationSecIdle 1500.9639856735
scalar OsgEarthNet.uav[1] utilizationEnergyMission 968204.722332
scalar OsgEarthNet.uav[1] utilizationEnergyMaintenance 454476.70059204
scalar OsgEarthNet.uav[1] utilizationEnergyCharge 1418154.4949951
scalar OsgEarthNet.uav[1] utilizationEnergyOverdrawMission 0
scalar OsgEarthNet.uav[1] utilizationEnergyOverdrawMaintenance 0
scalar OsgEarthNet.uav[1] utilizationCountMissions 328
scalar OsgEarthNet.uav[1] utilizationCountManeuversMission 5736
scalar OsgEarthNet.uav[1] utilizationCountManeuversMaintenance 656
scalar OsgEarthNet.uav[1] utilizationCountChargeState 328
scalar OsgEarthNet.uav[1] utilizationCountOverdrawnAfterMission 0
scalar OsgEarthNet.uav[1] utilizationCountIdleState 1
scalar OsgEarthNet.uav[1] utilizationFail 0
scalar OsgEarthNet.uav[1] simulationTime 1209600
scalar OsgEarthNet.uav[2] utilizationSecMission 203431.41024796
scalar OsgEarthNet.uav[2] utilizationSecMaintenance 94416.58575204
scalar OsgEarthNet.uav[2] utilizationSecCharge 909700
scalar OsgEarthNet.uav[2] utilizationSecIdle 2052.003
scalar OsgEarthNet.uav[2] utilizationEnergyMission 989177.63396741
scalar OsgEarthNet.uav[2] utilizationEnergyMaintenance 439000.14363861
scalar OsgEarthNet.uav[2] utilizationEnergyCharge 1430436.4411621
scalar OsgEarthNet.uav[2] utilizationEnergyOverdrawMission 0
scalar OsgEarthNet.uav[2] utilizationEnergyOverdrawMaintenance 0
scalar OsgEarthNet.uav[2] utilizationCountMissions 324
scalar OsgEarthNet.uav[2] utilizationCountManeuversMission 6632
scalar OsgEarthNet.uav[2] utilizationCountManeuversMaintenance 649
scalar OsgEarthNet.uav[2] utilizationCountChargeState 324
scalar OsgEarthNet.uav[2] utilizationCountOverdrawnAfterMission 0
scalar OsgEarthNet.uav[2] utilizationCountIdleState 3
scalar OsgEarthNet.uav[2] utilizationFail 0
scalar OsgEarthNet.uav[2] simulationTime 1209600
scalar OsgEarthNet.uav[3] utilizationSecMission 194607.8955454
scalar OsgEarthNet.uav[3] utilizationSecMaintenance 103460.0994546
scalar OsgEarthNet.uav[3] utilizationSecCharge 909710
scalar OsgEarthNet.uav[3] utilizationSecIdle 1822.004
scalar OsgEarthNet.uav[3] utilizationEnergyMission 953242.78271016
scalar OsgEarthNet.uav[3] utilizationEnergyMaintenance 483340.86703873
scalar OsgEarthNet.uav[3] utilizationEnergyCharge 1432640.3674316
scalar OsgEarthNet.uav[3] utilizationEnergyOverdrawMission 0
scalar OsgEarthNet.uav[3] utilizationEnergyOverdrawMaintenance 0
scalar OsgEarthNet.uav[3] utilizationCountMissions 331
scalar OsgEarthNet.uav[3] utilizationCountManeuversMission 6543
scalar OsgEarthNet.uav[3] utilizationCountManeuversMaintenance 663
scalar OsgEarthNet.uav[3] utilizationCountChargeState 331
scalar OsgEarthNet.uav[3] utilizationCountOverdrawnAfterMission 0
scalar OsgEarthNet.uav[3] utilizationCountIdleState 1
scalar OsgEarthNet.uav[3] utilizationFail 0
scalar OsgEarthNet.uav[3] simulationTime 1209600
scalar OsgEarthNet.uav[4] utilizationSecMission 207618.57726563
scalar OsgEarthNet.uav[4] utilizationSecMaintenance 92278.776204832
scalar OsgEarthNet.uav[4] utilizationSecCharge 907407.20344084
scalar OsgEarthNet.uav[4] utilizationSecIdle 2295.4420886909
scalar OsgEarthNet.uav[4] utilizationEnergyMission 1009373.7360382
scalar OsgEarthNet.uav[4] utilizationEnergyMaintenance 429667.14378357
scalar OsgEarthNet.uav[4] utilizationEnergyCharge 1430592.0263672
scalar OsgEarthNet.uav[4] utilizationEnergyOverdrawMission 0
scalar OsgEarthNet.uav[4] utilizationEnergyOverdrawMaintenance 0
scalar OsgEarthNet.uav[4] utilizationCountMissions 323
scalar OsgEarthNet.uav[4] utilizationCountManeuversMission 6365
scalar OsgEarthNet.uav[4] utilizationCountManeuversMaintenance 646
scalar OsgEarthNet.uav[4] utilizationCountChargeState 323
scalar OsgEarthNet.uav[4] utilizationCountOverdrawnAfterMission 0
scalar OsgEarthNet.uav[4] utilizationCountIdleState 2
scalar OsgEarthNet.uav[4] utilizationFail 0
scalar OsgEarthNet.uav[4] simulationTime 1209600
scalar OsgEarthNet.uav[5] utilizationSecMission 191392.58579134
scalar OsgEarthNet.uav[5] utilizationSecMaintenance 109525.41120866
scalar OsgEarthNet.uav[5] utilizationSecCharge 907610
scalar OsgEarthNet.uav[5] utilizationSecIdle 1072.002
scalar OsgEarthNet.uav[5] utilizationEnergyMission 920542.17657471
scalar OsgEarthNet.uav[5] utilizationEnergyMaintenance 517814.98288513
scalar OsgEarthNet.uav[5] utilizationEnergyCharge 1435779.6757812
scalar OsgEarthNet.uav[5] utilizationEnergyOverdrawMission 0
scalar OsgEarthNet.uav[5] utilizationEnergyOverdrawMaintenance 0
scalar OsgEarthNet.uav[5] utilizationCountMissions 337
scalar OsgEarthNet.uav[5] utilizationCountManeuversMission 5744
scalar OsgEarthNet.uav[5] utilizationCountManeuversMaintenance 675
scalar OsgEarthNet.uav[5] utilizationCountChargeState 337
scalar OsgEarthNet.uav[5] utilizationCountOverdrawnAfterMission 0
scalar OsgEarthNet.uav[5] utilizationCountIdleState 2
scalar OsgEarthNet.uav[5] utilizationFail 0
scalar OsgEarthNet.uav[5] simulationTime 1209600
scalar OsgEarthNet.uav[6] utilizationSecMission 193383.19962283
scalar OsgEarthNet.uav[6] utilizationSecMaintenance 107580.40549946
scalar OsgEarthNet.uav[6] utilizationSecCharge 907314.39087771
scalar OsgEarthNet.uav[6] utilizationSecIdle 1322.003
scalar OsgEarthNet.uav[6] utilizationEnergyMission 941643.34313583
scalar OsgEarthNet.uav[6] utilizationEnergyMaintenance 504309.31815338
scalar OsgEarthNet.uav[6] utilizationEnergyCharge 1442321.8164062
scalar OsgEarthNet.uav[6] utilizationEnergyOverdrawMission 0
scalar OsgEarthNet.uav[6] utilizationEnergyOverdrawMaintenance 0
scalar OsgEarthNet.uav[6] utilizationCountMissions 336
scalar OsgEarthNet.uav[6] utilizationCountManeuversMission 6369
scalar OsgEarthNet.uav[6] utilizationCountManeuversMaintenance 672
scalar OsgEarthNet.uav[6] utilizationCountChargeState 336
scalar OsgEarthNet.uav[6] utilizationCountOverdrawnAfterMission 0
scalar OsgEarthNet.uav[6] utilizationCountIdleState 1
scalar OsgEarthNet.uav[6] utilizationFail 0
scalar OsgEarthNet.uav[6] simulationTime 1209600
scalar OsgEarthNet.uav[7] utilizationSecMission 212467.0250964
scalar OsgEarthNet.uav[7] utilizationSecMaintenance 86962.262635179
scalar OsgEarthNet.uav[7] utilizationSecCharge 908305.27017973
scalar OsgEarthNet.uav[7] utilizationSecIdle 1865.4410886909
scalar OsgEarthNet.uav[7] utilizationEnergyMission 1029873.2656631
scalar OsgEarthNet.uav[7] utilizationEnergyMaintenance 403135.42269516
scalar OsgEarthNet.uav[7] utilizationEnergyCharge 1433301.7324219
scalar OsgEarthNet.uav[7] utilizationEnergyOverdrawMission 0
scalar OsgEarthNet.uav[7] utilizationEnergyOverdrawMaintenance 0
scalar OsgEarthNet.uav[7] utilizationCountMissions 319
scalar OsgEarthNet.uav[7] utilizationCountManeuversMission 6571
scalar OsgEarthNet.uav[7] utilizationCountManeuversMaintenance 638
scalar OsgEarthNet.uav[7] utilizationCountChargeState 319
scalar OsgEarthNet.uav[7] utilizationCountOverdrawnAfterMission 0
scalar OsgEarthNet.uav[7] utilizationCountIdleState 1
scalar OsgEarthNet.uav[7] utilizationFail 0
scalar OsgEarthNet.uav[7] simulationTime 1209600
scalar OsgEarthNet.uav[8] utilizationSecMission 191923.1215012
scalar OsgEarthNet.uav[8] utilizationSecMaintenance 107496.60758115
scalar OsgEarthNet.uav[8] utilizationSecCharge 910038.26991765
scalar OsgEarthNet.uav[8] utilizationSecIdle 142
scalar OsgEarthNet.uav[8] utilizationEnergyMission 933225.13886733
scalar OsgEarthNet.uav[8] utilizationEnergyMaintenance 503130.13235474
scalar OsgEarthNet.uav[8] utilizationEnergyCharge 1431861.1987305
scalar OsgEarthNet.uav[8] utilizationEnergyOverdrawMission 0
scalar OsgEarthNet.uav[8] utilizationEnergyOverdrawMaintenance 0
scalar OsgEarthNet.uav[8] utilizationCountMissions 338
scalar OsgEarthNet.uav[8] utilizationCountManeuversMission 6130
scalar OsgEarthNet.uav[8] utilizationCountManeuversMaintenance 675
scalar OsgEarthNet.uav[8] utilizationCountChargeState 338
scalar OsgEarthNet.uav[8] utilizationCountOverdrawnAfterMission 0
scalar OsgEarthNet.uav[8] utilizationCountIdleState 2
scalar OsgEarthNet.uav[8] utilizationFail 0
scalar OsgEarthNet.uav[8] simulationTime 1209600
scalar OsgEarthNet.uav[9] utilizationSecMission 182764.02255101
scalar OsgEarthNet.uav[9] utilizationSecMaintenance 115994.40146638
scalar OsgEarthNet.uav[9] utilizationSecCharge 907639.56798261
scalar OsgEarthNet.uav[9] utilizationSecIdle 3202.007
scalar OsgEarthNet.uav[9] utilizationEnergyMission 883806.54056549
scalar OsgEarthNet.uav[9] utilizationEnergyMaintenance 550472.00378418
scalar OsgEarthNet.uav[9] utilizationEnergyCharge 1431238.3813477
scalar OsgEarthNet.uav[9] utilizationEnergyOverdrawMission 0
scalar OsgEarthNet.uav[9] utilizationEnergyOverdrawMaintenance 0
scalar OsgEarthNet.uav[9] utilizationCountMissions 342
scalar OsgEarthNet.uav[9] utilizationCountManeuversMission 5721
scalar OsgEarthNet.uav[9] utilizationCountManeuversMaintenance 684
scalar OsgEarthNet.uav[9] utilizationCountChargeState 342
scalar OsgEarthNet.uav[9] utilizationCountOverdrawnAfterMission 0
scalar OsgEarthNet.uav[9] utilizationCountIdleState 1
scalar OsgEarthNet.uav[9] utilizationFail 0
scalar OsgEarthNet.uav[9] simulationTime 1209600
scalar OsgEarthNet.uav[10] utilizationSecMission 197222.55465356
scalar OsgEarthNet.uav[10] utilizationSecMaintenance 100927.10046643
scalar OsgEarthNet.uav[10] utilizationSecCharge 908302.26090022
scalar OsgEarthNet.uav[10] utilizationSecIdle 3148.0829797894
scalar OsgEarthNet.uav[10] utilizationEnergyMission 955894.65863419
scalar OsgEarthNet.uav[10] utilizationEnergyMaintenance 471461.30311966
scalar OsgEarthNet.uav[10] utilizationEnergyCharge 1421339.6068115
scalar OsgEarthNet.uav[10] utilizationEnergyOverdrawMission 0
scalar OsgEarthNet.uav[10] utilizationEnergyOverdrawMaintenance 0
scalar OsgEarthNet.uav[10] utilizationCountMissions 330
scalar OsgEarthNet.uav[10] utilizationCountManeuversMission 6156
scalar OsgEarthNet.uav[10] utilizationCountManeuversMaintenance 660
scalar OsgEarthNet.uav[10] utilizationCountChargeState 330
scalar OsgEarthNet.uav[10] utilizationCountOverdrawnAfterMission 0
scalar OsgEarthNet.uav[10] utilizationCountIdleState 1
scalar OsgEarthNet.uav[10] utilizationFail 0
scalar OsgEarthNet.uav[10] simulationTime 1209600
scalar OsgEarthNet.uav[11] utilizationSecMission 185606.49632627
scalar OsgEarthNet.uav[11] utilizationSecMaintenance 115365.41644958
scalar OsgEarthNet.uav[11] utilizationSecCharge 907026.08322414
scalar OsgEarthNet.uav[11] utilizationSecIdle 1602.003
scalar OsgEarthNet.uav[11] utilizationEnergyMission 912428.05157471
scalar OsgEarthNet.uav[11] utilizationEnergyMaintenance 543698.09770584
scalar OsgEarthNet.uav[11] utilizationEnergyCharge 1448510.355957
scalar OsgEarthNet.uav[11] utilizationEnergyOverdrawMission 0
scalar OsgEarthNet.uav[11] utilizationEnergyOverdrawMaintenance 0
scalar OsgEarthNet.uav[11] utilizationCountMissions 340
scalar OsgEarthNet.uav[11] utilizationCountManeuversMission 6278
scalar OsgEarthNet.uav[11] utilizationCountManeuversMaintenance 680
scalar OsgEarthNet.uav[11] utilizationCountChargeState 340
scalar OsgEarthNet.uav[11] utilizationCountOverdrawnAfterMission 0
scalar OsgEarthNet.uav[11] utilizationCountIdleState 1
scalar OsgEarthNet.uav[11] utilizationFail 0
scalar OsgEarthNet.uav[11] simulationTime 1209600
scalar OsgEarthNet.uav[12] utilizationSecMission 190362.44757486
scalar OsgEarthNet.uav[12] utilizationSecMaintenance 101838.93894078
scalar OsgEarthNet.uav[12] utilizationSecCharge 916896.61148436
scalar OsgEarthNet.uav[12] utilizationSecIdle 502.001
scalar OsgEarthNet.uav[12] utilizationEnergyMission 915277.22168732
scalar OsgEarthNet.uav[12] utilizationEnergyMaintenance 482099.20349121
scalar OsgEarthNet.uav[12] utilizationEnergyCharge 1397715.2753906
scalar OsgEarthNet.uav[12] utilizationEnergyOverdrawMission 0
scalar OsgEarthNet.uav[12] utilizationEnergyOverdrawMaintenance 0
scalar OsgEarthNet.uav[12] utilizationCountMissions 336
scalar OsgEarthNet.uav[12] utilizationCountManeuversMission 5696
scalar OsgEarthNet.uav[12] utilizationCountManeuversMaintenance 672
scalar OsgEarthNet.uav[12] utilizationCountChargeState 336
scalar OsgEarthNet.uav[12] utilizationCountOverdrawnAfterMission 0
scalar OsgEarthNet.uav[12] utilizationCountIdleState 1
scalar OsgEarthNet.uav[12] utilizationFail 0
scalar OsgEarthNet.uav[12] simulationTime 1209600
scalar OsgEarthNet.uav[13] utilizationSecMission 189008.71701444
scalar OsgEarthNet.uav[13] utilizationSecMaintenance 111044.72407497
scalar OsgEarthNet.uav[13] utilizationSecCharge 907884.41809744
scalar OsgEarthNet.uav[13] utilizationSecIdle 1662.1398131443
scalar OsgEarthNet.uav[13] utilizationEnergyMission 914282.98394775
scalar OsgEarthNet.uav[13] utilizationEnergyMaintenance 524447.33168793
scalar OsgEarthNet.uav[13] utilizationEnergyCharge 1435897.0891113
scalar OsgEarthNet.uav[13] utilizationEnergyOverdrawMission 0
scalar OsgEarthNet.uav[13] utilizationEnergyOverdrawMaintenance 0
scalar OsgEarthNet.uav[13] utilizationCountMissions 337
scalar OsgEarthNet.uav[13] utilizationCountManeuversMission 5906
scalar OsgEarthNet.uav[13] utilizationCountManeuversMaintenance 674
scalar OsgEarthNet.uav[13] utilizationCountChargeState 337
scalar OsgEarthNet.uav[13] utilizationCountOverdrawnAfterMission 0
scalar OsgEarthNet.uav[13] utilizationCountIdleState 1
scalar OsgEarthNet.uav[13] utilizationFail 0
scalar OsgEarthNet.uav[13] simulationTime 1209600
scalar OsgEarthNet.uav[14] utilizationSecMission 199154.58324837
scalar OsgEarthNet.uav[14] utilizationSecMaintenance 100416.7216575
scalar OsgEarthNet.uav[14] utilizationSecCharge 908220.34049125
scalar OsgEarthNet.uav[14] utilizationSecIdle 1808.3536028792
scalar OsgEarthNet.uav[14] utilizationEnergyMission 974815.84790421
scalar OsgEarthNet.uav[14] utilizationEnergyMaintenance 465918.84657669
scalar OsgEarthNet.uav[14] utilizationEnergyCharge 1432594.979126
scalar OsgEarthNet.uav[14] utilizationEnergyOverdrawMission 0
scalar OsgEarthNet.uav[14] utilizationEnergyOverdrawMaintenance 0
scalar OsgEarthNet.uav[14] utilizationCountMissions 331
scalar OsgEarthNet.uav[14] utilizationCountManeuversMission 6839
scalar OsgEarthNet.uav[14] utilizationCountManeuversMaintenance 662
scalar OsgEarthNet.uav[14] utilizationCountChargeState 331
scalar OsgEarthNet.uav[14] utilizationCountOverdrawnAfterMission 0
scalar OsgEarthNet.uav[14] utilizationCountIdleState 1
scalar OsgEarthNet.uav[14] utilizationFail 0
scalar OsgEarthNet.uav[14] simulationTime 1209600
scalar OsgEarthNet.uav[15] utilizationSecMission 203977.53258569
scalar OsgEarthNet.uav[15] utilizationSecMaintenance 97810.466414308
scalar OsgEarthNet.uav[15] utilizationSecCharge 907780
scalar OsgEarthNet.uav[15] utilizationSecIdle 32
scalar OsgEarthNet.uav[15] utilizationEnergyMission 986526.42436393
scalar OsgEarthNet.uav[15] utilizationEnergyMaintenance 454745.59183502
scalar OsgEarthNet.uav[15] utilizationEnergyCharge 1438401.9165039
scalar OsgEarthNet.uav[15] utilizationEnergyOverdrawMission 0
scalar OsgEarthNet.uav[15] utilizationEnergyOverdrawMaintenance 0
scalar OsgEarthNet.uav[15] utilizationCountMissions 326
scalar OsgEarthNet.uav[15] utilizationCountManeuversMission 6344
scalar OsgEarthNet.uav[15] utilizationCountManeuversMaintenance 653
scalar OsgEarthNet.uav[15] utilizationCountChargeState 326
scalar OsgEarthNet.uav[15] utilizationCountOverdrawnAfterMission 0
scalar OsgEarthNet.uav[15] utilizationCountIdleState 2
scalar OsgEarthNet.uav[15] utilizationFail 0
scalar OsgEarthNet.uav[15] simulationTime 1209600
scalar OsgEarthNet.uav[16] utilizationSecMission 200096.05545946
scalar OsgEarthNet.uav[16] utilizationSecMaintenance 100951.94354054
scalar OsgEarthNet.uav[16] utilizationSecCharge 908550
scalar OsgEarthNet.uav[16] utilizationSecIdle 2
scalar OsgEarthNet.uav[16] utilizationEnergyMission 974413.23461829
scalar OsgEarthNet.uav[16] utilizationEnergyMaintenance 472782.32117462
scalar OsgEarthNet.uav[16] utilizationEnergyCharge 1439933.7062988
scalar OsgEarthNet.uav[16] utilizationEnergyOverdrawMission 0
scalar OsgEarthNet.uav[16] utilizationEnergyOverdrawMaintenance 0
scalar OsgEarthNet.uav[16] utilizationCountMissions 330
scalar OsgEarthNet.uav[16] utilizationCountManeuversMission 6389
scalar OsgEarthNet.uav[16] utilizationCountManeuversMaintenance 660
scalar OsgEarthNet.uav[16] utilizationCountChargeState 330
scalar OsgEarthNet.uav[16] utilizationCountOverdrawnAfterMission 0
scalar OsgEarthNet.uav[16] utilizationCountIdleState 1
scalar OsgEarthNet.uav[16] utilizationFail 0
scalar OsgEarthNet.uav[16] simulationTime 1209600
scalar OsgEarthNet.uav[17] utilizationSecMission 195502.93222086
scalar OsgEarthNet.uav[17] utilizationSecMaintenance 101069.11718183
scalar OsgEarthNet.uav[17] utilizationSecCharge 911845.94759731
scalar OsgEarthNet.uav[17] utilizationSecIdle 1182.002
scalar OsgEarthNet.uav[17] utilizationEnergyMission 947982.62282562
scalar OsgEarthNet.uav[17] utilizationEnergyMaintenance 473194.92803574
scalar OsgEarthNet.uav[17] utilizationEnergyCharge 1418143.7758789
scalar OsgEarthNet.uav[17] utilizationEnergyOverdrawMission 0
scalar OsgEarthNet.uav[17] utilizationEnergyOverdrawMaintenance 0
scalar OsgEarthNet.uav[17] utilizationCountMissions 333
scalar OsgEarthNet.uav[17] utilizationCountManeuversMission 6071
scalar OsgEarthNet.uav[17] utilizationCountManeuversMaintenance 666
scalar OsgEarthNet.uav[17] utilizationCountChargeState 333
scalar OsgEarthNet.uav[17] utilizationCountOverdrawnAfterMission 0
scalar OsgEarthNet.uav[17] utilizationCountIdleState 2
scalar OsgEarthNet.uav[17] utilizationFail 0
scalar OsgEarthNet.uav[17] simulationTime 1209600
scalar OsgEarthNet.uav[18] utilizationSecMission 187415.66209812
scalar OsgEarthNet.uav[18] utilizationSecMaintenance 109086.14256963
scalar OsgEarthNet.uav[18] utilizationSecCharge 911686.19233226
scalar OsgEarthNet.uav[18] utilizationSecIdle 1412.002
scalar OsgEarthNet.uav[18] utilizationEnergyMission 899895.1219368
scalar OsgEarthNet.uav[18] utilizationEnergyMaintenance 515611.24004745
scalar OsgEarthNet.uav[18] utilizationEnergyCharge 1417592.9675293
scalar OsgEarthNet.uav[18] utilizationEnergyOverdrawMission 0
scalar OsgEarthNet.uav[18] utilizationEnergyOverdrawMaintenance 0
scalar OsgEarthNet.uav[18] utilizationCountMissions 338
scalar OsgEarthNet.uav[18] utilizationCountManeuversMission 5561
scalar OsgEarthNet.uav[18] utilizationCountManeuversMaintenance 676
scalar OsgEarthNet.uav[18] utilizationCountChargeState 338
scalar OsgEarthNet.uav[18] utilizationCountOverdrawnAfterMission 0
scalar OsgEarthNet.uav[18] utilizationCountIdleState 4
scalar OsgEarthNet.uav[18] utilizationFail 0
scalar OsgEarthNet.uav[18] simulationTime 1209600
scalar OsgEarthNet.uav[19] utilizationSecMission 195548.39289272
scalar OsgEarthNet.uav[19] utilizationSecMaintenance 104027.39979848
scalar OsgEarthNet.uav[19] utilizationSecCharge 907192.06156884
scalar OsgEarthNet.uav[19] utilizationSecIdle 2832.1447399488
scalar OsgEarthNet.uav[19] utilizationEnergyMission 949160.41518402
scalar OsgEarthNet.uav[19] utilizationEnergyMaintenance 486708.83090973
scalar OsgEarthNet.uav[19] utilizationEnergyCharge 1429203.9924316
scalar OsgEarthNet.uav[19] utilizationEnergyOverdrawMission 0
scalar OsgEarthNet.uav[19] utilizationEnergyOverdrawMaintenance 0
scalar OsgEarthNet.uav[19] utilizationCountMissions 332
scalar OsgEarthNet.uav[19] utilizationCountManeuversMission 6188
scalar OsgEarthNet.uav[19] utilizationCountManeuversMaintenance 664
scalar OsgEarthNet.uav[19] utilizationCountChargeState 332
scalar OsgEarthNet.uav[19] utilizationCountOverdrawnAfterMission 0
scalar OsgEarthNet.uav[19] utilizationCountIdleState 1
scalar OsgEarthNet.uav[19] utilizationFail 0
scalar OsgEarthNet.uav[19] simulationTime 1209600
scalar OsgEarthNet.uav[20] utilizationSecMission 198996.95489789
scalar OsgEarthNet.uav[20] utilizationSecMaintenance 99189.651984574
scalar OsgEarthNet.uav[20] utilizationSecCharge 908210
scalar OsgEarthNet.uav[20] utilizationSecIdle 3203.3921175336
scalar OsgEarthNet.uav[20] utilizationEnergyMission 967462.05687845
scalar OsgEarthNet.uav[20] utilizationEnergyMaintenance 465808.27315903
scalar OsgEarthNet.uav[20] utilizationEnergyCharge 1424172.3935547
scalar OsgEarthNet.uav[20] utilizationEnergyOverdrawMission 0
scalar OsgEarthNet.uav[20] utilizationEnergyOverdrawMaintenance 0
scalar OsgEarthNet.uav[20] utilizationCountMissions 327
scalar OsgEarthNet.uav[20] utilizationCountManeuversMission 6280
scalar OsgEarthNet.uav[20] utilizationCountManeuversMaintenance 655
scalar OsgEarthNet.uav[20] utilizationCountChargeState 327
scalar OsgEarthNet.uav[20] utilizationCountOverdrawnAfterMission 0
scalar OsgEarthNet.uav[20] utilizationCountIdleState 1
scalar OsgEarthNet.uav[20] utilizationFail 0
scalar OsgEarthNet.uav[20] simulationTime 1209600
scalar OsgEarthNet.uav[21] utilizationSecMission 185963.36519173
scalar OsgEarthNet.uav[21] utilizationSecMaintenance 109990.21593743
scalar OsgEarthNet.uav[21] utilizationSecCharge 911116.61765209
scalar OsgEarthNet.uav[21] utilizationSecIdle 2529.8002187448
scalar OsgEarthNet.uav[21] utilizationEnergyMission 897956.00910187
scalar OsgEarthNet.uav[21] utilizationEnergyMaintenance 520091.28580856
scalar OsgEarthNet.uav[21] utilizationEnergyCharge 1416621.3188477
scalar OsgEarthNet.uav[21] utilizationEnergyOverdrawMission 0
scalar OsgEarthNet.uav[21] utilizationEnergyOverdrawMaintenance 0
scalar OsgEarthNet.uav[21] utilizationCountMissions 340
scalar OsgEarthNet.uav[21] utilizationCountManeuversMission 5572
scalar OsgEarthNet.uav[21] utilizationCountManeuversMaintenance 680
scalar OsgEarthNet.uav[21] utilizationCountChargeState 340
scalar OsgEarthNet.uav[21] utilizationCountOverdrawnAfterMission 0
scalar OsgEarthNet.uav[21] utilizationCountIdleState 2
scalar OsgEarthNet.uav[21] utilizationFail 0
scalar OsgEarthNet.uav[21] simulationTime 1209600
scalar OsgEarthNet.uav[22] utilizationSecMission 196343.46692276
scalar OsgEarthNet.uav[22] utilizationSecMaintenance 102908.4497751
scalar OsgEarthNet.uav[22] utilizationSecCharge 908908.65695485
scalar OsgEarthNet.uav[22] utilizationSecIdle 1439.4253472904
scalar OsgEarthNet.uav[22] utilizationEnergyMission 964214.21812439
scalar OsgEarthNet.uav[22] utilizationEnergyMaintenance 480328.1411972
scalar OsgEarthNet.uav[22] utilizationEnergyCharge 1436117.4699707
scalar OsgEarthNet.uav[22] utilizationEnergyOverdrawMission 0
scalar OsgEarthNet.uav[22] utilizationEnergyOverdrawMaintenance 0
scalar OsgEarthNet.uav[22] utilizationCountMissions 331
scalar OsgEarthNet.uav[22] utilizationCountManeuversMission 6539
scalar OsgEarthNet.uav[22] utilizationCountManeuversMaintenance 662
scalar OsgEarthNet.uav[22] utilizationCountChargeState 331
scalar OsgEarthNet.uav[22] utilizationCountOverdrawnAfterMission 0
scalar OsgEarthNet.uav[22] utilizationCountIdleState 1
scalar OsgEarthNet.uav[22] utilizationFail 0
scalar OsgEarthNet.uav[22] simulationTime 1209600
scalar OsgEarthNet.uav[23] utilizationSecMission 192130.01172971
scalar OsgEarthNet.uav[23] utilizationSecMaintenance 106479.31153064
scalar OsgEarthNet.uav[23] utilizationSecCharge 908019.72648399
scalar OsgEarthNet.uav[23] utilizationSecIdle 2970.9492556647
scalar OsgEarthNet.uav[23] utilizationEnergyMission 920337.41093063
scalar OsgEarthNet.uav[23] utilizationEnergyMaintenance 499693.21561813
scalar OsgEarthNet.uav[23] utilizationEnergyCharge 1424148.2277832
scalar OsgEarthNet.uav[23] utilizationEnergyOverdrawMission 0
scalar OsgEarthNet.uav[23] utilizationEnergyOverdrawMaintenance 0
scalar OsgEarthNet.uav[23] utilizationCountMissions 336
scalar OsgEarthNet.uav[23] utilizationCountManeuversMission 5774
scalar OsgEarthNet.uav[23] utilizationCountManeuversMaintenance 672
scalar OsgEarthNet.uav[23] utilizationCountChargeState 336
scalar OsgEarthNet.uav[23] utilizationCountOverdrawnAfterMission 0
scalar OsgEarthNet.uav[23] utilizationCountIdleState 2
scalar OsgEarthNet.uav[23] utilizationFail 0
scalar OsgEarthNet.uav[23] simulationTime 1209600
scalar OsgEarthNet.uav[24] utilizationSecMission 193673.71327437
scalar OsgEarthNet.uav[24] utilizationSecMaintenance 101474.28572563
scalar OsgEarthNet.uav[24] utilizationSecCharge 914400
scalar OsgEarthNet.uav[24] utilizationSecIdle 52
scalar OsgEarthNet.uav[24] utilizationEnergyMission 937983.9309734
scalar OsgEarthNet.uav[24] utilizationEnergyMaintenance 473648.49668121
scalar OsgEarthNet.uav[24] utilizationEnergyCharge 1405405.1306152
scalar OsgEarthNet.uav[24] utilizationEnergyOverdrawMission 0
scalar OsgEarthNet.uav[24] utilizationEnergyOverdrawMaintenance 0
scalar OsgEarthNet.uav[24] utilizationCountMissions 333
scalar OsgEarthNet.uav[24] utilizationCountManeuversMission 6113
scalar OsgEarthNet.uav[24] utilizationCountManeuversMaintenance 667
scalar OsgEarthNet.uav[24] utilizationCountChargeState 333
scalar OsgEarthNet.uav[24] utilizationCountOverdrawnAfterMission 0
scalar OsgEarthNet.uav[24] utilizationCountIdleState 2
scalar OsgEarthNet.uav[24] utilizationFail 0
scalar OsgEarthNet.uav[24] simulationTime 1209600
scalar OsgEarthNet.uav[25] utilizationSecMission 187148.29421557
scalar OsgEarthNet.uav[25] utilizationSecMaintenance 106948.04043351
scalar OsgEarthNet.uav[25] utilizationSecCharge 913577.3141301
scalar OsgEarthNet.uav[25] utilizationSecIdle 1926.3502208215
scalar OsgEarthNet.uav[25] utilizationEnergyMission 912286.5742569
scalar OsgEarthNet.uav[25] utilizationEnergyMaintenance 504249.57674789
scalar OsgEarthNet.uav[25] utilizationEnergyCharge 1413829.6992188
scalar OsgEarthNet.uav[25] utilizationEnergyOverdrawMission 0
scalar OsgEarthNet.uav[25] utilizationEnergyOverdrawMaintenance 0
scalar OsgEarthNet.uav[25] utilizationCountMissions 336
scalar OsgEarthNet.uav[25] utilizationCountManeuversMission 5913
scalar OsgEarthNet.uav[25] utilizationCountManeuversMaintenance 672
scalar OsgEarthNet.uav[25] utilizationCountChargeState 336
scalar OsgEarthNet.uav[25] utilizationCountOverdrawnAfterMission 0
scalar OsgEarthNet.uav[25] utilizationCountIdleState 3
scalar OsgEarthNet.uav[25] utilizationFail 0
scalar OsgEarthNet.uav[25] simulationTime 1209600
scalar OsgEarthNet.uav[26] utilizationSecMission 181878.37399231
scalar OsgEarthNet.uav[26] utilizationSecMaintenance 115626.48811987
scalar OsgEarthNet.uav[26] utilizationSecCharge 909662.37092249
scalar OsgEarthNet.uav[26] utilizationSecIdle 2432.765965339
scalar OsgEarthNet.uav[26] utilizationEnergyMission 889313.62411499
scalar OsgEarthNet.uav[26] utilizationEnergyMaintenance 548863.65891266
scalar OsgEarthNet.uav[26] utilizationEnergyCharge 1434685.3366699
scalar OsgEarthNet.uav[26] utilizationEnergyOverdrawMission 0
scalar OsgEarthNet.uav[26] utilizationEnergyOverdrawMaintenance 0
scalar OsgEarthNet.uav[26] utilizationCountMissions 342
scalar OsgEarthNet.uav[26] utilizationCountManeuversMission 6069
scalar OsgEarthNet.uav[26] utilizationCountManeuversMaintenance 684
scalar OsgEarthNet.uav[26] utilizationCountChargeState 342
scalar OsgEarthNet.uav[26] utilizationCountOverdrawnAfterMission 0
scalar OsgEarthNet.uav[26] utilizationCountIdleState 1
scalar OsgEarthNet.uav[26] utilizationFail 0
scalar OsgEarthNet.uav[26] simulationTime 1209600
scalar OsgEarthNet.uav[27] utilizationSecMission 192033.01117478
scalar OsgEarthNet.uav[27] utilizationSecMaintenance 106848.88719253
scalar OsgEarthNet.uav[27] utilizationSecCharge 908116.09563269
scalar OsgEarthNet.uav[27] utilizationSecIdle 2602.005
scalar OsgEarthNet.uav[27] utilizationEnergyMission 928488.20829391
scalar OsgEarthNet.uav[27] utilizationEnergyMaintenance 501228.68548965
scalar OsgEarthNet.uav[27] utilizationEnergyCharge 1426464.711731
scalar OsgEarthNet.uav[27] utilizationEnergyOverdrawMission 0
scalar OsgEarthNet.uav[27] utilizationEnergyOverdrawMaintenance 0
scalar OsgEarthNet.uav[27] utilizationCountMissions 335
scalar OsgEarthNet.uav[27] utilizationCountManeuversMission 5753
scalar OsgEarthNet.uav[27] utilizationCountManeuversMaintenance 670
scalar OsgEarthNet.uav[27] utilizationCountChargeState 335
scalar OsgEarthNet.uav[27] utilizationCountOverdrawnAfterMission 0
scalar OsgEarthNet.uav[27] utilizationCountIdleState 1
scalar OsgEarthNet.uav[27] utilizationFail 0
scalar OsgEarthNet.uav[27] simulationTime 1209600
scalar OsgEarthNet.uav[28] utilizationSecMission 189267.77187339
scalar OsgEarthNet.uav[28] utilizationSecMaintenance 106497.09108045
scalar OsgEarthNet.uav[28] utilizationSecCharge 913813.13604616
scalar OsgEarthNet.uav[28] utilizationSecIdle 22
scalar OsgEarthNet.uav[28] utilizationEnergyMission 909443.48299731
scalar OsgEarthNet.uav[28] utilizationEnergyMaintenance 500191.06120682
scalar OsgEarthNet.uav[28] utilizationEnergyCharge 1403566.9550781
scalar OsgEarthNet.uav[28] utilizationEnergyOverdrawMission 0
scalar OsgEarthNet.uav[28] utilizationEnergyOverdrawMaintenance 0
scalar OsgEarthNet.uav[28] utilizationCountMissions 338
scalar OsgEarthNet.uav[28] utilizationCountManeuversMission 5553
scalar OsgEarthNet.uav[28] utilizationCountManeuversMaintenance 675
scalar OsgEarthNet.uav[28] utilizationCountChargeState 338
scalar OsgEarthNet.uav[28] utilizationCountOverdrawnAfterMission 0
scalar OsgEarthNet.uav[28] utilizationCountIdleState 2
scalar OsgEarthNet.uav[28] utilizationFail 0
scalar OsgEarthNet.uav[28] simulationTime 1209600
scalar OsgEarthNet.uav[29] utilizationSecMission 202024.17631993
scalar OsgEarthNet.uav[29] utilizationSecMaintenance 96851.437648636
scalar OsgEarthNet.uav[29] utilizationSecCharge 907855.80437457
scalar OsgEarthNet.uav[29] utilizationSecIdle 2868.5806568717
scalar OsgEarthNet.uav[29] utilizationEnergyMission 972987.26996231
scalar OsgEarthNet.uav[29] utilizationEnergyMaintenance 454604.79875565
scalar OsgEarthNet.uav[29] utilizationEnergyCharge 1425100.8356934
scalar OsgEarthNet.uav[29] utilizationEnergyOverdrawMission 0
scalar OsgEarthNet.uav[29] utilizationEnergyOverdrawMaintenance 0
scalar OsgEarthNet.uav[29] utilizationCountMissions 328
scalar OsgEarthNet.uav[29] utilizationCountManeuversMission 5872
scalar OsgEarthNet.uav[29] utilizationCountManeuversMaintenance 656
scalar OsgEarthNet.uav[29] utilizationCountChargeState 328
scalar OsgEarthNet.uav[29] utilizationCountOverdrawnAfterMission 0
scalar OsgEarthNet.uav[29] utilizationCountIdleState 1
scalar OsgEarthNet.uav[29] utilizationFail 0
scalar OsgEarthNet.uav[29] simulationTime 1209600
scalar OsgEarthNet.uav[30] utilizationSecMission 190635.52701621
scalar OsgEarthNet.uav[30] utilizationSecMaintenance 108219.28391465
scalar OsgEarthNet.uav[30] utilizationSecCharge 908134.23981348
scalar OsgEarthNet.uav[30] utilizationSecIdle 2610.9482556647
scalar OsgEarthNet.uav[30] utilizationEnergyMission 914091.48804092
scalar OsgEarthNet.uav[30] utilizationEnergyMaintenance 509643.70915604
scalar OsgEarthNet.uav[30] utilizationEnergyCharge 1421069.7397461
scalar OsgEarthNet.uav[30] utilizationEnergyOverdrawMission 0
scalar OsgEarthNet.uav[30] utilizationEnergyOverdrawMaintenance 0
scalar OsgEarthNet.uav[30] utilizationCountMissions 338
scalar OsgEarthNet.uav[30] utilizationCountManeuversMission 5548
scalar OsgEarthNet.uav[30] utilizationCountManeuversMaintenance 676
scalar OsgEarthNet.uav[30] utilizationCountChargeState 338
scalar OsgEarthNet.uav[30] utilizationCountOverdrawnAfterMission 0
scalar OsgEarthNet.uav[30] utilizationCountIdleState 2
scalar OsgEarthNet.uav[30] utilizationFail 0
scalar OsgEarthNet.uav[30] simulationTime 1209600
scalar OsgEarthNet.uav[31] utilizationSecMission 205311.16116689
scalar OsgEarthNet.uav[31] utilizationSecMaintenance 94461.754216473
scalar OsgEarthNet.uav[31] utilizationSecCharge 909275.08261664
scalar OsgEarthNet.uav[31] utilizationSecIdle 552.001
scalar OsgEarthNet.uav[31] utilizationEnergyMission 992131.29935455
scalar OsgEarthNet.uav[31] utilizationEnergyMaintenance 441685.51054382
scalar OsgEarthNet.uav[31] utilizationEnergyCharge 1432699.2028809
scalar OsgEarthNet.uav[31] utilizationEnergyOverdrawMission 0
scalar OsgEarthNet.uav[31] utilizationEnergyOverdrawMaintenance 0
scalar OsgEarthNet.uav[31] utilizationCountMissions 326
scalar OsgEarthNet.uav[31] utilizationCountManeuversMission 6159
scalar OsgEarthNet.uav[31] utilizationCountManeuversMaintenance 652
scalar OsgEarthNet.uav[31] utilizationCountChargeState 326
scalar OsgEarthNet.uav[31] utilizationCountOverdrawnAfterMission 0
scalar OsgEarthNet.uav[31] utilizationCountIdleState 3
scalar OsgEarthNet.uav[31] utilizationFail 0
scalar OsgEarthNet.uav[31] simulationTime 1209600
scalar OsgEarthNet.uav[32] utilizationSecMission 185470.36050054
scalar OsgEarthNet.uav[32] utilizationSecMaintenance 112837.22651129
scalar OsgEarthNet.uav[32] utilizationSecCharge 909072.7809075
scalar OsgEarthNet.uav[32] utilizationSecIdle 2219.6310806652
scalar OsgEarthNet.uav[32] utilizationEnergyMission 901759.490242
scalar OsgEarthNet.uav[32] utilizationEnergyMaintenance 532380.44007874
scalar OsgEarthNet.uav[32] utilizationEnergyCharge 1429426.7615967
scalar OsgEarthNet.uav[32] utilizationEnergyOverdrawMission 0
scalar OsgEarthNet.uav[32] utilizationEnergyOverdrawMaintenance 0
scalar OsgEarthNet.uav[32] utilizationCountMissions 340
scalar OsgEarthNet.uav[32] utilizationCountManeuversMission 6037
scalar OsgEarthNet.uav[32] utilizationCountManeuversMaintenance 680
scalar OsgEarthNet.uav[32] utilizationCountChargeState 340
scalar OsgEarthNet.uav[32] utilizationCountOverdrawnAfterMission 0
scalar OsgEarthNet.uav[32] utilizationCountIdleState 3
scalar OsgEarthNet.uav[32] utilizationFail 0
scalar OsgEarthNet.uav[32] simulationTime 1209600
scalar OsgEarthNet.uav[33] utilizationSecMission 192268.18832316
scalar OsgEarthNet.uav[33] utilizationSecMaintenance 110660.90799227
scalar OsgEarthNet.uav[33] utilizationSecCharge 903650
scalar OsgEarthNet.uav[33] utilizationSecIdle 3020.9026845731
scalar OsgEarthNet.uav[33] utilizationEnergyMission 927668.75951595
scalar OsgEarthNet.uav[33] utilizationEnergyMaintenance 517974.19083786
scalar OsgEarthNet.uav[33] utilizationEnergyCharge 1442105.1137695
scalar OsgEarthNet.uav[33] utilizationEnergyOverdrawMission 0
scalar OsgEarthNet.uav[33] utilizationEnergyOverdrawMaintenance 0
scalar OsgEarthNet.uav[33] utilizationCountMissions 336
scalar OsgEarthNet.uav[33] utilizationCountManeuversMission 5917
scalar OsgEarthNet.uav[33] utilizationCountManeuversMaintenance 673
scalar OsgEarthNet.uav[33] utilizationCountChargeState 336
scalar OsgEarthNet.uav[33] utilizationCountOverdrawnAfterMission 0
scalar OsgEarthNet.uav[33] utilizationCountIdleState 2
scalar OsgEarthNet.uav[33] utilizationFail 0
scalar OsgEarthNet.uav[33] simulationTime 1209600
scalar OsgEarthNet.uav[34] utilizationSecMission 195147.80395467
scalar OsgEarthNet.uav[34] utilizationSecMaintenance 105086.12883934
scalar OsgEarthNet.uav[34] utilizationSecCharge 908474.06469926
scalar OsgEarthNet.uav[34] utilizationSecIdle 892.00150672213
scalar OsgEarthNet.uav[34] utilizationEnergyMission 951447.15246582
scalar OsgEarthNet.uav[34] utilizationEnergyMaintenance 492045.40243149
scalar OsgEarthNet.uav[34] utilizationEnergyCharge 1439427.1379395
scalar OsgEarthNet.uav[34] utilizationEnergyOverdrawMission 0
scalar OsgEarthNet.uav[34] utilizationEnergyOverdrawMaintenance 0
scalar OsgEarthNet.uav[34] utilizationCountMissions 332
scalar OsgEarthNet.uav[34] utilizationCountManeuversMission 6706
scalar OsgEarthNet.uav[34] utilizationCountManeuversMaintenance 664
scalar OsgEarthNet.uav[34] utilizationCountChargeState 332
scalar OsgEarthNet.uav[34] utilizationCountOverdrawnAfterMission 0
scalar OsgEarthNet.uav[34] utilizationCountIdleState 1
scalar OsgEarthNet.uav[34] utilizationFail 0
scalar OsgEarthNet.uav[34] simulationTime 1209600
scalar OsgEarthNet.uav[35] utilizationSecMission 201109.51511511
scalar OsgEarthNet.uav[35] utilizationSecMaintenance 101979.19161421
scalar OsgEarthNet.uav[35] utilizationSecCharge 905869.29127068
scalar OsgEarthNet.uav[35] utilizationSecIdle 642.001
scalar OsgEarthNet.uav[35] utilizationEnergyMission 975122.54686356
scalar OsgEarthNet.uav[35] utilizationEnergyMaintenance 476128.27545166
scalar OsgEarthNet.uav[35] utilizationEnergyCharge 1452095.0668945
scalar OsgEarthNet.uav[35] utilizationEnergyOverdrawMission 0
scalar OsgEarthNet.uav[35] utilizationEnergyOverdrawMaintenance 0
scalar OsgEarthNet.uav[35] utilizationCountMissions 331
scalar OsgEarthNet.uav[35] utilizationCountManeuversMission 6422
scalar OsgEarthNet.uav[35] utilizationCountManeuversMaintenance 662
scalar OsgEarthNet.uav[35] utilizationCountChargeState 331
scalar OsgEarthNet.uav[35] utilizationCountOverdrawnAfterMission 0
scalar OsgEarthNet.uav[35] utilizationCountIdleState 1
scalar OsgEarthNet.uav[35] utilizationFail 0
scalar OsgEarthNet.uav[35] simulationTime 1209600
scalar OsgEarthNet.uav[36] utilizationSecMission 195845.44113663
scalar OsgEarthNet.uav[36] utilizationSecMaintenance 100122.49343871
scalar OsgEarthNet.uav[36] utilizationSecCharge 911306.16974566
scalar OsgEarthNet.uav[36] utilizationSecIdle 2325.8946789918
scalar OsgEarthNet.uav[36] utilizationEnergyMission 946434.97743225
scalar OsgEarthNet.uav[36] utilizationEnergyMaintenance 470697.83509827
scalar OsgEarthNet.uav[36] utilizationEnergyCharge 1414915.8061523
scalar OsgEarthNet.uav[36] utilizationEnergyOverdrawMission 0
scalar OsgEarthNet.uav[36] utilizationEnergyOverdrawMaintenance 35.196453094482
scalar OsgEarthNet.uav[36] utilizationCountMissions 332
scalar OsgEarthNet.uav[36] utilizationCountManeuversMission 5786
scalar OsgEarthNet.uav[36] utilizationCountManeuversMaintenance 664
scalar OsgEarthNet.uav[36] utilizationCountChargeState 332
scalar OsgEarthNet.uav[36] utilizationCountOverdrawnAfterMission 1
scalar OsgEarthNet.uav[36] utilizationCountIdleState 1
scalar OsgEarthNet.uav[36] utilizationFail 0
scalar OsgEarthNet.uav[36] simulationTime 1209600
scalar OsgEarthNet.uav[37] utilizationSecMission 196830.26382325
scalar OsgEarthNet.uav[37] utilizationSecMaintenance 101922.38246103
scalar OsgEarthNet.uav[37] utilizationSecCharge 908535.34871572
scalar OsgEarthNet.uav[37] utilizationSecIdle 2312.004
scalar OsgEarthNet.uav[37] utilizationEnergyMission 957747.51383972
scalar OsgEarthNet.uav[37] utilizationEnergyMaintenance 472033.51418686
scalar OsgEarthNet.uav[37] utilizationEnergyCharge 1424829.3188477
scalar OsgEarthNet.uav[37] utilizationEnergyOverdrawMission 0
scalar OsgEarthNet.uav[37] utilizationEnergyOverdrawMaintenance 0
scalar OsgEarthNet.uav[37] utilizationCountMissions 335
scalar OsgEarthNet.uav[37] utilizationCountManeuversMission 6271
scalar OsgEarthNet.uav[37] utilizationCountManeuversMaintenance 670
scalar OsgEarthNet.uav[37] utilizationCountChargeState 335
scalar OsgEarthNet.uav[37] utilizationCountOverdrawnAfterMission 0
scalar OsgEarthNet.uav[37] utilizationCountIdleState 3
scalar OsgEarthNet.uav[37] utilizationFail 0
scalar OsgEarthNet.uav[37] simulationTime 1209600
scalar OsgEarthNet.uav[38] utilizationSecMission 186984.53334053
scalar OsgEarthNet.uav[38] utilizationSecMaintenance 116528.53889155
scalar OsgEarthNet.uav[38] utilizationSecCharge 905397.707154
scalar OsgEarthNet.uav[38] utilizationSecIdle 689.21961391566
scalar OsgEarthNet.uav[38] utilizationEnergyMission 903340.38805389
scalar OsgEarthNet.uav[38] utilizationEnergyMaintenance 550573.66661835
scalar OsgEarthNet.uav[38] utilizationEnergyCharge 1451773.5668945
scalar OsgEarthNet.uav[38] utilizationEnergyOverdrawMission 0
scalar OsgEarthNet.uav[38] utilizationEnergyOverdrawMaintenance 0
scalar OsgEarthNet.uav[38] utilizationCountMissions 343
scalar OsgEarthNet.uav[38] utilizationCountManeuversMission 5926
scalar OsgEarthNet.uav[38] utilizationCountManeuversMaintenance 686
scalar OsgEarthNet.uav[38] utilizationCountChargeState 343
scalar OsgEarthNet.uav[38] utilizationCountOverdrawnAfterMission 0
scalar OsgEarthNet.uav[38] utilizationCountIdleState 1
scalar OsgEarthNet.uav[38] utilizationFail 0
scalar OsgEarthNet.uav[38] simulationTime 1209600
scalar OsgEarthNet.uav[39] utilizationSecMission 185298.27767931
scalar OsgEarthNet.uav[39] utilizationSecMaintenance 113555.71594948
scalar OsgEarthNet.uav[39] utilizationSecCharge 909834.49171025
scalar OsgEarthNet.uav[39] utilizationSecIdle 911.51366094966
scalar OsgEarthNet.uav[39] utilizationEnergyMission 899299.54596329
scalar OsgEarthNet.uav[39] utilizationEnergyMaintenance 535661.72408295
scalar OsgEarthNet.uav[39] utilizationEnergyCharge 1430400.4472656
scalar OsgEarthNet.uav[39] utilizationEnergyOverdrawMission 0
scalar OsgEarthNet.uav[39] utilizationEnergyOverdrawMaintenance 0
scalar OsgEarthNet.uav[39] utilizationCountMissions 342
scalar OsgEarthNet.uav[39] utilizationCountManeuversMission 5857
scalar OsgEarthNet.uav[39] utilizationCountManeuversMaintenance 684
scalar OsgEarthNet.uav[39] utilizationCountChargeState 342
scalar OsgEarthNet.uav[39] utilizationCountOverdrawnAfterMission 0
scalar OsgEarthNet.uav[39] utilizationCountIdleState 2
scalar OsgEarthNet.uav[39] utilizationFail 0
scalar OsgEarthNet.uav[39] simulationTime 1209600
scalar OsgEarthNet.uav[40] utilizationSecMission 188342.26773539
scalar OsgEarthNet.uav[40] utilizationSecMaintenance 113451.85121942
scalar OsgEarthNet.uav[40] utilizationSecCharge 907343.8790452
scalar OsgEarthNet.uav[40] utilizationSecIdle 462.001
scalar OsgEarthNet.uav[40] utilizationEnergyMission 913435.86524582
scalar OsgEarthNet.uav[40] utilizationEnergyMaintenance 535382.4237175
scalar OsgEarthNet.uav[40] utilizationEnergyCharge 1443547.1096802
scalar OsgEarthNet.uav[40] utilizationEnergyOverdrawMission 0
scalar OsgEarthNet.uav[40] utilizationEnergyOverdrawMaintenance 0
scalar OsgEarthNet.uav[40] utilizationCountMissions 340
scalar OsgEarthNet.uav[40] utilizationCountManeuversMission 5803
scalar OsgEarthNet.uav[40] utilizationCountManeuversMaintenance 680
scalar OsgEarthNet.uav[40] utilizationCountChargeState 340
scalar OsgEarthNet.uav[40] utilizationCountOverdrawnAfterMission 0
scalar OsgEarthNet.uav[40] utilizationCountIdleState 1
scalar OsgEarthNet.uav[40] utilizationFail 0
scalar OsgEarthNet.uav[40] simulationTime 1209600
scalar OsgEarthNet.uav[41] utilizationSecMission 191822.61545342
scalar OsgEarthNet.uav[41] utilizationSecMaintenance 102969.11974033
scalar OsgEarthNet.uav[41] utilizationSecCharge 912810.26395558
scalar OsgEarthNet.uav[41] utilizationSecIdle 1997.9998506628
scalar OsgEarthNet.uav[41] utilizationEnergyMission 925926.79344177
scalar OsgEarthNet.uav[41] utilizationEnergyMaintenance 483081.96104813
scalar OsgEarthNet.uav[41] utilizationEnergyCharge 1413374.699707
scalar OsgEarthNet.uav[41] utilizationEnergyOverdrawMission 0
scalar OsgEarthNet.uav[41] utilizationEnergyOverdrawMaintenance 0
scalar OsgEarthNet.uav[41] utilizationCountMissions 332
scalar OsgEarthNet.uav[41] utilizationCountManeuversMission 6130
scalar OsgEarthNet.uav[41] utilizationCountManeuversMaintenance 664
scalar OsgEarthNet.uav[41] utilizationCountChargeState 332
scalar OsgEarthNet.uav[41] utilizationCountOverdrawnAfterMission 0
scalar OsgEarthNet.uav[41] utilizationCountIdleState 1
scalar OsgEarthNet.uav[41] utilizationFail 0
scalar OsgEarthNet.uav[41] simulationTime 1209600
scalar OsgEarthNet.uav[42] utilizationSecMission 193790.25400413
scalar OsgEarthNet.uav[42] utilizationSecMaintenance 106343.53851872
scalar OsgEarthNet.uav[42] utilizationSecCharge 908698.75621311
scalar OsgEarthNet.uav[42] utilizationSecIdle 767.4502640309
scalar OsgEarthNet.uav[42] utilizationEnergyMission 938658.8535614
scalar OsgEarthNet.uav[42] utilizationEnergyMaintenance 499372.02385712
scalar OsgEarthNet.uav[42] utilizationEnergyCharge 1435957.0073853
scalar OsgEarthNet.uav[42] utilizationEnergyOverdrawMission 0
scalar OsgEarthNet.uav[42] utilizationEnergyOverdrawMaintenance 0
scalar OsgEarthNet.uav[42] utilizationCountMissions 337
scalar OsgEarthNet.uav[42] utilizationCountManeuversMission 5889
scalar OsgEarthNet.uav[42] utilizationCountManeuversMaintenance 674
scalar OsgEarthNet.uav[42] utilizationCountChargeState 337
scalar OsgEarthNet.uav[42] utilizationCountOverdrawnAfterMission 0
scalar OsgEarthNet.uav[42] utilizationCountIdleState 1
scalar OsgEarthNet.uav[42] utilizationFail 0
scalar OsgEarthNet.uav[42] simulationTime 1209600
scalar OsgEarthNet.uav[43] utilizationSecMission 182938.11992314
scalar OsgEarthNet.uav[43] utilizationSecMaintenance 111859.87307686
scalar OsgEarthNet.uav[43] utilizationSecCharge 912030
scalar OsgEarthNet.uav[43] utilizationSecIdle 2772.006
scalar OsgEarthNet.uav[43] utilizationEnergyMission 878800.2019577
scalar OsgEarthNet.uav[43] utilizationEnergyMaintenance 531897.20485899
scalar OsgEarthNet.uav[43] utilizationEnergyCharge 1413906.6987305
scalar OsgEarthNet.uav[43] utilizationEnergyOverdrawMission 0
scalar OsgEarthNet.uav[43] utilizationEnergyOverdrawMaintenance 0
scalar OsgEarthNet.uav[43] utilizationCountMissions 341
scalar OsgEarthNet.uav[43] utilizationCountManeuversMission 5400
scalar OsgEarthNet.uav[43] utilizationCountManeuversMaintenance 683
scalar OsgEarthNet.uav[43] utilizationCountChargeState 341
scalar OsgEarthNet.uav[43] utilizationCountOverdrawnAfterMission 0
scalar OsgEarthNet.uav[43] utilizationCountIdleState 3
scalar OsgEarthNet.uav[43] utilizationFail 0
scalar OsgEarthNet.uav[43] simulationTime 1209600
scalar OsgEarthNet.uav[44] utilizationSecMission 184840.63946108
scalar OsgEarthNet.uav[44] utilizationSecMaintenance 119188.21048301
scalar OsgEarthNet.uav[44] utilizationSecCharge 903005.70596722
scalar OsgEarthNet.uav[44] utilizationSecIdle 2565.443088691
scalar OsgEarthNet.uav[44] utilizationEnergyMission 904245.00102234
scalar OsgEarthNet.uav[44] utilizationEnergyMaintenance 561103.88208008
scalar OsgEarthNet.uav[44] utilizationEnergyCharge 1466362.7370605
scalar OsgEarthNet.uav[44] utilizationEnergyOverdrawMission 0
scalar OsgEarthNet.uav[44] utilizationEnergyOverdrawMaintenance 0
scalar OsgEarthNet.uav[44] utilizationCountMissions 342
scalar OsgEarthNet.uav[44] utilizationCountManeuversMission 6195
scalar OsgEarthNet.uav[44] utilizationCountManeuversMaintenance 684
scalar OsgEarthNet.uav[44] utilizationCountChargeState 342
scalar OsgEarthNet.uav[44] utilizationCountOverdrawnAfterMission 0
scalar OsgEarthNet.uav[44] utilizationCountIdleState 1
scalar OsgEarthNet.uav[44] utilizationFail 0
scalar OsgEarthNet.uav[44] simulationTime 1209600
scalar OsgEarthNet.uav[45] utilizationSecMission 190775.36327506
scalar OsgEarthNet.uav[45] utilizationSecMaintenance 107606.2532399
scalar OsgEarthNet.uav[45] utilizationSecCharge 909636.37948504
scalar OsgEarthNet.uav[45] utilizationSecIdle 1582.003
scalar OsgEarthNet.uav[45] utilizationEnergyMission 918081.05500031
scalar OsgEarthNet.uav[45] utilizationEnergyMaintenance 506404.81716537
scalar OsgEarthNet.uav[45] utilizationEnergyCharge 1423279.4333496
scalar OsgEarthNet.uav[45] utilizationEnergyOverdrawMission 0
scalar OsgEarthNet.uav[45] utilizationEnergyOverdrawMaintenance 0
scalar OsgEarthNet.uav[45] utilizationCountMissions 337
scalar OsgEarthNet.uav[45] utilizationCountManeuversMission 5529
scalar OsgEarthNet.uav[45] utilizationCountManeuversMaintenance 674
scalar OsgEarthNet.uav[45] utilizationCountChargeState 337
scalar OsgEarthNet.uav[45] utilizationCountOverdrawnAfterMission 0
scalar OsgEarthNet.uav[45] utilizationCountIdleState 4
scalar OsgEarthNet.uav[45] utilizationFail 0
scalar OsgEarthNet.uav[45] simulationTime 1209600
scalar OsgEarthNet.uav[46] utilizationSecMission 186994.82526129
scalar OsgEarthNet.uav[46] utilizationSecMaintenance 106973.16873871
scalar OsgEarthNet.uav[46] utilizationSecCharge 913350
scalar OsgEarthNet.uav[46] utilizationSecIdle 2282.005
scalar OsgEarthNet.uav[46] utilizationEnergyMission 904450.18909081
scalar OsgEarthNet.uav[46] utilizationEnergyMaintenance 505477.70944214
scalar OsgEarthNet.uav[46] utilizationEnergyCharge 1409174.0983887
scalar OsgEarthNet.uav[46] utilizationEnergyOverdrawMission 0
scalar OsgEarthNet.uav[46] utilizationEnergyOverdrawMaintenance 0
scalar OsgEarthNet.uav[46] utilizationCountMissions 338
scalar OsgEarthNet.uav[46] utilizationCountManeuversMission 5618
scalar OsgEarthNet.uav[46] utilizationCountManeuversMaintenance 677
scalar OsgEarthNet.uav[46] utilizationCountChargeState 338
scalar OsgEarthNet.uav[46] utilizationCountOverdrawnAfterMission 0
scalar OsgEarthNet.uav[46] utilizationCountIdleState 1
scalar OsgEarthNet.uav[46] utilizationFail 0
scalar OsgEarthNet.uav[46] simulationTime 1209600
scalar OsgEarthNet.uav[47] utilizationSecMission 186938.40682782
scalar OsgEarthNet.uav[47] utilizationSecMaintenance 105516.98028267
scalar OsgEarthNet.uav[47] utilizationSecCharge 916500
scalar OsgEarthNet.uav[47] utilizationSecIdle 644.61188951643
scalar OsgEarthNet.uav[47] utilizationEnergyMission 917034.88667297
scalar OsgEarthNet.uav[47] utilizationEnergyMaintenance 496042.21311643
scalar OsgEarthNet.uav[47] utilizationEnergyCharge 1407201.5197754
scalar OsgEarthNet.uav[47] utilizationEnergyOverdrawMission 0
scalar OsgEarthNet.uav[47] utilizationEnergyOverdrawMaintenance 0
scalar OsgEarthNet.uav[47] utilizationCountMissions 337
scalar OsgEarthNet.uav[47] utilizationCountManeuversMission 6151
scalar OsgEarthNet.uav[47] utilizationCountManeuversMaintenance 674
scalar OsgEarthNet.uav[47] utilizationCountChargeState 336
scalar OsgEarthNet.uav[47] utilizationCountOverdrawnAfterMission 0
scalar OsgEarthNet.uav[47] utilizationCountIdleState 3
scalar OsgEarthNet.uav[47] utilizationFail 0
scalar OsgEarthNet.uav[47] simulationTime 1209600
scalar OsgEarthNet.uav[48] utilizationSecMission 201641.94892711
scalar OsgEarthNet.uav[48] utilizationSecMaintenance 98958.874962483
scalar OsgEarthNet.uav[48] utilizationSecCharge 908010
scalar OsgEarthNet.uav[48] utilizationSecIdle 989.17511041073
scalar OsgEarthNet.uav[48] utilizationEnergyMission 980312.65329649
scalar OsgEarthNet.uav[48] utilizationEnergyMaintenance 459760.85311127
scalar OsgEarthNet.uav[48] utilizationEnergyCharge 1437101.2502441
scalar OsgEarthNet.uav[48] utilizationEnergyOverdrawMission 0
scalar OsgEarthNet.uav[48] utilizationEnergyOverdrawMaintenance 0
scalar OsgEarthNet.uav[48] utilizationCountMissions 330
scalar OsgEarthNet.uav[48] utilizationCountManeuversMission 6283
scalar OsgEarthNet.uav[48] utilizationCountManeuversMaintenance 661
scalar OsgEarthNet.uav[48] utilizationCountChargeState 330
scalar OsgEarthNet.uav[48] utilizationCountOverdrawnAfterMission 0
scalar OsgEarthNet.uav[48] utilizationCountIdleState 3
scalar OsgEarthNet.uav[48] utilizationFail 0
scalar OsgEarthNet.uav[48] simulationTime 1209600
scalar OsgEarthNet.uav[49] utilizationSecMission 182965.3974266
scalar OsgEarthNet.uav[49] utilizationSecMaintenance 111622.37131936
scalar OsgEarthNet.uav[49] utilizationSecCharge 915000.23025404
scalar OsgEarthNet.uav[49] utilizationSecIdle 12
scalar OsgEarthNet.uav[49] utilizationEnergyMission 889634.97079086
scalar OsgEarthNet.uav[49] utilizationEnergyMaintenance 528534.52648926
scalar OsgEarthNet.uav[49] utilizationEnergyCharge 1408616.5969238
scalar OsgEarthNet.uav[49] utilizationEnergyOverdrawMission 0
scalar OsgEarthNet.uav[49] utilizationEnergyOverdrawMaintenance 0
scalar OsgEarthNet.uav[49] utilizationCountMissions 341
scalar OsgEarthNet.uav[49] utilizationCountManeuversMission 5589
scalar OsgEarthNet.uav[49] utilizationCountManeuversMaintenance 681
scalar OsgEarthNet.uav[49] utilizationCountChargeState 341
scalar OsgEarthNet.uav[49] utilizationCountOverdrawnAfterMission 0
scalar OsgEarthNet.uav[49] utilizationCountIdleState 2
scalar OsgEarthNet.uav[49] utilizationFail 0
scalar OsgEarthNet.uav[49] simulationTime 1209600
scalar OsgEarthNet.uav[50] utilizationSecMission 186140.26346196
scalar OsgEarthNet.uav[50] utilizationSecMaintenance 105817.73353804
scalar OsgEarthNet.uav[50] utilizationSecCharge 916740
scalar OsgEarthNet.uav[50] utilizationSecIdle 902.002
scalar OsgEarthNet.uav[50] utilizationEnergyMission 900826.24694443
scalar OsgEarthNet.uav[50] utilizationEnergyMaintenance 500864.77505168
scalar OsgEarthNet.uav[50] utilizationEnergyCharge 1395273.1533203
scalar OsgEarthNet.uav[50] utilizationEnergyOverdrawMission 0
scalar OsgEarthNet.uav[50] utilizationEnergyOverdrawMaintenance 0
scalar OsgEarthNet.uav[50] utilizationCountMissions 339
scalar OsgEarthNet.uav[50] utilizationCountManeuversMission 5438
scalar OsgEarthNet.uav[50] utilizationCountManeuversMaintenance 678
scalar OsgEarthNet.uav[50] utilizationCountChargeState 338
scalar OsgEarthNet.uav[50] utilizationCountOverdrawnAfterMission 0
scalar OsgEarthNet.uav[50] utilizationCountIdleState 1
scalar OsgEarthNet.uav[50] utilizationFail 0
scalar OsgEarthNet.uav[50] simulationTime 1209600
scalar OsgEarthNet.uav[51] utilizationSecMission 189591.7553699
scalar OsgEarthNet.uav[51] utilizationSecMaintenance 111730.13888648
scalar OsgEarthNet.uav[51] utilizationSecCharge 908276.10474362
scalar OsgEarthNet.uav[51] utilizationSecIdle 2
scalar OsgEarthNet.uav[51] utilizationEnergyMission 933730.22288132
scalar OsgEarthNet.uav[51] utilizationEnergyMaintenance 524399.60827637
scalar OsgEarthNet.uav[51] utilizationEnergyCharge 1452505.8100586
scalar OsgEarthNet.uav[51] utilizationEnergyOverdrawMission 0
scalar OsgEarthNet.uav[51] utilizationEnergyOverdrawMaintenance 0
scalar OsgEarthNet.uav[51] utilizationCountMissions 336
scalar OsgEarthNet.uav[51] utilizationCountManeuversMission 6646
scalar OsgEarthNet.uav[51] utilizationCountManeuversMaintenance 671
scalar OsgEarthNet.uav[51] utilizationCountChargeState 336
scalar OsgEarthNet.uav[51] utilizationCountOverdrawnAfterMission 0
scalar OsgEarthNet.uav[51] utilizationCountIdleState 1
scalar OsgEarthNet.uav[51] utilizationFail 0
scalar OsgEarthNet.uav[51] simulationTime 1209600
scalar OsgEarthNet.uav[52] utilizationSecMission 192885.06438386
scalar OsgEarthNet.uav[52] utilizationSecMaintenance 104187.64868983
scalar OsgEarthNet.uav[52] utilizationSecCharge 912525.28592631
scalar OsgEarthNet.uav[52] utilizationSecIdle 2
scalar OsgEarthNet.uav[52] utilizationEnergyMission 936443.0752182
scalar OsgEarthNet.uav[52] utilizationEnergyMaintenance 489231.97606277
scalar OsgEarthNet.uav[52] utilizationEnergyCharge 1421367.2567139
scalar OsgEarthNet.uav[52] utilizationEnergyOverdrawMission 0
scalar OsgEarthNet.uav[52] utilizationEnergyOverdrawMaintenance 0
scalar OsgEarthNet.uav[52] utilizationCountMissions 335
scalar OsgEarthNet.uav[52] utilizationCountManeuversMission 6159
scalar OsgEarthNet.uav[52] utilizationCountManeuversMaintenance 670
scalar OsgEarthNet.uav[52] utilizationCountChargeState 335
scalar OsgEarthNet.uav[52] utilizationCountOverdrawnAfterMission 0
scalar OsgEarthNet.uav[52] utilizationCountIdleState 1
scalar OsgEarthNet.uav[52] utilizationFail 0
scalar OsgEarthNet.uav[52] simulationTime 1209600
scalar OsgEarthNet.uav[53] utilizationSecMission 198377.257061
scalar OsgEarthNet.uav[53] utilizationSecMaintenance 99586.665499151
scalar OsgEarthNet.uav[53] utilizationSecCharge 908161.91266694
scalar OsgEarthNet.uav[53] utilizationSecIdle 3474.1637729077
scalar OsgEarthNet.uav[53] utilizationEnergyMission 960028.77708817
scalar OsgEarthNet.uav[53] utilizationEnergyMaintenance 465318.68645859
scalar OsgEarthNet.uav[53] utilizationEnergyCharge 1425017.5698242
scalar OsgEarthNet.uav[53] utilizationEnergyOverdrawMission 0
scalar OsgEarthNet.uav[53] utilizationEnergyOverdrawMaintenance 0
scalar OsgEarthNet.uav[53] utilizationCountMissions 330
scalar OsgEarthNet.uav[53] utilizationCountManeuversMission 6177
scalar OsgEarthNet.uav[53] utilizationCountManeuversMaintenance 660
scalar OsgEarthNet.uav[53] utilizationCountChargeState 330
scalar OsgEarthNet.uav[53] utilizationCountOverdrawnAfterMission 0
scalar OsgEarthNet.uav[53] utilizationCountIdleState 1
scalar OsgEarthNet.uav[53] utilizationFail 0
scalar OsgEarthNet.uav[53] simulationTime 1209600
scalar OsgEarthNet.uav[54] utilizationSecMission 185081.75597283
scalar OsgEarthNet.uav[54] utilizationSecMaintenance 112478.24944508
scalar OsgEarthNet.uav[54] utilizationSecCharge 909622.67750026
scalar OsgEarthNet.uav[54] utilizationSecIdle 2417.3160818306
scalar OsgEarthNet.uav[54] utilizationEnergyMission 901924.18323135
scalar OsgEarthNet.uav[54] utilizationEnergyMaintenance 527862.40845489
scalar OsgEarthNet.uav[54] utilizationEnergyCharge 1426936.3034668
scalar OsgEarthNet.uav[54] utilizationEnergyOverdrawMission 0
scalar OsgEarthNet.uav[54] utilizationEnergyOverdrawMaintenance 0
scalar OsgEarthNet.uav[54] utilizationCountMissions 341
scalar OsgEarthNet.uav[54] utilizationCountManeuversMission 5941
scalar OsgEarthNet.uav[54] utilizationCountManeuversMaintenance 682
scalar OsgEarthNet.uav[54] utilizationCountChargeState 341
scalar OsgEarthNet.uav[54] utilizationCountOverdrawnAfterMission 0
scalar OsgEarthNet.uav[54] utilizationCountIdleState 1
scalar OsgEarthNet.uav[54] utilizationFail 0
scalar OsgEarthNet.uav[54] simulationTime 1209600
scalar OsgEarthNet.uav[55] utilizationSecMission 182562.37394708
scalar OsgEarthNet.uav[55] utilizationSecMaintenance 109425.16753994
scalar OsgEarthNet.uav[55] utilizationSecCharge 916109.75484526
scalar OsgEarthNet.uav[55] utilizationSecIdle 1502.7026677176
scalar OsgEarthNet.uav[55] utilizationEnergyMission 874636.27746582
scalar OsgEarthNet.uav[55] utilizationEnergyMaintenance 520872.17393112
scalar OsgEarthNet.uav[55] utilizationEnergyCharge 1402008.8205566
scalar OsgEarthNet.uav[55] utilizationEnergyOverdrawMission 0
scalar OsgEarthNet.uav[55] utilizationEnergyOverdrawMaintenance 0
scalar OsgEarthNet.uav[55] utilizationCountMissions 341
scalar OsgEarthNet.uav[55] utilizationCountManeuversMission 5394
scalar OsgEarthNet.uav[55] utilizationCountManeuversMaintenance 682
scalar OsgEarthNet.uav[55] utilizationCountChargeState 341
scalar OsgEarthNet.uav[55] utilizationCountOverdrawnAfterMission 0
scalar OsgEarthNet.uav[55] utilizationCountIdleState 1
scalar OsgEarthNet.uav[55] utilizationFail 0
scalar OsgEarthNet.uav[55] simulationTime 1209600
scalar OsgEarthNet.cs[0] usedPower 19727800.253963
scalar OsgEarthNet.cs[0] chargedPower 19727800.253963
scalar OsgEarthNet.cs[0] chargedMobileNodes 3
scalar OsgEarthNet.cs[0] reservations 4626
scalar OsgEarthNet.cs[1] usedPower 25686923.387189
scalar OsgEarthNet.cs[1] chargedPower 25686923.387189
scalar OsgEarthNet.cs[1] chargedMobileNodes 33
scalar OsgEarthNet.cs[1] reservations 6379
scalar OsgEarthNet.cs[2] usedPower 34504938.642111
scalar OsgEarthNet.cs[2] chargedPower 34504938.642111
scalar OsgEarthNet.cs[2] chargedMobileNodes 7
scalar OsgEarthNet.cs[2] reservations 7745

