version 2
run Szenario_Hotel_Gabelbach-65-20180709-02:09:38-28220
attr configname Szenario_Hotel_Gabelbach
attr datetime 20180709-02:09:38
attr experiment Szenario_Hotel_Gabelbach
attr inifile omnetpp.ini
attr iterationvars $replM=2
attr iterationvarsf replM=2-
attr measurement $replM=2
attr network OsgEarthNet
attr processid 28220
attr repetition 17
attr replication #17
attr resultdir results
attr runnumber 65
attr seedset 65
itervar replM 2
param *.osgEarthScene.scene "\"Szenario_Hotel_Gabelbach.earth\""
param *.playgroundLatitude 50.6830269
param *.playgroundLongitude 10.8538055
param *.playgroundWidth 3500m
param *.playgroundHeight 3500m
param *.numUAVs 100
param *.cs[0].posX 3537m
param *.cs[0].posY 965m
param *.cs[0].posZ 538m
param *.cs[1].posX 312m
param *.cs[1].posY 1262m
param *.cs[1].posZ 539m
param *.cs[2].posX 2185m
param *.cs[2].posY 3026m
param *.cs[2].posZ 777m
param *.cs[3].posX 10m
param *.cs[3].posY 2200m
param *.cs[3].posZ 560m
param *.cs[4].posX 750m
param *.cs[4].posY 200m
param *.cs[4].posZ 540m
param *.cs[5].posX 2450m
param *.cs[5].posY 180m
param *.cs[5].posZ 524m
param *.cs[6].posX 3140m
param *.cs[6].posY 1790m
param *.cs[6].posZ 606m
param *.numCSs 7
param *.uav[*].replacementMethod 2
param *.*.timeStep 10s
param *.uav[*].commandPreviewCommandCount 20
param *.missionControl.missionFiles "\"missions\\\\Szenario_WB_Hotel_Gabelbach_Mission_Hotel.waypoints,missions\\\\Szenario_WB_Hotel_Gabelbach_Mission_Kickelhahn.waypoints,missions\\\\Szenario_WB_Hotel_Gabelbach_Mission_Ilmenau_Sportplatz.waypoints,missions\\\\Szenario_WB_Hotel_Gabelbach_Mission_Manebach_Mitte.waypoints,missions\\\\Szenario_WB_Hotel_Gabelbach_Mission_Manebach_Sued.waypoints\""
param *.missionControl.missionFiles "\"missions\\\\Szenario_WB_Hotel_Gabelbach_Mission_Hotel.waypoints,missions\\\\Szenario_WB_Hotel_Gabelbach_Mission_Kickelhahn.waypoints,missions\\\\Szenario_WB_Hotel_Gabelbach_Mission_Ilmenau_Sportplatz.waypoints,missions\\\\Szenario_WB_Hotel_Gabelbach_Mission_Manebach_Mitte.waypoints,missions\\\\Szenario_WB_Hotel_Gabelbach_Mission_Manebach_Sued.waypoints,missions\\\\Szenario_WB_Hotel_Gabelbach_Hover_HoheSchlaufe.waypoints,missions\\\\Szenario_WB_Hotel_Gabelbach_Hover_Kickelhahn.waypoints,missions\\\\Szenario_WB_Hotel_Gabelbach_Hover_Gabelbachskopf.waypoints,missions\\\\Szenario_WB_Hotel_Gabelbach_Hover_Dachskopf.waypoints\""
param *.uav[0].startX 3537m
param *.uav[0].startY 965m
param *.uav[0].startZ 539m
param *.uav[1].startX 312m
param *.uav[1].startY 1262m
param *.uav[1].startZ 540m
param *.uav[2].startX 2185m
param *.uav[2].startY 3026m
param *.uav[2].startZ 778m
param *.uav[3].startX 3537m
param *.uav[3].startY 965m
param *.uav[3].startZ 539m
param *.uav[4].startX 312m
param *.uav[4].startY 1262m
param *.uav[4].startZ 540m
param *.uav[5].startX 2185m
param *.uav[5].startY 3026m
param *.uav[5].startZ 778m
param *.uav[6].startX 3537m
param *.uav[6].startY 965m
param *.uav[6].startZ 539m
param *.uav[7].startX 312m
param *.uav[7].startY 1262m
param *.uav[7].startZ 540m
param *.uav[8].startX 2185m
param *.uav[8].startY 3026m
param *.uav[8].startZ 778m
param *.uav[9].startX 3537m
param *.uav[9].startY 965m
param *.uav[9].startZ 539m
param *.uav[10].startX 3537m
param *.uav[10].startY 965m
param *.uav[10].startZ 539m
param *.uav[11].startX 312m
param *.uav[11].startY 1262m
param *.uav[11].startZ 540m
param *.uav[12].startX 2185m
param *.uav[12].startY 3026m
param *.uav[12].startZ 778m
param *.uav[13].startX 3537m
param *.uav[13].startY 965m
param *.uav[13].startZ 539m
param *.uav[14].startX 312m
param *.uav[14].startY 1262m
param *.uav[14].startZ 540m
param *.uav[15].startX 2185m
param *.uav[15].startY 3026m
param *.uav[15].startZ 778m
param *.uav[16].startX 3537m
param *.uav[16].startY 965m
param *.uav[16].startZ 539m
param *.uav[17].startX 312m
param *.uav[17].startY 1262m
param *.uav[17].startZ 540m
param *.uav[18].startX 2185m
param *.uav[18].startY 3026m
param *.uav[18].startZ 778m
param *.uav[19].startX 3537m
param *.uav[19].startY 965m
param *.uav[19].startZ 539m
param *.uav[20].startX 3537m
param *.uav[20].startY 965m
param *.uav[20].startZ 539m
param *.uav[21].startX 312m
param *.uav[21].startY 1262m
param *.uav[21].startZ 540m
param *.uav[22].startX 2185m
param *.uav[22].startY 3026m
param *.uav[22].startZ 778m
param *.uav[23].startX 3537m
param *.uav[23].startY 965m
param *.uav[23].startZ 539m
param *.uav[24].startX 312m
param *.uav[24].startY 1262m
param *.uav[24].startZ 540m
param *.uav[25].startX 2185m
param *.uav[25].startY 3026m
param *.uav[25].startZ 778m
param *.uav[26].startX 3537m
param *.uav[26].startY 965m
param *.uav[26].startZ 539m
param *.uav[27].startX 312m
param *.uav[27].startY 1262m
param *.uav[27].startZ 540m
param *.uav[28].startX 2185m
param *.uav[28].startY 3026m
param *.uav[28].startZ 778m
param *.uav[29].startX 3537m
param *.uav[29].startY 965m
param *.uav[29].startZ 539m
param *.uav[30].startX 3537m
param *.uav[30].startY 965m
param *.uav[30].startZ 539m
param *.uav[31].startX 312m
param *.uav[31].startY 1262m
param *.uav[31].startZ 540m
param *.uav[32].startX 2185m
param *.uav[32].startY 3026m
param *.uav[32].startZ 778m
param *.uav[33].startX 3537m
param *.uav[33].startY 965m
param *.uav[33].startZ 539m
param *.uav[34].startX 312m
param *.uav[34].startY 1262m
param *.uav[34].startZ 540m
param *.uav[35].startX 2185m
param *.uav[35].startY 3026m
param *.uav[35].startZ 778m
param *.uav[36].startX 3537m
param *.uav[36].startY 965m
param *.uav[36].startZ 539m
param *.uav[37].startX 312m
param *.uav[37].startY 1262m
param *.uav[37].startZ 540m
param *.uav[38].startX 2185m
param *.uav[38].startY 3026m
param *.uav[38].startZ 778m
param *.uav[39].startX 3537m
param *.uav[39].startY 965m
param *.uav[39].startZ 539m
param *.uav[40].startX 3537m
param *.uav[40].startY 965m
param *.uav[40].startZ 539m
param *.uav[41].startX 312m
param *.uav[41].startY 1262m
param *.uav[41].startZ 540m
param *.uav[42].startX 2185m
param *.uav[42].startY 3026m
param *.uav[42].startZ 778m
param *.uav[43].startX 3537m
param *.uav[43].startY 965m
param *.uav[43].startZ 539m
param *.uav[44].startX 312m
param *.uav[44].startY 1262m
param *.uav[44].startZ 540m
param *.uav[45].startX 2185m
param *.uav[45].startY 3026m
param *.uav[45].startZ 778m
param *.uav[46].startX 3537m
param *.uav[46].startY 965m
param *.uav[46].startZ 539m
param *.uav[47].startX 312m
param *.uav[47].startY 1262m
param *.uav[47].startZ 540m
param *.uav[48].startX 2185m
param *.uav[48].startY 3026m
param *.uav[48].startZ 778m
param *.uav[49].startX 3537m
param *.uav[49].startY 965m
param *.uav[49].startZ 539m
param *.uav[50].startX 3537m
param *.uav[50].startY 965m
param *.uav[50].startZ 539m
param *.uav[51].startX 312m
param *.uav[51].startY 1262m
param *.uav[51].startZ 540m
param *.uav[52].startX 2185m
param *.uav[52].startY 3026m
param *.uav[52].startZ 778m
param *.uav[53].startX 3537m
param *.uav[53].startY 965m
param *.uav[53].startZ 539m
param *.uav[54].startX 312m
param *.uav[54].startY 1262m
param *.uav[54].startZ 540m
param *.uav[55].startX 2185m
param *.uav[55].startY 3026m
param *.uav[55].startZ 778m
param *.uav[56].startX 3537m
param *.uav[56].startY 965m
param *.uav[56].startZ 539m
param *.uav[57].startX 312m
param *.uav[57].startY 1262m
param *.uav[57].startZ 540m
param *.uav[58].startX 2185m
param *.uav[58].startY 3026m
param *.uav[58].startZ 778m
param *.uav[59].startX 3537m
param *.uav[59].startY 965m
param *.uav[59].startZ 539m
param *.uav[60].startX 3537m
param *.uav[60].startY 965m
param *.uav[60].startZ 539m
param *.uav[61].startX 312m
param *.uav[61].startY 1262m
param *.uav[61].startZ 540m
param *.uav[62].startX 2185m
param *.uav[62].startY 3026m
param *.uav[62].startZ 778m
param *.uav[63].startX 3537m
param *.uav[63].startY 965m
param *.uav[63].startZ 539m
param *.uav[64].startX 312m
param *.uav[64].startY 1262m
param *.uav[64].startZ 540m
param *.uav[65].startX 2185m
param *.uav[65].startY 3026m
param *.uav[65].startZ 778m
param *.uav[66].startX 3537m
param *.uav[66].startY 965m
param *.uav[66].startZ 539m
param *.uav[67].startX 312m
param *.uav[67].startY 1262m
param *.uav[67].startZ 540m
param *.uav[68].startX 2185m
param *.uav[68].startY 3026m
param *.uav[68].startZ 778m
param *.uav[69].startX 3537m
param *.uav[69].startY 965m
param *.uav[69].startZ 539m
param *.uav[70].startX 3537m
param *.uav[70].startY 965m
param *.uav[70].startZ 539m
param *.uav[71].startX 312m
param *.uav[71].startY 1262m
param *.uav[71].startZ 540m
param *.uav[72].startX 2185m
param *.uav[72].startY 3026m
param *.uav[72].startZ 778m
param *.uav[73].startX 3537m
param *.uav[73].startY 965m
param *.uav[73].startZ 539m
param *.uav[74].startX 312m
param *.uav[74].startY 1262m
param *.uav[74].startZ 540m
param *.uav[75].startX 2185m
param *.uav[75].startY 3026m
param *.uav[75].startZ 778m
param *.uav[76].startX 3537m
param *.uav[76].startY 965m
param *.uav[76].startZ 539m
param *.uav[77].startX 312m
param *.uav[77].startY 1262m
param *.uav[77].startZ 540m
param *.uav[78].startX 2185m
param *.uav[78].startY 3026m
param *.uav[78].startZ 778m
param *.uav[79].startX 3537m
param *.uav[79].startY 965m
param *.uav[79].startZ 539m
param *.uav[80].startX 3537m
param *.uav[80].startY 965m
param *.uav[80].startZ 539m
param *.uav[81].startX 312m
param *.uav[81].startY 1262m
param *.uav[81].startZ 540m
param *.uav[82].startX 2185m
param *.uav[82].startY 3026m
param *.uav[82].startZ 778m
param *.uav[83].startX 3537m
param *.uav[83].startY 965m
param *.uav[83].startZ 539m
param *.uav[84].startX 312m
param *.uav[84].startY 1262m
param *.uav[84].startZ 540m
param *.uav[85].startX 2185m
param *.uav[85].startY 3026m
param *.uav[85].startZ 778m
param *.uav[86].startX 3537m
param *.uav[86].startY 965m
param *.uav[86].startZ 539m
param *.uav[87].startX 312m
param *.uav[87].startY 1262m
param *.uav[87].startZ 540m
param *.uav[88].startX 2185m
param *.uav[88].startY 3026m
param *.uav[88].startZ 778m
param *.uav[89].startX 3537m
param *.uav[89].startY 965m
param *.uav[89].startZ 539m
param *.uav[90].startX 3537m
param *.uav[90].startY 965m
param *.uav[90].startZ 539m
param *.uav[91].startX 312m
param *.uav[91].startY 1262m
param *.uav[91].startZ 540m
param *.uav[92].startX 2185m
param *.uav[92].startY 3026m
param *.uav[92].startZ 778m
param *.uav[93].startX 3537m
param *.uav[93].startY 965m
param *.uav[93].startZ 539m
param *.uav[94].startX 312m
param *.uav[94].startY 1262m
param *.uav[94].startZ 540m
param *.uav[95].startX 2185m
param *.uav[95].startY 3026m
param *.uav[95].startZ 778m
param *.uav[96].startX 3537m
param *.uav[96].startY 965m
param *.uav[96].startZ 539m
param *.uav[97].startX 312m
param *.uav[97].startY 1262m
param *.uav[97].startZ 540m
param *.uav[98].startX 2185m
param *.uav[98].startY 3026m
param *.uav[98].startZ 778m
param *.uav[99].startX 3537m
param *.uav[99].startY 965m
param *.uav[99].startZ 539m
param *.osgEarthScene.scene "\"boston.earth\""
param *.playgroundLatitude 42.3558
param *.playgroundLongitude -71.0677
param *.playgroundWidth 400m
param *.playgroundHeight 200m
param *.channelController.connectionColor "\"#0000FF40\""
param *.channelController.showConnections false
param *.uav[*].modelURL "\"quadrocopter.small.obj.15.scale.0,0,90.rot\""
param *.uav[*].labelColor "\"#FF7C00CC\""
param *.uav[*].label2Color "\"#FF7C00EE\""
param *.uav[*].batteryCapacity 5200mAh
param *.uav[*].batteryRemaining uav[index].batteryCapacity
param *.uav[*].predictionQuantile 0.95
param *.uav[*].replacementMethod 2
param *.uav[*].weightedSumWeight 0.5
param *.cs[*].modelURL "\"chargingstation_v1.osgt.2.scale.0,0,0.rot.0,0,-15e-1.trans\""
param *.cs[*].spotsWaiting 999
param *.cs[*].spotsCharging 999
param *.cs[*].chargeEffectivenessPercentage 100
param *.cs[*].nonLinearPhaseStartPercentage 85
param *.cs[*].chargeCurrent 6.0A
param *.cs[*].prioritizeFastCharge true
param *.missionControl.replacementSearchMethod 0
param *.*.timeStep 9s

scalar OsgEarthNet.uav[0] utilizationSecMission 750.20472747826
scalar OsgEarthNet.uav[0] utilizationSecMaintenance 335.16822070369
scalar OsgEarthNet.uav[0] utilizationSecCharge 3860
scalar OsgEarthNet.uav[0] utilizationSecIdle 254254.62605182
scalar OsgEarthNet.uav[0] utilizationEnergyMission 3338.6267700195
scalar OsgEarthNet.uav[0] utilizationEnergyMaintenance 1570.6386222839
scalar OsgEarthNet.uav[0] utilizationEnergyCharge 4909.267578125
scalar OsgEarthNet.uav[0] utilizationEnergyOverdrawMission 0
scalar OsgEarthNet.uav[0] utilizationEnergyOverdrawMaintenance 0
scalar OsgEarthNet.uav[0] utilizationCountMissions 1
scalar OsgEarthNet.uav[0] utilizationCountManeuversMission 11
scalar OsgEarthNet.uav[0] utilizationCountManeuversMaintenance 2
scalar OsgEarthNet.uav[0] utilizationCountChargeState 1
scalar OsgEarthNet.uav[0] utilizationCountOverdrawnAfterMission 0
scalar OsgEarthNet.uav[0] utilizationCountIdleState 2
scalar OsgEarthNet.uav[0] utilizationFail 0
scalar OsgEarthNet.uav[0] simulationTime 259200
scalar OsgEarthNet.uav[1] utilizationSecMission 32050.930663785
scalar OsgEarthNet.uav[1] utilizationSecMaintenance 13159.88203437
scalar OsgEarthNet.uav[1] utilizationSecCharge 166770
scalar OsgEarthNet.uav[1] utilizationSecIdle 47219.186301846
scalar OsgEarthNet.uav[1] utilizationEnergyMission 147618.65494537
scalar OsgEarthNet.uav[1] utilizationEnergyMaintenance 61087.508750916
scalar OsgEarthNet.uav[1] utilizationEnergyCharge 208957.23876953
scalar OsgEarthNet.uav[1] utilizationEnergyOverdrawMission 0
scalar OsgEarthNet.uav[1] utilizationEnergyOverdrawMaintenance 0
scalar OsgEarthNet.uav[1] utilizationCountMissions 45
scalar OsgEarthNet.uav[1] utilizationCountManeuversMission 526
scalar OsgEarthNet.uav[1] utilizationCountManeuversMaintenance 90
scalar OsgEarthNet.uav[1] utilizationCountChargeState 45
scalar OsgEarthNet.uav[1] utilizationCountOverdrawnAfterMission 0
scalar OsgEarthNet.uav[1] utilizationCountIdleState 46
scalar OsgEarthNet.uav[1] utilizationFail 0
scalar OsgEarthNet.uav[1] simulationTime 259200
scalar OsgEarthNet.uav[2] utilizationSecMission 28963.23798536
scalar OsgEarthNet.uav[2] utilizationSecMaintenance 13928.567873938
scalar OsgEarthNet.uav[2] utilizationSecCharge 157159.01803029
scalar OsgEarthNet.uav[2] utilizationSecIdle 59149.175110411
scalar OsgEarthNet.uav[2] utilizationEnergyMission 133171.33535767
scalar OsgEarthNet.uav[2] utilizationEnergyMaintenance 65291.072483063
scalar OsgEarthNet.uav[2] utilizationEnergyCharge 197516.71875
scalar OsgEarthNet.uav[2] utilizationEnergyOverdrawMission 0
scalar OsgEarthNet.uav[2] utilizationEnergyOverdrawMaintenance 0
scalar OsgEarthNet.uav[2] utilizationCountMissions 43
scalar OsgEarthNet.uav[2] utilizationCountManeuversMission 461
scalar OsgEarthNet.uav[2] utilizationCountManeuversMaintenance 86
scalar OsgEarthNet.uav[2] utilizationCountChargeState 43
scalar OsgEarthNet.uav[2] utilizationCountOverdrawnAfterMission 0
scalar OsgEarthNet.uav[2] utilizationCountIdleState 43
scalar OsgEarthNet.uav[2] utilizationFail 0
scalar OsgEarthNet.uav[2] simulationTime 259200
scalar OsgEarthNet.uav[3] utilizationSecMission 29474.601243075
scalar OsgEarthNet.uav[3] utilizationSecMaintenance 13891.619593766
scalar OsgEarthNet.uav[3] utilizationSecCharge 159691.15200237
scalar OsgEarthNet.uav[3] utilizationSecIdle 56142.626160789
scalar OsgEarthNet.uav[3] utilizationEnergyMission 136079.33501434
scalar OsgEarthNet.uav[3] utilizationEnergyMaintenance 65281.842803955
scalar OsgEarthNet.uav[3] utilizationEnergyCharge 200264.72314453
scalar OsgEarthNet.uav[3] utilizationEnergyOverdrawMission 0
scalar OsgEarthNet.uav[3] utilizationEnergyOverdrawMaintenance 0
scalar OsgEarthNet.uav[3] utilizationCountMissions 44
scalar OsgEarthNet.uav[3] utilizationCountManeuversMission 484
scalar OsgEarthNet.uav[3] utilizationCountManeuversMaintenance 88
scalar OsgEarthNet.uav[3] utilizationCountChargeState 44
scalar OsgEarthNet.uav[3] utilizationCountOverdrawnAfterMission 0
scalar OsgEarthNet.uav[3] utilizationCountIdleState 44
scalar OsgEarthNet.uav[3] utilizationFail 0
scalar OsgEarthNet.uav[3] simulationTime 259200
scalar OsgEarthNet.uav[4] utilizationSecMission 3204.3416604504
scalar OsgEarthNet.uav[4] utilizationSecMaintenance 1738.530528734
scalar OsgEarthNet.uav[4] utilizationSecCharge 18600
scalar OsgEarthNet.uav[4] utilizationSecIdle 235657.12681082
scalar OsgEarthNet.uav[4] utilizationEnergyMission 14703.755340576
scalar OsgEarthNet.uav[4] utilizationEnergyMaintenance 8654.2868309021
scalar OsgEarthNet.uav[4] utilizationEnergyCharge 23358.032226562
scalar OsgEarthNet.uav[4] utilizationEnergyOverdrawMission 0
scalar OsgEarthNet.uav[4] utilizationEnergyOverdrawMaintenance 0
scalar OsgEarthNet.uav[4] utilizationCountMissions 5
scalar OsgEarthNet.uav[4] utilizationCountManeuversMission 49
scalar OsgEarthNet.uav[4] utilizationCountManeuversMaintenance 10
scalar OsgEarthNet.uav[4] utilizationCountChargeState 5
scalar OsgEarthNet.uav[4] utilizationCountOverdrawnAfterMission 0
scalar OsgEarthNet.uav[4] utilizationCountIdleState 6
scalar OsgEarthNet.uav[4] utilizationFail 0
scalar OsgEarthNet.uav[4] simulationTime 259200
scalar OsgEarthNet.uav[5] utilizationSecMission 750.20472747826
scalar OsgEarthNet.uav[5] utilizationSecMaintenance 280.95484451848
scalar OsgEarthNet.uav[5] utilizationSecCharge 3700
scalar OsgEarthNet.uav[5] utilizationSecIdle 254468.839428
scalar OsgEarthNet.uav[5] utilizationEnergyMission 3371.17578125
scalar OsgEarthNet.uav[5] utilizationEnergyMaintenance 1255.4254264832
scalar OsgEarthNet.uav[5] utilizationEnergyCharge 4626.6044921875
scalar OsgEarthNet.uav[5] utilizationEnergyOverdrawMission 0
scalar OsgEarthNet.uav[5] utilizationEnergyOverdrawMaintenance 0
scalar OsgEarthNet.uav[5] utilizationCountMissions 1
scalar OsgEarthNet.uav[5] utilizationCountManeuversMission 11
scalar OsgEarthNet.uav[5] utilizationCountManeuversMaintenance 2
scalar OsgEarthNet.uav[5] utilizationCountChargeState 1
scalar OsgEarthNet.uav[5] utilizationCountOverdrawnAfterMission 0
scalar OsgEarthNet.uav[5] utilizationCountIdleState 2
scalar OsgEarthNet.uav[5] utilizationFail 0
scalar OsgEarthNet.uav[5] simulationTime 259200
scalar OsgEarthNet.uav[6] utilizationSecMission 760.62515258028
scalar OsgEarthNet.uav[6] utilizationSecMaintenance 291.95923480269
scalar OsgEarthNet.uav[6] utilizationSecCharge 3920
scalar OsgEarthNet.uav[6] utilizationSecIdle 254227.41461262
scalar OsgEarthNet.uav[6] utilizationEnergyMission 3501.5138854981
scalar OsgEarthNet.uav[6] utilizationEnergyMaintenance 1438.3467025757
scalar OsgEarthNet.uav[6] utilizationEnergyCharge 4939.857421875
scalar OsgEarthNet.uav[6] utilizationEnergyOverdrawMission 0
scalar OsgEarthNet.uav[6] utilizationEnergyOverdrawMaintenance 0
scalar OsgEarthNet.uav[6] utilizationCountMissions 1
scalar OsgEarthNet.uav[6] utilizationCountManeuversMission 12
scalar OsgEarthNet.uav[6] utilizationCountManeuversMaintenance 2
scalar OsgEarthNet.uav[6] utilizationCountChargeState 1
scalar OsgEarthNet.uav[6] utilizationCountOverdrawnAfterMission 0
scalar OsgEarthNet.uav[6] utilizationCountIdleState 2
scalar OsgEarthNet.uav[6] utilizationFail 0
scalar OsgEarthNet.uav[6] simulationTime 259200
scalar OsgEarthNet.uav[7] utilizationSecMission 1137.146894414
scalar OsgEarthNet.uav[7] utilizationSecMaintenance 750.34501637292
scalar OsgEarthNet.uav[7] utilizationSecCharge 7230
scalar OsgEarthNet.uav[7] utilizationSecIdle 250082.50708921
scalar OsgEarthNet.uav[7] utilizationEnergyMission 5441.50050354
scalar OsgEarthNet.uav[7] utilizationEnergyMaintenance 3487.1639442444
scalar OsgEarthNet.uav[7] utilizationEnergyCharge 8928.6596679688
scalar OsgEarthNet.uav[7] utilizationEnergyOverdrawMission 0
scalar OsgEarthNet.uav[7] utilizationEnergyOverdrawMaintenance 0
scalar OsgEarthNet.uav[7] utilizationCountMissions 2
scalar OsgEarthNet.uav[7] utilizationCountManeuversMission 20
scalar OsgEarthNet.uav[7] utilizationCountManeuversMaintenance 4
scalar OsgEarthNet.uav[7] utilizationCountChargeState 2
scalar OsgEarthNet.uav[7] utilizationCountOverdrawnAfterMission 0
scalar OsgEarthNet.uav[7] utilizationCountIdleState 3
scalar OsgEarthNet.uav[7] utilizationFail 0
scalar OsgEarthNet.uav[7] simulationTime 259200
scalar OsgEarthNet.uav[8] utilizationSecMission 29225.644717155
scalar OsgEarthNet.uav[8] utilizationSecMaintenance 12663.314919281
scalar OsgEarthNet.uav[8] utilizationSecCharge 154854.59179109
scalar OsgEarthNet.uav[8] utilizationSecIdle 62456.447572472
scalar OsgEarthNet.uav[8] utilizationEnergyMission 134933.38792419
scalar OsgEarthNet.uav[8] utilizationEnergyMaintenance 59243.513008118
scalar OsgEarthNet.uav[8] utilizationEnergyCharge 194375.40600586
scalar OsgEarthNet.uav[8] utilizationEnergyOverdrawMission 0
scalar OsgEarthNet.uav[8] utilizationEnergyOverdrawMaintenance 0
scalar OsgEarthNet.uav[8] utilizationCountMissions 42
scalar OsgEarthNet.uav[8] utilizationCountManeuversMission 461
scalar OsgEarthNet.uav[8] utilizationCountManeuversMaintenance 84
scalar OsgEarthNet.uav[8] utilizationCountChargeState 42
scalar OsgEarthNet.uav[8] utilizationCountOverdrawnAfterMission 0
scalar OsgEarthNet.uav[8] utilizationCountIdleState 42
scalar OsgEarthNet.uav[8] utilizationFail 0
scalar OsgEarthNet.uav[8] simulationTime 259200
scalar OsgEarthNet.uav[9] utilizationSecMission 836.77707522227
scalar OsgEarthNet.uav[9] utilizationSecMaintenance 217.0347828456
scalar OsgEarthNet.uav[9] utilizationSecCharge 3790
scalar OsgEarthNet.uav[9] utilizationSecIdle 254356.18714193
scalar OsgEarthNet.uav[9] utilizationEnergyMission 3749.4330444336
scalar OsgEarthNet.uav[9] utilizationEnergyMaintenance 1046.8187980652
scalar OsgEarthNet.uav[9] utilizationEnergyCharge 4796.2475585938
scalar OsgEarthNet.uav[9] utilizationEnergyOverdrawMission 0
scalar OsgEarthNet.uav[9] utilizationEnergyOverdrawMaintenance 0
scalar OsgEarthNet.uav[9] utilizationCountMissions 1
scalar OsgEarthNet.uav[9] utilizationCountManeuversMission 13
scalar OsgEarthNet.uav[9] utilizationCountManeuversMaintenance 2
scalar OsgEarthNet.uav[9] utilizationCountChargeState 1
scalar OsgEarthNet.uav[9] utilizationCountOverdrawnAfterMission 0
scalar OsgEarthNet.uav[9] utilizationCountIdleState 2
scalar OsgEarthNet.uav[9] utilizationFail 0
scalar OsgEarthNet.uav[9] simulationTime 259200
scalar OsgEarthNet.uav[10] utilizationSecMission 760.62515258028
scalar OsgEarthNet.uav[10] utilizationSecMaintenance 291.95923480269
scalar OsgEarthNet.uav[10] utilizationSecCharge 3820
scalar OsgEarthNet.uav[10] utilizationSecIdle 254327.41461262
scalar OsgEarthNet.uav[10] utilizationEnergyMission 3504.8918533325
scalar OsgEarthNet.uav[10] utilizationEnergyMaintenance 1301.7734603882
scalar OsgEarthNet.uav[10] utilizationEnergyCharge 4806.66796875
scalar OsgEarthNet.uav[10] utilizationEnergyOverdrawMission 0
scalar OsgEarthNet.uav[10] utilizationEnergyOverdrawMaintenance 0
scalar OsgEarthNet.uav[10] utilizationCountMissions 1
scalar OsgEarthNet.uav[10] utilizationCountManeuversMission 12
scalar OsgEarthNet.uav[10] utilizationCountManeuversMaintenance 2
scalar OsgEarthNet.uav[10] utilizationCountChargeState 1
scalar OsgEarthNet.uav[10] utilizationCountOverdrawnAfterMission 0
scalar OsgEarthNet.uav[10] utilizationCountIdleState 2
scalar OsgEarthNet.uav[10] utilizationFail 0
scalar OsgEarthNet.uav[10] simulationTime 259200
scalar OsgEarthNet.uav[11] utilizationSecMission 29946.688100263
scalar OsgEarthNet.uav[11] utilizationSecMaintenance 11806.045102245
scalar OsgEarthNet.uav[11] utilizationSecCharge 154232.37915591
scalar OsgEarthNet.uav[11] utilizationSecIdle 63214.886641582
scalar OsgEarthNet.uav[11] utilizationEnergyMission 139962.51795959
scalar OsgEarthNet.uav[11] utilizationEnergyMaintenance 54759.503349304
scalar OsgEarthNet.uav[11] utilizationEnergyCharge 194013.0234375
scalar OsgEarthNet.uav[11] utilizationEnergyOverdrawMission 0
scalar OsgEarthNet.uav[11] utilizationEnergyOverdrawMaintenance 0
scalar OsgEarthNet.uav[11] utilizationCountMissions 42
scalar OsgEarthNet.uav[11] utilizationCountManeuversMission 487
scalar OsgEarthNet.uav[11] utilizationCountManeuversMaintenance 84
scalar OsgEarthNet.uav[11] utilizationCountChargeState 42
scalar OsgEarthNet.uav[11] utilizationCountOverdrawnAfterMission 0
scalar OsgEarthNet.uav[11] utilizationCountIdleState 42
scalar OsgEarthNet.uav[11] utilizationFail 0
scalar OsgEarthNet.uav[11] simulationTime 259200
scalar OsgEarthNet.uav[12] utilizationSecMission 29602.559217675
scalar OsgEarthNet.uav[12] utilizationSecMaintenance 12301.742212086
scalar OsgEarthNet.uav[12] utilizationSecCharge 154514.24461152
scalar OsgEarthNet.uav[12] utilizationSecIdle 62781.452958717
scalar OsgEarthNet.uav[12] utilizationEnergyMission 136291.51660156
scalar OsgEarthNet.uav[12] utilizationEnergyMaintenance 57543.594348907
scalar OsgEarthNet.uav[12] utilizationEnergyCharge 193736.72705078
scalar OsgEarthNet.uav[12] utilizationEnergyOverdrawMission 0
scalar OsgEarthNet.uav[12] utilizationEnergyOverdrawMaintenance 0
scalar OsgEarthNet.uav[12] utilizationCountMissions 42
scalar OsgEarthNet.uav[12] utilizationCountManeuversMission 478
scalar OsgEarthNet.uav[12] utilizationCountManeuversMaintenance 84
scalar OsgEarthNet.uav[12] utilizationCountChargeState 42
scalar OsgEarthNet.uav[12] utilizationCountOverdrawnAfterMission 0
scalar OsgEarthNet.uav[12] utilizationCountIdleState 42
scalar OsgEarthNet.uav[12] utilizationFail 0
scalar OsgEarthNet.uav[12] simulationTime 259200
scalar OsgEarthNet.uav[13] utilizationSecMission 836.77707522227
scalar OsgEarthNet.uav[13] utilizationSecMaintenance 217.0347828456
scalar OsgEarthNet.uav[13] utilizationSecCharge 3890
scalar OsgEarthNet.uav[13] utilizationSecIdle 254256.18714193
scalar OsgEarthNet.uav[13] utilizationEnergyMission 3797.921295166
scalar OsgEarthNet.uav[13] utilizationEnergyMaintenance 1187.4474906921
scalar OsgEarthNet.uav[13] utilizationEnergyCharge 4985.3671875
scalar OsgEarthNet.uav[13] utilizationEnergyOverdrawMission 0
scalar OsgEarthNet.uav[13] utilizationEnergyOverdrawMaintenance 0
scalar OsgEarthNet.uav[13] utilizationCountMissions 1
scalar OsgEarthNet.uav[13] utilizationCountManeuversMission 13
scalar OsgEarthNet.uav[13] utilizationCountManeuversMaintenance 2
scalar OsgEarthNet.uav[13] utilizationCountChargeState 1
scalar OsgEarthNet.uav[13] utilizationCountOverdrawnAfterMission 0
scalar OsgEarthNet.uav[13] utilizationCountIdleState 2
scalar OsgEarthNet.uav[13] utilizationFail 0
scalar OsgEarthNet.uav[13] simulationTime 259200
scalar OsgEarthNet.uav[14] utilizationSecMission 25826.717089324
scalar OsgEarthNet.uav[14] utilizationSecMaintenance 12999.736254525
scalar OsgEarthNet.uav[14] utilizationSecCharge 142692.16770864
scalar OsgEarthNet.uav[14] utilizationSecIdle 77681.377947516
scalar OsgEarthNet.uav[14] utilizationEnergyMission 119825.91307831
scalar OsgEarthNet.uav[14] utilizationEnergyMaintenance 61422.205432892
scalar OsgEarthNet.uav[14] utilizationEnergyCharge 179638.28320312
scalar OsgEarthNet.uav[14] utilizationEnergyOverdrawMission 0
scalar OsgEarthNet.uav[14] utilizationEnergyOverdrawMaintenance 3.2206115722656
scalar OsgEarthNet.uav[14] utilizationCountMissions 39
scalar OsgEarthNet.uav[14] utilizationCountManeuversMission 431
scalar OsgEarthNet.uav[14] utilizationCountManeuversMaintenance 78
scalar OsgEarthNet.uav[14] utilizationCountChargeState 39
scalar OsgEarthNet.uav[14] utilizationCountOverdrawnAfterMission 1
scalar OsgEarthNet.uav[14] utilizationCountIdleState 39
scalar OsgEarthNet.uav[14] utilizationFail 0
scalar OsgEarthNet.uav[14] simulationTime 259200
scalar OsgEarthNet.uav[15] utilizationSecMission 26694.756888194
scalar OsgEarthNet.uav[15] utilizationSecMaintenance 13617.98660851
scalar OsgEarthNet.uav[15] utilizationSecCharge 151000
scalar OsgEarthNet.uav[15] utilizationSecIdle 67887.255503296
scalar OsgEarthNet.uav[15] utilizationEnergyMission 124405.6594162
scalar OsgEarthNet.uav[15] utilizationEnergyMaintenance 63634.220516205
scalar OsgEarthNet.uav[15] utilizationEnergyCharge 188626.83496094
scalar OsgEarthNet.uav[15] utilizationEnergyOverdrawMission 0
scalar OsgEarthNet.uav[15] utilizationEnergyOverdrawMaintenance 0
scalar OsgEarthNet.uav[15] utilizationCountMissions 41
scalar OsgEarthNet.uav[15] utilizationCountManeuversMission 435
scalar OsgEarthNet.uav[15] utilizationCountManeuversMaintenance 82
scalar OsgEarthNet.uav[15] utilizationCountChargeState 41
scalar OsgEarthNet.uav[15] utilizationCountOverdrawnAfterMission 0
scalar OsgEarthNet.uav[15] utilizationCountIdleState 42
scalar OsgEarthNet.uav[15] utilizationFail 0
scalar OsgEarthNet.uav[15] simulationTime 259200
scalar OsgEarthNet.uav[16] utilizationSecMission 702.6942798579
scalar OsgEarthNet.uav[16] utilizationSecMaintenance 282.29565405678
scalar OsgEarthNet.uav[16] utilizationSecCharge 3900
scalar OsgEarthNet.uav[16] utilizationSecIdle 254315.00906609
scalar OsgEarthNet.uav[16] utilizationEnergyMission 3520.8773651123
scalar OsgEarthNet.uav[16] utilizationEnergyMaintenance 1400.7194633484
scalar OsgEarthNet.uav[16] utilizationEnergyCharge 4921.5991210938
scalar OsgEarthNet.uav[16] utilizationEnergyOverdrawMission 0
scalar OsgEarthNet.uav[16] utilizationEnergyOverdrawMaintenance 0
scalar OsgEarthNet.uav[16] utilizationCountMissions 1
scalar OsgEarthNet.uav[16] utilizationCountManeuversMission 10
scalar OsgEarthNet.uav[16] utilizationCountManeuversMaintenance 2
scalar OsgEarthNet.uav[16] utilizationCountChargeState 1
scalar OsgEarthNet.uav[16] utilizationCountOverdrawnAfterMission 0
scalar OsgEarthNet.uav[16] utilizationCountIdleState 2
scalar OsgEarthNet.uav[16] utilizationFail 0
scalar OsgEarthNet.uav[16] simulationTime 259200
scalar OsgEarthNet.uav[17] utilizationSecMission 30897.185677124
scalar OsgEarthNet.uav[17] utilizationSecMaintenance 14572.3597268
scalar OsgEarthNet.uav[17] utilizationSecCharge 168598.45359608
scalar OsgEarthNet.uav[17] utilizationSecIdle 45132
scalar OsgEarthNet.uav[17] utilizationEnergyMission 143823.5714798
scalar OsgEarthNet.uav[17] utilizationEnergyMaintenance 68243.329200745
scalar OsgEarthNet.uav[17] utilizationEnergyCharge 211864.22192383
scalar OsgEarthNet.uav[17] utilizationEnergyOverdrawMission 0
scalar OsgEarthNet.uav[17] utilizationEnergyOverdrawMaintenance 0
scalar OsgEarthNet.uav[17] utilizationCountMissions 46
scalar OsgEarthNet.uav[17] utilizationCountManeuversMission 503
scalar OsgEarthNet.uav[17] utilizationCountManeuversMaintenance 91
scalar OsgEarthNet.uav[17] utilizationCountChargeState 46
scalar OsgEarthNet.uav[17] utilizationCountOverdrawnAfterMission 0
scalar OsgEarthNet.uav[17] utilizationCountIdleState 46
scalar OsgEarthNet.uav[17] utilizationFail 0
scalar OsgEarthNet.uav[17] simulationTime 259200
scalar OsgEarthNet.uav[18] utilizationSecMission 16440.142334179
scalar OsgEarthNet.uav[18] utilizationSecMaintenance 6406.3956230456
scalar OsgEarthNet.uav[18] utilizationSecCharge 82450
scalar OsgEarthNet.uav[18] utilizationSecIdle 153903.46104278
scalar OsgEarthNet.uav[18] utilizationEnergyMission 75817.229647343
scalar OsgEarthNet.uav[18] utilizationEnergyMaintenance 30252.682209015
scalar OsgEarthNet.uav[18] utilizationEnergyCharge 103580.67480469
scalar OsgEarthNet.uav[18] utilizationEnergyOverdrawMission 0
scalar OsgEarthNet.uav[18] utilizationEnergyOverdrawMaintenance 0
scalar OsgEarthNet.uav[18] utilizationCountMissions 22
scalar OsgEarthNet.uav[18] utilizationCountManeuversMission 268
scalar OsgEarthNet.uav[18] utilizationCountManeuversMaintenance 45
scalar OsgEarthNet.uav[18] utilizationCountChargeState 22
scalar OsgEarthNet.uav[18] utilizationCountOverdrawnAfterMission 0
scalar OsgEarthNet.uav[18] utilizationCountIdleState 23
scalar OsgEarthNet.uav[18] utilizationFail 0
scalar OsgEarthNet.uav[18] simulationTime 259200
scalar OsgEarthNet.uav[19] utilizationSecMission 20741.509947149
scalar OsgEarthNet.uav[19] utilizationSecMaintenance 11400.787394846
scalar OsgEarthNet.uav[19] utilizationSecCharge 119747.75838373
scalar OsgEarthNet.uav[19] utilizationSecIdle 107309.94327428
scalar OsgEarthNet.uav[19] utilizationEnergyMission 96742.544799805
scalar OsgEarthNet.uav[19] utilizationEnergyMaintenance 53600.585201263
scalar OsgEarthNet.uav[19] utilizationEnergyCharge 150118.5559082
scalar OsgEarthNet.uav[19] utilizationEnergyOverdrawMission 0
scalar OsgEarthNet.uav[19] utilizationEnergyOverdrawMaintenance 0
scalar OsgEarthNet.uav[19] utilizationCountMissions 33
scalar OsgEarthNet.uav[19] utilizationCountManeuversMission 343
scalar OsgEarthNet.uav[19] utilizationCountManeuversMaintenance 66
scalar OsgEarthNet.uav[19] utilizationCountChargeState 33
scalar OsgEarthNet.uav[19] utilizationCountOverdrawnAfterMission 0
scalar OsgEarthNet.uav[19] utilizationCountIdleState 33
scalar OsgEarthNet.uav[19] utilizationFail 0
scalar OsgEarthNet.uav[19] simulationTime 259200
scalar OsgEarthNet.uav[20] utilizationSecMission 836.77707522227
scalar OsgEarthNet.uav[20] utilizationSecMaintenance 217.0347828456
scalar OsgEarthNet.uav[20] utilizationSecCharge 3850
scalar OsgEarthNet.uav[20] utilizationSecIdle 254296.18714193
scalar OsgEarthNet.uav[20] utilizationEnergyMission 4020.102935791
scalar OsgEarthNet.uav[20] utilizationEnergyMaintenance 907.44190597534
scalar OsgEarthNet.uav[20] utilizationEnergyCharge 4927.5400390625
scalar OsgEarthNet.uav[20] utilizationEnergyOverdrawMission 0
scalar OsgEarthNet.uav[20] utilizationEnergyOverdrawMaintenance 0
scalar OsgEarthNet.uav[20] utilizationCountMissions 1
scalar OsgEarthNet.uav[20] utilizationCountManeuversMission 13
scalar OsgEarthNet.uav[20] utilizationCountManeuversMaintenance 2
scalar OsgEarthNet.uav[20] utilizationCountChargeState 1
scalar OsgEarthNet.uav[20] utilizationCountOverdrawnAfterMission 0
scalar OsgEarthNet.uav[20] utilizationCountIdleState 2
scalar OsgEarthNet.uav[20] utilizationFail 0
scalar OsgEarthNet.uav[20] simulationTime 259200
scalar OsgEarthNet.uav[21] utilizationSecMission 28449.284048542
scalar OsgEarthNet.uav[21] utilizationSecMaintenance 13965.950676807
scalar OsgEarthNet.uav[21] utilizationSecCharge 156840
scalar OsgEarthNet.uav[21] utilizationSecIdle 59944.764274651
scalar OsgEarthNet.uav[21] utilizationEnergyMission 131340.14249562
scalar OsgEarthNet.uav[21] utilizationEnergyMaintenance 65194.15536499
scalar OsgEarthNet.uav[21] utilizationEnergyCharge 195097.19116211
scalar OsgEarthNet.uav[21] utilizationEnergyOverdrawMission 0
scalar OsgEarthNet.uav[21] utilizationEnergyOverdrawMaintenance 0
scalar OsgEarthNet.uav[21] utilizationCountMissions 43
scalar OsgEarthNet.uav[21] utilizationCountManeuversMission 471
scalar OsgEarthNet.uav[21] utilizationCountManeuversMaintenance 87
scalar OsgEarthNet.uav[21] utilizationCountChargeState 43
scalar OsgEarthNet.uav[21] utilizationCountOverdrawnAfterMission 0
scalar OsgEarthNet.uav[21] utilizationCountIdleState 44
scalar OsgEarthNet.uav[21] utilizationFail 0
scalar OsgEarthNet.uav[21] simulationTime 259200
scalar OsgEarthNet.uav[22] utilizationSecMission 28644.364571072
scalar OsgEarthNet.uav[22] utilizationSecMaintenance 14172.56294418
scalar OsgEarthNet.uav[22] utilizationSecCharge 161050
scalar OsgEarthNet.uav[22] utilizationSecIdle 55333.071484748
scalar OsgEarthNet.uav[22] utilizationEnergyMission 134128.75950623
scalar OsgEarthNet.uav[22] utilizationEnergyMaintenance 67111.2306633
scalar OsgEarthNet.uav[22] utilizationEnergyCharge 200769.99609375
scalar OsgEarthNet.uav[22] utilizationEnergyOverdrawMission 0
scalar OsgEarthNet.uav[22] utilizationEnergyOverdrawMaintenance 0
scalar OsgEarthNet.uav[22] utilizationCountMissions 44
scalar OsgEarthNet.uav[22] utilizationCountManeuversMission 469
scalar OsgEarthNet.uav[22] utilizationCountManeuversMaintenance 88
scalar OsgEarthNet.uav[22] utilizationCountChargeState 44
scalar OsgEarthNet.uav[22] utilizationCountOverdrawnAfterMission 0
scalar OsgEarthNet.uav[22] utilizationCountIdleState 45
scalar OsgEarthNet.uav[22] utilizationFail 0
scalar OsgEarthNet.uav[22] simulationTime 259200
scalar OsgEarthNet.uav[23] utilizationSecMission 684.4732299383
scalar OsgEarthNet.uav[23] utilizationSecMaintenance 298.56834692969
scalar OsgEarthNet.uav[23] utilizationSecCharge 3750
scalar OsgEarthNet.uav[23] utilizationSecIdle 254466.95742313
scalar OsgEarthNet.uav[23] utilizationEnergyMission 3287.5744781494
scalar OsgEarthNet.uav[23] utilizationEnergyMaintenance 1419.8723678589
scalar OsgEarthNet.uav[23] utilizationEnergyCharge 4707.4448242188
scalar OsgEarthNet.uav[23] utilizationEnergyOverdrawMission 0
scalar OsgEarthNet.uav[23] utilizationEnergyOverdrawMaintenance 0
scalar OsgEarthNet.uav[23] utilizationCountMissions 1
scalar OsgEarthNet.uav[23] utilizationCountManeuversMission 11
scalar OsgEarthNet.uav[23] utilizationCountManeuversMaintenance 2
scalar OsgEarthNet.uav[23] utilizationCountChargeState 1
scalar OsgEarthNet.uav[23] utilizationCountOverdrawnAfterMission 0
scalar OsgEarthNet.uav[23] utilizationCountIdleState 2
scalar OsgEarthNet.uav[23] utilizationFail 0
scalar OsgEarthNet.uav[23] simulationTime 259200
scalar OsgEarthNet.uav[24] utilizationSecMission 31537.862669633
scalar OsgEarthNet.uav[24] utilizationSecMaintenance 11533.661699932
scalar OsgEarthNet.uav[24] utilizationSecCharge 156817.11019147
scalar OsgEarthNet.uav[24] utilizationSecIdle 59311.364438965
scalar OsgEarthNet.uav[24] utilizationEnergyMission 144948.77708435
scalar OsgEarthNet.uav[24] utilizationEnergyMaintenance 54223.194919586
scalar OsgEarthNet.uav[24] utilizationEnergyCharge 197031.90649414
scalar OsgEarthNet.uav[24] utilizationEnergyOverdrawMission 0
scalar OsgEarthNet.uav[24] utilizationEnergyOverdrawMaintenance 0
scalar OsgEarthNet.uav[24] utilizationCountMissions 43
scalar OsgEarthNet.uav[24] utilizationCountManeuversMission 511
scalar OsgEarthNet.uav[24] utilizationCountManeuversMaintenance 86
scalar OsgEarthNet.uav[24] utilizationCountChargeState 43
scalar OsgEarthNet.uav[24] utilizationCountOverdrawnAfterMission 0
scalar OsgEarthNet.uav[24] utilizationCountIdleState 43
scalar OsgEarthNet.uav[24] utilizationFail 0
scalar OsgEarthNet.uav[24] simulationTime 259200
scalar OsgEarthNet.uav[25] utilizationSecMission 750.20472747826
scalar OsgEarthNet.uav[25] utilizationSecMaintenance 280.95484451848
scalar OsgEarthNet.uav[25] utilizationSecCharge 3660
scalar OsgEarthNet.uav[25] utilizationSecIdle 254508.839428
scalar OsgEarthNet.uav[25] utilizationEnergyMission 3179.0358734131
scalar OsgEarthNet.uav[25] utilizationEnergyMaintenance 1380.8100395203
scalar OsgEarthNet.uav[25] utilizationEnergyCharge 4559.8510742188
scalar OsgEarthNet.uav[25] utilizationEnergyOverdrawMission 0
scalar OsgEarthNet.uav[25] utilizationEnergyOverdrawMaintenance 0
scalar OsgEarthNet.uav[25] utilizationCountMissions 1
scalar OsgEarthNet.uav[25] utilizationCountManeuversMission 11
scalar OsgEarthNet.uav[25] utilizationCountManeuversMaintenance 2
scalar OsgEarthNet.uav[25] utilizationCountChargeState 1
scalar OsgEarthNet.uav[25] utilizationCountOverdrawnAfterMission 0
scalar OsgEarthNet.uav[25] utilizationCountIdleState 2
scalar OsgEarthNet.uav[25] utilizationFail 0
scalar OsgEarthNet.uav[25] simulationTime 259200
scalar OsgEarthNet.uav[26] utilizationSecMission 760.62515258028
scalar OsgEarthNet.uav[26] utilizationSecMaintenance 291.95923480269
scalar OsgEarthNet.uav[26] utilizationSecCharge 3850
scalar OsgEarthNet.uav[26] utilizationSecIdle 254297.41461262
scalar OsgEarthNet.uav[26] utilizationEnergyMission 3534.097366333
scalar OsgEarthNet.uav[26] utilizationEnergyMaintenance 1338.807975769
scalar OsgEarthNet.uav[26] utilizationEnergyCharge 4872.9086914062
scalar OsgEarthNet.uav[26] utilizationEnergyOverdrawMission 0
scalar OsgEarthNet.uav[26] utilizationEnergyOverdrawMaintenance 0
scalar OsgEarthNet.uav[26] utilizationCountMissions 1
scalar OsgEarthNet.uav[26] utilizationCountManeuversMission 12
scalar OsgEarthNet.uav[26] utilizationCountManeuversMaintenance 2
scalar OsgEarthNet.uav[26] utilizationCountChargeState 1
scalar OsgEarthNet.uav[26] utilizationCountOverdrawnAfterMission 0
scalar OsgEarthNet.uav[26] utilizationCountIdleState 2
scalar OsgEarthNet.uav[26] utilizationFail 0
scalar OsgEarthNet.uav[26] simulationTime 259200
scalar OsgEarthNet.uav[27] utilizationSecMission 27846.110759393
scalar OsgEarthNet.uav[27] utilizationSecMaintenance 14639.820114073
scalar OsgEarthNet.uav[27] utilizationSecCharge 155136.69288073
scalar OsgEarthNet.uav[27] utilizationSecIdle 61577.375245805
scalar OsgEarthNet.uav[27] utilizationEnergyMission 129755.23731613
scalar OsgEarthNet.uav[27] utilizationEnergyMaintenance 68245.939640045
scalar OsgEarthNet.uav[27] utilizationEnergyCharge 193473.15405273
scalar OsgEarthNet.uav[27] utilizationEnergyOverdrawMission 0
scalar OsgEarthNet.uav[27] utilizationEnergyOverdrawMaintenance 0
scalar OsgEarthNet.uav[27] utilizationCountMissions 43
scalar OsgEarthNet.uav[27] utilizationCountManeuversMission 465
scalar OsgEarthNet.uav[27] utilizationCountManeuversMaintenance 86
scalar OsgEarthNet.uav[27] utilizationCountChargeState 43
scalar OsgEarthNet.uav[27] utilizationCountOverdrawnAfterMission 0
scalar OsgEarthNet.uav[27] utilizationCountIdleState 43
scalar OsgEarthNet.uav[27] utilizationFail 0
scalar OsgEarthNet.uav[27] simulationTime 259200
scalar OsgEarthNet.uav[28] utilizationSecMission 31827.038565972
scalar OsgEarthNet.uav[28] utilizationSecMaintenance 12684.053976104
scalar OsgEarthNet.uav[28] utilizationSecCharge 165090
scalar OsgEarthNet.uav[28] utilizationSecIdle 49598.906457925
scalar OsgEarthNet.uav[28] utilizationEnergyMission 146265.20164175
scalar OsgEarthNet.uav[28] utilizationEnergyMaintenance 59784.177837372
scalar OsgEarthNet.uav[28] utilizationEnergyCharge 205861.09863281
scalar OsgEarthNet.uav[28] utilizationEnergyOverdrawMission 0
scalar OsgEarthNet.uav[28] utilizationEnergyOverdrawMaintenance 0
scalar OsgEarthNet.uav[28] utilizationCountMissions 45
scalar OsgEarthNet.uav[28] utilizationCountManeuversMission 508
scalar OsgEarthNet.uav[28] utilizationCountManeuversMaintenance 89
scalar OsgEarthNet.uav[28] utilizationCountChargeState 45
scalar OsgEarthNet.uav[28] utilizationCountOverdrawnAfterMission 0
scalar OsgEarthNet.uav[28] utilizationCountIdleState 46
scalar OsgEarthNet.uav[28] utilizationFail 0
scalar OsgEarthNet.uav[28] simulationTime 259200
scalar OsgEarthNet.uav[29] utilizationSecMission 760.62515258028
scalar OsgEarthNet.uav[29] utilizationSecMaintenance 291.95923480269
scalar OsgEarthNet.uav[29] utilizationSecCharge 3790
scalar OsgEarthNet.uav[29] utilizationSecIdle 254357.41461262
scalar OsgEarthNet.uav[29] utilizationEnergyMission 3517.8320617676
scalar OsgEarthNet.uav[29] utilizationEnergyMaintenance 1278.3502731323
scalar OsgEarthNet.uav[29] utilizationEnergyCharge 4796.181640625
scalar OsgEarthNet.uav[29] utilizationEnergyOverdrawMission 0
scalar OsgEarthNet.uav[29] utilizationEnergyOverdrawMaintenance 0
scalar OsgEarthNet.uav[29] utilizationCountMissions 1
scalar OsgEarthNet.uav[29] utilizationCountManeuversMission 12
scalar OsgEarthNet.uav[29] utilizationCountManeuversMaintenance 2
scalar OsgEarthNet.uav[29] utilizationCountChargeState 1
scalar OsgEarthNet.uav[29] utilizationCountOverdrawnAfterMission 0
scalar OsgEarthNet.uav[29] utilizationCountIdleState 2
scalar OsgEarthNet.uav[29] utilizationFail 0
scalar OsgEarthNet.uav[29] simulationTime 259200
scalar OsgEarthNet.uav[30] utilizationSecMission 750.20472747826
scalar OsgEarthNet.uav[30] utilizationSecMaintenance 335.16822070369
scalar OsgEarthNet.uav[30] utilizationSecCharge 3880
scalar OsgEarthNet.uav[30] utilizationSecIdle 254234.62605182
scalar OsgEarthNet.uav[30] utilizationEnergyMission 3273.5189361572
scalar OsgEarthNet.uav[30] utilizationEnergyMaintenance 1651.6446037293
scalar OsgEarthNet.uav[30] utilizationEnergyCharge 4925.1684570312
scalar OsgEarthNet.uav[30] utilizationEnergyOverdrawMission 0
scalar OsgEarthNet.uav[30] utilizationEnergyOverdrawMaintenance 0
scalar OsgEarthNet.uav[30] utilizationCountMissions 1
scalar OsgEarthNet.uav[30] utilizationCountManeuversMission 11
scalar OsgEarthNet.uav[30] utilizationCountManeuversMaintenance 2
scalar OsgEarthNet.uav[30] utilizationCountChargeState 1
scalar OsgEarthNet.uav[30] utilizationCountOverdrawnAfterMission 0
scalar OsgEarthNet.uav[30] utilizationCountIdleState 2
scalar OsgEarthNet.uav[30] utilizationFail 0
scalar OsgEarthNet.uav[30] simulationTime 259200
scalar OsgEarthNet.uav[31] utilizationSecMission 28986.978008372
scalar OsgEarthNet.uav[31] utilizationSecMaintenance 15224.706811644
scalar OsgEarthNet.uav[31] utilizationSecCharge 163156.75045827
scalar OsgEarthNet.uav[31] utilizationSecIdle 51831.56372171
scalar OsgEarthNet.uav[31] utilizationEnergyMission 136040.1344986
scalar OsgEarthNet.uav[31] utilizationEnergyMaintenance 72241.43271637
scalar OsgEarthNet.uav[31] utilizationEnergyCharge 204166.72180176
scalar OsgEarthNet.uav[31] utilizationEnergyOverdrawMission 0
scalar OsgEarthNet.uav[31] utilizationEnergyOverdrawMaintenance 0
scalar OsgEarthNet.uav[31] utilizationCountMissions 45
scalar OsgEarthNet.uav[31] utilizationCountManeuversMission 467
scalar OsgEarthNet.uav[31] utilizationCountManeuversMaintenance 90
scalar OsgEarthNet.uav[31] utilizationCountChargeState 45
scalar OsgEarthNet.uav[31] utilizationCountOverdrawnAfterMission 0
scalar OsgEarthNet.uav[31] utilizationCountIdleState 45
scalar OsgEarthNet.uav[31] utilizationFail 0
scalar OsgEarthNet.uav[31] simulationTime 259200
scalar OsgEarthNet.uav[32] utilizationSecMission 26891.327799743
scalar OsgEarthNet.uav[32] utilizationSecMaintenance 11717.12279237
scalar OsgEarthNet.uav[32] utilizationSecCharge 140235.19818707
scalar OsgEarthNet.uav[32] utilizationSecIdle 80356.350220821
scalar OsgEarthNet.uav[32] utilizationEnergyMission 122506.96575928
scalar OsgEarthNet.uav[32] utilizationEnergyMaintenance 54724.48462677
scalar OsgEarthNet.uav[32] utilizationEnergyCharge 176863.02880859
scalar OsgEarthNet.uav[32] utilizationEnergyOverdrawMission 0
scalar OsgEarthNet.uav[32] utilizationEnergyOverdrawMaintenance 0
scalar OsgEarthNet.uav[32] utilizationCountMissions 38
scalar OsgEarthNet.uav[32] utilizationCountManeuversMission 428
scalar OsgEarthNet.uav[32] utilizationCountManeuversMaintenance 76
scalar OsgEarthNet.uav[32] utilizationCountChargeState 38
scalar OsgEarthNet.uav[32] utilizationCountOverdrawnAfterMission 0
scalar OsgEarthNet.uav[32] utilizationCountIdleState 38
scalar OsgEarthNet.uav[32] utilizationFail 0
scalar OsgEarthNet.uav[32] simulationTime 259200
scalar OsgEarthNet.uav[33] utilizationSecMission 31120.030799189
scalar OsgEarthNet.uav[33] utilizationSecMaintenance 15367.968200811
scalar OsgEarthNet.uav[33] utilizationSecCharge 170680
scalar OsgEarthNet.uav[33] utilizationSecIdle 42032
scalar OsgEarthNet.uav[33] utilizationEnergyMission 143888.69734209
scalar OsgEarthNet.uav[33] utilizationEnergyMaintenance 71702.126533508
scalar OsgEarthNet.uav[33] utilizationEnergyCharge 213833.85107422
scalar OsgEarthNet.uav[33] utilizationEnergyOverdrawMission 0
scalar OsgEarthNet.uav[33] utilizationEnergyOverdrawMaintenance 0
scalar OsgEarthNet.uav[33] utilizationCountMissions 46
scalar OsgEarthNet.uav[33] utilizationCountManeuversMission 498
scalar OsgEarthNet.uav[33] utilizationCountManeuversMaintenance 92
scalar OsgEarthNet.uav[33] utilizationCountChargeState 46
scalar OsgEarthNet.uav[33] utilizationCountOverdrawnAfterMission 0
scalar OsgEarthNet.uav[33] utilizationCountIdleState 47
scalar OsgEarthNet.uav[33] utilizationFail 0
scalar OsgEarthNet.uav[33] simulationTime 259200
scalar OsgEarthNet.uav[34] utilizationSecMission 25471.56872025
scalar OsgEarthNet.uav[34] utilizationSecMaintenance 11283.049630525
scalar OsgEarthNet.uav[34] utilizationSecCharge 136340
scalar OsgEarthNet.uav[34] utilizationSecIdle 86105.380649226
scalar OsgEarthNet.uav[34] utilizationEnergyMission 116755.84261322
scalar OsgEarthNet.uav[34] utilizationEnergyMaintenance 53582.120999942
scalar OsgEarthNet.uav[34] utilizationEnergyCharge 170055.30029297
scalar OsgEarthNet.uav[34] utilizationEnergyOverdrawMission 0
scalar OsgEarthNet.uav[34] utilizationEnergyOverdrawMaintenance 0
scalar OsgEarthNet.uav[34] utilizationCountMissions 37
scalar OsgEarthNet.uav[34] utilizationCountManeuversMission 427
scalar OsgEarthNet.uav[34] utilizationCountManeuversMaintenance 75
scalar OsgEarthNet.uav[34] utilizationCountChargeState 37
scalar OsgEarthNet.uav[34] utilizationCountOverdrawnAfterMission 0
scalar OsgEarthNet.uav[34] utilizationCountIdleState 38
scalar OsgEarthNet.uav[34] utilizationFail 0
scalar OsgEarthNet.uav[34] simulationTime 259200
scalar OsgEarthNet.uav[35] utilizationSecMission 844.68187799363
scalar OsgEarthNet.uav[35] utilizationSecMaintenance 168.94893785192
scalar OsgEarthNet.uav[35] utilizationSecCharge 3830
scalar OsgEarthNet.uav[35] utilizationSecIdle 254356.36818415
scalar OsgEarthNet.uav[35] utilizationEnergyMission 4003.0427246094
scalar OsgEarthNet.uav[35] utilizationEnergyMaintenance 758.3870048523
scalar OsgEarthNet.uav[35] utilizationEnergyCharge 4829.8203125
scalar OsgEarthNet.uav[35] utilizationEnergyOverdrawMission 0
scalar OsgEarthNet.uav[35] utilizationEnergyOverdrawMaintenance 0
scalar OsgEarthNet.uav[35] utilizationCountMissions 1
scalar OsgEarthNet.uav[35] utilizationCountManeuversMission 13
scalar OsgEarthNet.uav[35] utilizationCountManeuversMaintenance 2
scalar OsgEarthNet.uav[35] utilizationCountChargeState 1
scalar OsgEarthNet.uav[35] utilizationCountOverdrawnAfterMission 0
scalar OsgEarthNet.uav[35] utilizationCountIdleState 2
scalar OsgEarthNet.uav[35] utilizationFail 0
scalar OsgEarthNet.uav[35] simulationTime 259200
scalar OsgEarthNet.uav[36] utilizationSecMission 10632.055119392
scalar OsgEarthNet.uav[36] utilizationSecMaintenance 4455.6745445608
scalar OsgEarthNet.uav[36] utilizationSecCharge 55380
scalar OsgEarthNet.uav[36] utilizationSecIdle 188732.26933605
scalar OsgEarthNet.uav[36] utilizationEnergyMission 48395.769767761
scalar OsgEarthNet.uav[36] utilizationEnergyMaintenance 20676.699737549
scalar OsgEarthNet.uav[36] utilizationEnergyCharge 69168.342773438
scalar OsgEarthNet.uav[36] utilizationEnergyOverdrawMission 0
scalar OsgEarthNet.uav[36] utilizationEnergyOverdrawMaintenance 0
scalar OsgEarthNet.uav[36] utilizationCountMissions 15
scalar OsgEarthNet.uav[36] utilizationCountManeuversMission 178
scalar OsgEarthNet.uav[36] utilizationCountManeuversMaintenance 30
scalar OsgEarthNet.uav[36] utilizationCountChargeState 15
scalar OsgEarthNet.uav[36] utilizationCountOverdrawnAfterMission 0
scalar OsgEarthNet.uav[36] utilizationCountIdleState 16
scalar OsgEarthNet.uav[36] utilizationFail 0
scalar OsgEarthNet.uav[36] simulationTime 259200
scalar OsgEarthNet.uav[37] utilizationSecMission 29765.901844288
scalar OsgEarthNet.uav[37] utilizationSecMaintenance 11462.245279795
scalar OsgEarthNet.uav[37] utilizationSecCharge 153240
scalar OsgEarthNet.uav[37] utilizationSecIdle 64731.851875917
scalar OsgEarthNet.uav[37] utilizationEnergyMission 136807.34645844
scalar OsgEarthNet.uav[37] utilizationEnergyMaintenance 53777.397224426
scalar OsgEarthNet.uav[37] utilizationEnergyCharge 190986.75488281
scalar OsgEarthNet.uav[37] utilizationEnergyOverdrawMission 0
scalar OsgEarthNet.uav[37] utilizationEnergyOverdrawMaintenance 0
scalar OsgEarthNet.uav[37] utilizationCountMissions 42
scalar OsgEarthNet.uav[37] utilizationCountManeuversMission 486
scalar OsgEarthNet.uav[37] utilizationCountManeuversMaintenance 84
scalar OsgEarthNet.uav[37] utilizationCountChargeState 42
scalar OsgEarthNet.uav[37] utilizationCountOverdrawnAfterMission 0
scalar OsgEarthNet.uav[37] utilizationCountIdleState 43
scalar OsgEarthNet.uav[37] utilizationFail 0
scalar OsgEarthNet.uav[37] simulationTime 259200
scalar OsgEarthNet.uav[38] utilizationSecMission 836.61593493339
scalar OsgEarthNet.uav[38] utilizationSecMaintenance 137.80524816792
scalar OsgEarthNet.uav[38] utilizationSecCharge 3590
scalar OsgEarthNet.uav[38] utilizationSecIdle 254635.5778169
scalar OsgEarthNet.uav[38] utilizationEnergyMission 3918.6044616699
scalar OsgEarthNet.uav[38] utilizationEnergyMaintenance 595.3853225708
scalar OsgEarthNet.uav[38] utilizationEnergyCharge 4422.2392578125
scalar OsgEarthNet.uav[38] utilizationEnergyOverdrawMission 0
scalar OsgEarthNet.uav[38] utilizationEnergyOverdrawMaintenance 0
scalar OsgEarthNet.uav[38] utilizationCountMissions 1
scalar OsgEarthNet.uav[38] utilizationCountManeuversMission 13
scalar OsgEarthNet.uav[38] utilizationCountManeuversMaintenance 2
scalar OsgEarthNet.uav[38] utilizationCountChargeState 1
scalar OsgEarthNet.uav[38] utilizationCountOverdrawnAfterMission 0
scalar OsgEarthNet.uav[38] utilizationCountIdleState 2
scalar OsgEarthNet.uav[38] utilizationFail 0
scalar OsgEarthNet.uav[38] simulationTime 259200
scalar OsgEarthNet.uav[39] utilizationSecMission 623.68863475643
scalar OsgEarthNet.uav[39] utilizationSecMaintenance 394.94199877579
scalar OsgEarthNet.uav[39] utilizationSecCharge 3790
scalar OsgEarthNet.uav[39] utilizationSecIdle 254391.36836647
scalar OsgEarthNet.uav[39] utilizationEnergyMission 2550.3081054688
scalar OsgEarthNet.uav[39] utilizationEnergyMaintenance 1961.8079147339
scalar OsgEarthNet.uav[39] utilizationEnergyCharge 4737.8364257812
scalar OsgEarthNet.uav[39] utilizationEnergyOverdrawMission 0
scalar OsgEarthNet.uav[39] utilizationEnergyOverdrawMaintenance 0
scalar OsgEarthNet.uav[39] utilizationCountMissions 1
scalar OsgEarthNet.uav[39] utilizationCountManeuversMission 10
scalar OsgEarthNet.uav[39] utilizationCountManeuversMaintenance 2
scalar OsgEarthNet.uav[39] utilizationCountChargeState 1
scalar OsgEarthNet.uav[39] utilizationCountOverdrawnAfterMission 0
scalar OsgEarthNet.uav[39] utilizationCountIdleState 2
scalar OsgEarthNet.uav[39] utilizationFail 0
scalar OsgEarthNet.uav[39] simulationTime 259200
scalar OsgEarthNet.uav[40] utilizationSecMission 698.84532193436
scalar OsgEarthNet.uav[40] utilizationSecMaintenance 323.03163670533
scalar OsgEarthNet.uav[40] utilizationSecCharge 3770
scalar OsgEarthNet.uav[40] utilizationSecIdle 254408.12204136
scalar OsgEarthNet.uav[40] utilizationEnergyMission 3132.4941711426
scalar OsgEarthNet.uav[40] utilizationEnergyMaintenance 1607.8532028198
scalar OsgEarthNet.uav[40] utilizationEnergyCharge 4740.3466796875
scalar OsgEarthNet.uav[40] utilizationEnergyOverdrawMission 0
scalar OsgEarthNet.uav[40] utilizationEnergyOverdrawMaintenance 0
scalar OsgEarthNet.uav[40] utilizationCountMissions 1
scalar OsgEarthNet.uav[40] utilizationCountManeuversMission 10
scalar OsgEarthNet.uav[40] utilizationCountManeuversMaintenance 2
scalar OsgEarthNet.uav[40] utilizationCountChargeState 1
scalar OsgEarthNet.uav[40] utilizationCountOverdrawnAfterMission 0
scalar OsgEarthNet.uav[40] utilizationCountIdleState 2
scalar OsgEarthNet.uav[40] utilizationFail 0
scalar OsgEarthNet.uav[40] simulationTime 259200
scalar OsgEarthNet.uav[41] utilizationSecMission 26253.897213446
scalar OsgEarthNet.uav[41] utilizationSecMaintenance 11748.786678808
scalar OsgEarthNet.uav[41] utilizationSecCharge 138430
scalar OsgEarthNet.uav[41] utilizationSecIdle 82767.315107746
scalar OsgEarthNet.uav[41] utilizationEnergyMission 119414.90855878
scalar OsgEarthNet.uav[41] utilizationEnergyMaintenance 56157.459766388
scalar OsgEarthNet.uav[41] utilizationEnergyCharge 171906.38085938
scalar OsgEarthNet.uav[41] utilizationEnergyOverdrawMission 0
scalar OsgEarthNet.uav[41] utilizationEnergyOverdrawMaintenance 0
scalar OsgEarthNet.uav[41] utilizationCountMissions 38
scalar OsgEarthNet.uav[41] utilizationCountManeuversMission 428
scalar OsgEarthNet.uav[41] utilizationCountManeuversMaintenance 77
scalar OsgEarthNet.uav[41] utilizationCountChargeState 38
scalar OsgEarthNet.uav[41] utilizationCountOverdrawnAfterMission 0
scalar OsgEarthNet.uav[41] utilizationCountIdleState 39
scalar OsgEarthNet.uav[41] utilizationFail 0
scalar OsgEarthNet.uav[41] simulationTime 259200
scalar OsgEarthNet.uav[42] utilizationSecMission 694.00169469977
scalar OsgEarthNet.uav[42] utilizationSecMaintenance 338.49695459722
scalar OsgEarthNet.uav[42] utilizationSecCharge 3640
scalar OsgEarthNet.uav[42] utilizationSecIdle 254527.5003507
scalar OsgEarthNet.uav[42] utilizationEnergyMission 2979.8987197876
scalar OsgEarthNet.uav[42] utilizationEnergyMaintenance 1529.0044670105
scalar OsgEarthNet.uav[42] utilizationEnergyCharge 4508.8999023438
scalar OsgEarthNet.uav[42] utilizationEnergyOverdrawMission 0
scalar OsgEarthNet.uav[42] utilizationEnergyOverdrawMaintenance 0
scalar OsgEarthNet.uav[42] utilizationCountMissions 1
scalar OsgEarthNet.uav[42] utilizationCountManeuversMission 13
scalar OsgEarthNet.uav[42] utilizationCountManeuversMaintenance 2
scalar OsgEarthNet.uav[42] utilizationCountChargeState 1
scalar OsgEarthNet.uav[42] utilizationCountOverdrawnAfterMission 0
scalar OsgEarthNet.uav[42] utilizationCountIdleState 2
scalar OsgEarthNet.uav[42] utilizationFail 0
scalar OsgEarthNet.uav[42] simulationTime 259200
scalar OsgEarthNet.uav[43] utilizationSecMission 760.62515258028
scalar OsgEarthNet.uav[43] utilizationSecMaintenance 291.95923480269
scalar OsgEarthNet.uav[43] utilizationSecCharge 3780
scalar OsgEarthNet.uav[43] utilizationSecIdle 254367.41461262
scalar OsgEarthNet.uav[43] utilizationEnergyMission 3287.1191482544
scalar OsgEarthNet.uav[43] utilizationEnergyMaintenance 1444.3294906616
scalar OsgEarthNet.uav[43] utilizationEnergyCharge 4731.44921875
scalar OsgEarthNet.uav[43] utilizationEnergyOverdrawMission 0
scalar OsgEarthNet.uav[43] utilizationEnergyOverdrawMaintenance 0
scalar OsgEarthNet.uav[43] utilizationCountMissions 1
scalar OsgEarthNet.uav[43] utilizationCountManeuversMission 12
scalar OsgEarthNet.uav[43] utilizationCountManeuversMaintenance 2
scalar OsgEarthNet.uav[43] utilizationCountChargeState 1
scalar OsgEarthNet.uav[43] utilizationCountOverdrawnAfterMission 0
scalar OsgEarthNet.uav[43] utilizationCountIdleState 2
scalar OsgEarthNet.uav[43] utilizationFail 0
scalar OsgEarthNet.uav[43] simulationTime 259200
scalar OsgEarthNet.uav[44] utilizationSecMission 553.12566654921
scalar OsgEarthNet.uav[44] utilizationSecMaintenance 489.82638271256
scalar OsgEarthNet.uav[44] utilizationSecCharge 3910
scalar OsgEarthNet.uav[44] utilizationSecIdle 254247.04695074
scalar OsgEarthNet.uav[44] utilizationEnergyMission 2596.001373291
scalar OsgEarthNet.uav[44] utilizationEnergyMaintenance 2322.8163261414
scalar OsgEarthNet.uav[44] utilizationEnergyCharge 4994.4501953125
scalar OsgEarthNet.uav[44] utilizationEnergyOverdrawMission 0
scalar OsgEarthNet.uav[44] utilizationEnergyOverdrawMaintenance 0
scalar OsgEarthNet.uav[44] utilizationCountMissions 1
scalar OsgEarthNet.uav[44] utilizationCountManeuversMission 9
scalar OsgEarthNet.uav[44] utilizationCountManeuversMaintenance 2
scalar OsgEarthNet.uav[44] utilizationCountChargeState 1
scalar OsgEarthNet.uav[44] utilizationCountOverdrawnAfterMission 0
scalar OsgEarthNet.uav[44] utilizationCountIdleState 2
scalar OsgEarthNet.uav[44] utilizationFail 0
scalar OsgEarthNet.uav[44] simulationTime 259200
scalar OsgEarthNet.uav[45] utilizationSecMission 694.00169469977
scalar OsgEarthNet.uav[45] utilizationSecMaintenance 338.49695459722
scalar OsgEarthNet.uav[45] utilizationSecCharge 3830
scalar OsgEarthNet.uav[45] utilizationSecIdle 254337.5003507
scalar OsgEarthNet.uav[45] utilizationEnergyMission 3269.3798217773
scalar OsgEarthNet.uav[45] utilizationEnergyMaintenance 1577.1013298035
scalar OsgEarthNet.uav[45] utilizationEnergyCharge 4846.478515625
scalar OsgEarthNet.uav[45] utilizationEnergyOverdrawMission 0
scalar OsgEarthNet.uav[45] utilizationEnergyOverdrawMaintenance 0
scalar OsgEarthNet.uav[45] utilizationCountMissions 1
scalar OsgEarthNet.uav[45] utilizationCountManeuversMission 13
scalar OsgEarthNet.uav[45] utilizationCountManeuversMaintenance 2
scalar OsgEarthNet.uav[45] utilizationCountChargeState 1
scalar OsgEarthNet.uav[45] utilizationCountOverdrawnAfterMission 0
scalar OsgEarthNet.uav[45] utilizationCountIdleState 2
scalar OsgEarthNet.uav[45] utilizationFail 0
scalar OsgEarthNet.uav[45] simulationTime 259200
scalar OsgEarthNet.uav[46] utilizationSecMission 750.20472747826
scalar OsgEarthNet.uav[46] utilizationSecMaintenance 335.16822070369
scalar OsgEarthNet.uav[46] utilizationSecCharge 3970
scalar OsgEarthNet.uav[46] utilizationSecIdle 254144.62605182
scalar OsgEarthNet.uav[46] utilizationEnergyMission 3488.8683776855
scalar OsgEarthNet.uav[46] utilizationEnergyMaintenance 1595.723400116
scalar OsgEarthNet.uav[46] utilizationEnergyCharge 5084.58984375
scalar OsgEarthNet.uav[46] utilizationEnergyOverdrawMission 0
scalar OsgEarthNet.uav[46] utilizationEnergyOverdrawMaintenance 0
scalar OsgEarthNet.uav[46] utilizationCountMissions 1
scalar OsgEarthNet.uav[46] utilizationCountManeuversMission 11
scalar OsgEarthNet.uav[46] utilizationCountManeuversMaintenance 2
scalar OsgEarthNet.uav[46] utilizationCountChargeState 1
scalar OsgEarthNet.uav[46] utilizationCountOverdrawnAfterMission 0
scalar OsgEarthNet.uav[46] utilizationCountIdleState 2
scalar OsgEarthNet.uav[46] utilizationFail 0
scalar OsgEarthNet.uav[46] simulationTime 259200
scalar OsgEarthNet.uav[47] utilizationSecMission 25166.420313886
scalar OsgEarthNet.uav[47] utilizationSecMaintenance 16500.009700806
scalar OsgEarthNet.uav[47] utilizationSecCharge 156390
scalar OsgEarthNet.uav[47] utilizationSecIdle 61143.568985308
scalar OsgEarthNet.uav[47] utilizationEnergyMission 116980.62811279
scalar OsgEarthNet.uav[47] utilizationEnergyMaintenance 77589.797580719
scalar OsgEarthNet.uav[47] utilizationEnergyCharge 194570.44995117
scalar OsgEarthNet.uav[47] utilizationEnergyOverdrawMission 0
scalar OsgEarthNet.uav[47] utilizationEnergyOverdrawMaintenance 0
scalar OsgEarthNet.uav[47] utilizationCountMissions 43
scalar OsgEarthNet.uav[47] utilizationCountManeuversMission 417
scalar OsgEarthNet.uav[47] utilizationCountManeuversMaintenance 86
scalar OsgEarthNet.uav[47] utilizationCountChargeState 43
scalar OsgEarthNet.uav[47] utilizationCountOverdrawnAfterMission 0
scalar OsgEarthNet.uav[47] utilizationCountIdleState 44
scalar OsgEarthNet.uav[47] utilizationFail 0
scalar OsgEarthNet.uav[47] simulationTime 259200
scalar OsgEarthNet.uav[48] utilizationSecMission 27852.224497407
scalar OsgEarthNet.uav[48] utilizationSecMaintenance 16409.860431657
scalar OsgEarthNet.uav[48] utilizationSecCharge 165060
scalar OsgEarthNet.uav[48] utilizationSecIdle 49877.914070936
scalar OsgEarthNet.uav[48] utilizationEnergyMission 130125.99599838
scalar OsgEarthNet.uav[48] utilizationEnergyMaintenance 76547.517131805
scalar OsgEarthNet.uav[48] utilizationEnergyCharge 205922.38330078
scalar OsgEarthNet.uav[48] utilizationEnergyOverdrawMission 0
scalar OsgEarthNet.uav[48] utilizationEnergyOverdrawMaintenance 0
scalar OsgEarthNet.uav[48] utilizationCountMissions 45
scalar OsgEarthNet.uav[48] utilizationCountManeuversMission 468
scalar OsgEarthNet.uav[48] utilizationCountManeuversMaintenance 90
scalar OsgEarthNet.uav[48] utilizationCountChargeState 45
scalar OsgEarthNet.uav[48] utilizationCountOverdrawnAfterMission 0
scalar OsgEarthNet.uav[48] utilizationCountIdleState 46
scalar OsgEarthNet.uav[48] utilizationFail 0
scalar OsgEarthNet.uav[48] simulationTime 259200
scalar OsgEarthNet.uav[49] utilizationSecMission 684.4732299383
scalar OsgEarthNet.uav[49] utilizationSecMaintenance 298.56834692969
scalar OsgEarthNet.uav[49] utilizationSecCharge 3710
scalar OsgEarthNet.uav[49] utilizationSecIdle 254506.95742313
scalar OsgEarthNet.uav[49] utilizationEnergyMission 3167.8869628906
scalar OsgEarthNet.uav[49] utilizationEnergyMaintenance 1454.9113693237
scalar OsgEarthNet.uav[49] utilizationEnergyCharge 4622.7993164062
scalar OsgEarthNet.uav[49] utilizationEnergyOverdrawMission 0
scalar OsgEarthNet.uav[49] utilizationEnergyOverdrawMaintenance 0
scalar OsgEarthNet.uav[49] utilizationCountMissions 1
scalar OsgEarthNet.uav[49] utilizationCountManeuversMission 11
scalar OsgEarthNet.uav[49] utilizationCountManeuversMaintenance 2
scalar OsgEarthNet.uav[49] utilizationCountChargeState 1
scalar OsgEarthNet.uav[49] utilizationCountOverdrawnAfterMission 0
scalar OsgEarthNet.uav[49] utilizationCountIdleState 2
scalar OsgEarthNet.uav[49] utilizationFail 0
scalar OsgEarthNet.uav[49] simulationTime 259200
scalar OsgEarthNet.uav[50] utilizationSecMission 684.4732299383
scalar OsgEarthNet.uav[50] utilizationSecMaintenance 298.56834692969
scalar OsgEarthNet.uav[50] utilizationSecCharge 3730
scalar OsgEarthNet.uav[50] utilizationSecIdle 254486.95742313
scalar OsgEarthNet.uav[50] utilizationEnergyMission 3294.3226623535
scalar OsgEarthNet.uav[50] utilizationEnergyMaintenance 1393.5616073608
scalar OsgEarthNet.uav[50] utilizationEnergyCharge 4687.8828125
scalar OsgEarthNet.uav[50] utilizationEnergyOverdrawMission 0
scalar OsgEarthNet.uav[50] utilizationEnergyOverdrawMaintenance 0
scalar OsgEarthNet.uav[50] utilizationCountMissions 1
scalar OsgEarthNet.uav[50] utilizationCountManeuversMission 11
scalar OsgEarthNet.uav[50] utilizationCountManeuversMaintenance 2
scalar OsgEarthNet.uav[50] utilizationCountChargeState 1
scalar OsgEarthNet.uav[50] utilizationCountOverdrawnAfterMission 0
scalar OsgEarthNet.uav[50] utilizationCountIdleState 2
scalar OsgEarthNet.uav[50] utilizationFail 0
scalar OsgEarthNet.uav[50] simulationTime 259200
scalar OsgEarthNet.uav[51] utilizationSecMission 27396.369036159
scalar OsgEarthNet.uav[51] utilizationSecMaintenance 13353.160001676
scalar OsgEarthNet.uav[51] utilizationSecCharge 150177.09741807
scalar OsgEarthNet.uav[51] utilizationSecIdle 68273.372544095
scalar OsgEarthNet.uav[51] utilizationEnergyMission 125998.92875671
scalar OsgEarthNet.uav[51] utilizationEnergyMaintenance 61483.928325653
scalar OsgEarthNet.uav[51] utilizationEnergyCharge 187938.30908203
scalar OsgEarthNet.uav[51] utilizationEnergyOverdrawMission 0
scalar OsgEarthNet.uav[51] utilizationEnergyOverdrawMaintenance 0
scalar OsgEarthNet.uav[51] utilizationCountMissions 41
scalar OsgEarthNet.uav[51] utilizationCountManeuversMission 453
scalar OsgEarthNet.uav[51] utilizationCountManeuversMaintenance 82
scalar OsgEarthNet.uav[51] utilizationCountChargeState 41
scalar OsgEarthNet.uav[51] utilizationCountOverdrawnAfterMission 0
scalar OsgEarthNet.uav[51] utilizationCountIdleState 41
scalar OsgEarthNet.uav[51] utilizationFail 0
scalar OsgEarthNet.uav[51] simulationTime 259200
scalar OsgEarthNet.uav[52] utilizationSecMission 28890.042958701
scalar OsgEarthNet.uav[52] utilizationSecMaintenance 15962.174512963
scalar OsgEarthNet.uav[52] utilizationSecCharge 166001.53969272
scalar OsgEarthNet.uav[52] utilizationSecIdle 48346.241835621
scalar OsgEarthNet.uav[52] utilizationEnergyMission 133395.32108307
scalar OsgEarthNet.uav[52] utilizationEnergyMaintenance 76129.888851166
scalar OsgEarthNet.uav[52] utilizationEnergyCharge 209223.32250977
scalar OsgEarthNet.uav[52] utilizationEnergyOverdrawMission 0
scalar OsgEarthNet.uav[52] utilizationEnergyOverdrawMaintenance 0
scalar OsgEarthNet.uav[52] utilizationCountMissions 45
scalar OsgEarthNet.uav[52] utilizationCountManeuversMission 464
scalar OsgEarthNet.uav[52] utilizationCountManeuversMaintenance 90
scalar OsgEarthNet.uav[52] utilizationCountChargeState 45
scalar OsgEarthNet.uav[52] utilizationCountOverdrawnAfterMission 0
scalar OsgEarthNet.uav[52] utilizationCountIdleState 45
scalar OsgEarthNet.uav[52] utilizationFail 0
scalar OsgEarthNet.uav[52] simulationTime 259200
scalar OsgEarthNet.uav[53] utilizationSecMission 760.62515258028
scalar OsgEarthNet.uav[53] utilizationSecMaintenance 291.95923480269
scalar OsgEarthNet.uav[53] utilizationSecCharge 3750
scalar OsgEarthNet.uav[53] utilizationSecIdle 254397.41461262
scalar OsgEarthNet.uav[53] utilizationEnergyMission 3245.1889343262
scalar OsgEarthNet.uav[53] utilizationEnergyMaintenance 1457.9121017456
scalar OsgEarthNet.uav[53] utilizationEnergyCharge 4703.1020507812
scalar OsgEarthNet.uav[53] utilizationEnergyOverdrawMission 0
scalar OsgEarthNet.uav[53] utilizationEnergyOverdrawMaintenance 0
scalar OsgEarthNet.uav[53] utilizationCountMissions 1
scalar OsgEarthNet.uav[53] utilizationCountManeuversMission 12
scalar OsgEarthNet.uav[53] utilizationCountManeuversMaintenance 2
scalar OsgEarthNet.uav[53] utilizationCountChargeState 1
scalar OsgEarthNet.uav[53] utilizationCountOverdrawnAfterMission 0
scalar OsgEarthNet.uav[53] utilizationCountIdleState 2
scalar OsgEarthNet.uav[53] utilizationFail 0
scalar OsgEarthNet.uav[53] simulationTime 259200
scalar OsgEarthNet.uav[54] utilizationSecMission 24651.554587395
scalar OsgEarthNet.uav[54] utilizationSecMaintenance 12909.770599919
scalar OsgEarthNet.uav[54] utilizationSecCharge 137463.15287125
scalar OsgEarthNet.uav[54] utilizationSecIdle 84175.520941439
scalar OsgEarthNet.uav[54] utilizationEnergyMission 114234.54718781
scalar OsgEarthNet.uav[54] utilizationEnergyMaintenance 60597.826496124
scalar OsgEarthNet.uav[54] utilizationEnergyCharge 172253.3984375
scalar OsgEarthNet.uav[54] utilizationEnergyOverdrawMission 0
scalar OsgEarthNet.uav[54] utilizationEnergyOverdrawMaintenance 0
scalar OsgEarthNet.uav[54] utilizationCountMissions 38
scalar OsgEarthNet.uav[54] utilizationCountManeuversMission 413
scalar OsgEarthNet.uav[54] utilizationCountManeuversMaintenance 76
scalar OsgEarthNet.uav[54] utilizationCountChargeState 38
scalar OsgEarthNet.uav[54] utilizationCountOverdrawnAfterMission 0
scalar OsgEarthNet.uav[54] utilizationCountIdleState 38
scalar OsgEarthNet.uav[54] utilizationFail 0
scalar OsgEarthNet.uav[54] simulationTime 259200
scalar OsgEarthNet.uav[55] utilizationSecMission 694.00169469977
scalar OsgEarthNet.uav[55] utilizationSecMaintenance 338.49695459722
scalar OsgEarthNet.uav[55] utilizationSecCharge 3680
scalar OsgEarthNet.uav[55] utilizationSecIdle 254487.5003507
scalar OsgEarthNet.uav[55] utilizationEnergyMission 3027.853187561
scalar OsgEarthNet.uav[55] utilizationEnergyMaintenance 1563.4574699402
scalar OsgEarthNet.uav[55] utilizationEnergyCharge 4591.3139648438
scalar OsgEarthNet.uav[55] utilizationEnergyOverdrawMission 0
scalar OsgEarthNet.uav[55] utilizationEnergyOverdrawMaintenance 0
scalar OsgEarthNet.uav[55] utilizationCountMissions 1
scalar OsgEarthNet.uav[55] utilizationCountManeuversMission 13
scalar OsgEarthNet.uav[55] utilizationCountManeuversMaintenance 2
scalar OsgEarthNet.uav[55] utilizationCountChargeState 1
scalar OsgEarthNet.uav[55] utilizationCountOverdrawnAfterMission 0
scalar OsgEarthNet.uav[55] utilizationCountIdleState 2
scalar OsgEarthNet.uav[55] utilizationFail 0
scalar OsgEarthNet.uav[55] simulationTime 259200
scalar OsgEarthNet.uav[56] utilizationSecMission 29514.051118598
scalar OsgEarthNet.uav[56] utilizationSecMaintenance 14833.164954524
scalar OsgEarthNet.uav[56] utilizationSecCharge 164750.78292688
scalar OsgEarthNet.uav[56] utilizationSecIdle 50102
scalar OsgEarthNet.uav[56] utilizationEnergyMission 138912.69398597
scalar OsgEarthNet.uav[56] utilizationEnergyMaintenance 68012.555355072
scalar OsgEarthNet.uav[56] utilizationEnergyCharge 206374.27246094
scalar OsgEarthNet.uav[56] utilizationEnergyOverdrawMission 0
scalar OsgEarthNet.uav[56] utilizationEnergyOverdrawMaintenance 0
scalar OsgEarthNet.uav[56] utilizationCountMissions 45
scalar OsgEarthNet.uav[56] utilizationCountManeuversMission 500
scalar OsgEarthNet.uav[56] utilizationCountManeuversMaintenance 89
scalar OsgEarthNet.uav[56] utilizationCountChargeState 45
scalar OsgEarthNet.uav[56] utilizationCountOverdrawnAfterMission 0
scalar OsgEarthNet.uav[56] utilizationCountIdleState 45
scalar OsgEarthNet.uav[56] utilizationFail 0
scalar OsgEarthNet.uav[56] simulationTime 259200
scalar OsgEarthNet.uav[57] utilizationSecMission 8318.9851405579
scalar OsgEarthNet.uav[57] utilizationSecMaintenance 5844.3826645579
scalar OsgEarthNet.uav[57] utilizationSecCharge 52130
scalar OsgEarthNet.uav[57] utilizationSecIdle 192906.63119488
scalar OsgEarthNet.uav[57] utilizationEnergyMission 39097.852085113
scalar OsgEarthNet.uav[57] utilizationEnergyMaintenance 26284.210865021
scalar OsgEarthNet.uav[57] utilizationEnergyCharge 65318.270019531
scalar OsgEarthNet.uav[57] utilizationEnergyOverdrawMission 0
scalar OsgEarthNet.uav[57] utilizationEnergyOverdrawMaintenance 0
scalar OsgEarthNet.uav[57] utilizationCountMissions 14
scalar OsgEarthNet.uav[57] utilizationCountManeuversMission 138
scalar OsgEarthNet.uav[57] utilizationCountManeuversMaintenance 28
scalar OsgEarthNet.uav[57] utilizationCountChargeState 14
scalar OsgEarthNet.uav[57] utilizationCountOverdrawnAfterMission 0
scalar OsgEarthNet.uav[57] utilizationCountIdleState 15
scalar OsgEarthNet.uav[57] utilizationFail 0
scalar OsgEarthNet.uav[57] simulationTime 259200
scalar OsgEarthNet.uav[58] utilizationSecMission 6625.577862033
scalar OsgEarthNet.uav[58] utilizationSecMaintenance 3038.1193920051
scalar OsgEarthNet.uav[58] utilizationSecCharge 36560
scalar OsgEarthNet.uav[58] utilizationSecIdle 212976.30174596
scalar OsgEarthNet.uav[58] utilizationEnergyMission 31161.223854065
scalar OsgEarthNet.uav[58] utilizationEnergyMaintenance 14442.511497498
scalar OsgEarthNet.uav[58] utilizationEnergyCharge 45454.857421875
scalar OsgEarthNet.uav[58] utilizationEnergyOverdrawMission 0
scalar OsgEarthNet.uav[58] utilizationEnergyOverdrawMaintenance 0
scalar OsgEarthNet.uav[58] utilizationCountMissions 10
scalar OsgEarthNet.uav[58] utilizationCountManeuversMission 107
scalar OsgEarthNet.uav[58] utilizationCountManeuversMaintenance 20
scalar OsgEarthNet.uav[58] utilizationCountChargeState 10
scalar OsgEarthNet.uav[58] utilizationCountOverdrawnAfterMission 0
scalar OsgEarthNet.uav[58] utilizationCountIdleState 11
scalar OsgEarthNet.uav[58] utilizationFail 0
scalar OsgEarthNet.uav[58] simulationTime 259200
scalar OsgEarthNet.uav[59] utilizationSecMission 760.62515258028
scalar OsgEarthNet.uav[59] utilizationSecMaintenance 291.95923480269
scalar OsgEarthNet.uav[59] utilizationSecCharge 3730
scalar OsgEarthNet.uav[59] utilizationSecIdle 254417.41461262
scalar OsgEarthNet.uav[59] utilizationEnergyMission 3262.8196716309
scalar OsgEarthNet.uav[59] utilizationEnergyMaintenance 1422.1214828491
scalar OsgEarthNet.uav[59] utilizationEnergyCharge 4684.9365234375
scalar OsgEarthNet.uav[59] utilizationEnergyOverdrawMission 0
scalar OsgEarthNet.uav[59] utilizationEnergyOverdrawMaintenance 0
scalar OsgEarthNet.uav[59] utilizationCountMissions 1
scalar OsgEarthNet.uav[59] utilizationCountManeuversMission 12
scalar OsgEarthNet.uav[59] utilizationCountManeuversMaintenance 2
scalar OsgEarthNet.uav[59] utilizationCountChargeState 1
scalar OsgEarthNet.uav[59] utilizationCountOverdrawnAfterMission 0
scalar OsgEarthNet.uav[59] utilizationCountIdleState 2
scalar OsgEarthNet.uav[59] utilizationFail 0
scalar OsgEarthNet.uav[59] simulationTime 259200
scalar OsgEarthNet.uav[60] utilizationSecMission 760.62515258028
scalar OsgEarthNet.uav[60] utilizationSecMaintenance 223.6438949726
scalar OsgEarthNet.uav[60] utilizationSecCharge 3700
scalar OsgEarthNet.uav[60] utilizationSecIdle 254515.72995245
scalar OsgEarthNet.uav[60] utilizationEnergyMission 3471.1901092529
scalar OsgEarthNet.uav[60] utilizationEnergyMaintenance 1166.5062980652
scalar OsgEarthNet.uav[60] utilizationEnergyCharge 4637.6948242188
scalar OsgEarthNet.uav[60] utilizationEnergyOverdrawMission 0
scalar OsgEarthNet.uav[60] utilizationEnergyOverdrawMaintenance 0
scalar OsgEarthNet.uav[60] utilizationCountMissions 1
scalar OsgEarthNet.uav[60] utilizationCountManeuversMission 12
scalar OsgEarthNet.uav[60] utilizationCountManeuversMaintenance 2
scalar OsgEarthNet.uav[60] utilizationCountChargeState 1
scalar OsgEarthNet.uav[60] utilizationCountOverdrawnAfterMission 0
scalar OsgEarthNet.uav[60] utilizationCountIdleState 2
scalar OsgEarthNet.uav[60] utilizationFail 0
scalar OsgEarthNet.uav[60] simulationTime 259200
scalar OsgEarthNet.uav[61] utilizationSecMission 655.55330183502
scalar OsgEarthNet.uav[61] utilizationSecMaintenance 334.5505930207
scalar OsgEarthNet.uav[61] utilizationSecCharge 3600
scalar OsgEarthNet.uav[61] utilizationSecIdle 254609.89510514
scalar OsgEarthNet.uav[61] utilizationEnergyMission 2910.5556945801
scalar OsgEarthNet.uav[61] utilizationEnergyMaintenance 1566.2758903503
scalar OsgEarthNet.uav[61] utilizationEnergyCharge 4476.833984375
scalar OsgEarthNet.uav[61] utilizationEnergyOverdrawMission 0
scalar OsgEarthNet.uav[61] utilizationEnergyOverdrawMaintenance 0
scalar OsgEarthNet.uav[61] utilizationCountMissions 1
scalar OsgEarthNet.uav[61] utilizationCountManeuversMission 10
scalar OsgEarthNet.uav[61] utilizationCountManeuversMaintenance 2
scalar OsgEarthNet.uav[61] utilizationCountChargeState 1
scalar OsgEarthNet.uav[61] utilizationCountOverdrawnAfterMission 0
scalar OsgEarthNet.uav[61] utilizationCountIdleState 2
scalar OsgEarthNet.uav[61] utilizationFail 0
scalar OsgEarthNet.uav[61] simulationTime 259200
scalar OsgEarthNet.uav[62] utilizationSecMission 694.00169469977
scalar OsgEarthNet.uav[62] utilizationSecMaintenance 338.49695459722
scalar OsgEarthNet.uav[62] utilizationSecCharge 3660
scalar OsgEarthNet.uav[62] utilizationSecIdle 254507.5003507
scalar OsgEarthNet.uav[62] utilizationEnergyMission 2994.1371536255
scalar OsgEarthNet.uav[62] utilizationEnergyMaintenance 1567.8971672058
scalar OsgEarthNet.uav[62] utilizationEnergyCharge 4562.0341796875
scalar OsgEarthNet.uav[62] utilizationEnergyOverdrawMission 0
scalar OsgEarthNet.uav[62] utilizationEnergyOverdrawMaintenance 0
scalar OsgEarthNet.uav[62] utilizationCountMissions 1
scalar OsgEarthNet.uav[62] utilizationCountManeuversMission 13
scalar OsgEarthNet.uav[62] utilizationCountManeuversMaintenance 2
scalar OsgEarthNet.uav[62] utilizationCountChargeState 1
scalar OsgEarthNet.uav[62] utilizationCountOverdrawnAfterMission 0
scalar OsgEarthNet.uav[62] utilizationCountIdleState 2
scalar OsgEarthNet.uav[62] utilizationFail 0
scalar OsgEarthNet.uav[62] simulationTime 259200
scalar OsgEarthNet.uav[63] utilizationSecMission 623.68863475643
scalar OsgEarthNet.uav[63] utilizationSecMaintenance 394.94199877579
scalar OsgEarthNet.uav[63] utilizationSecCharge 3800
scalar OsgEarthNet.uav[63] utilizationSecIdle 254381.36836647
scalar OsgEarthNet.uav[63] utilizationEnergyMission 2936.2630310059
scalar OsgEarthNet.uav[63] utilizationEnergyMaintenance 1851.8204574585
scalar OsgEarthNet.uav[63] utilizationEnergyCharge 4747.5795898438
scalar OsgEarthNet.uav[63] utilizationEnergyOverdrawMission 0
scalar OsgEarthNet.uav[63] utilizationEnergyOverdrawMaintenance 0
scalar OsgEarthNet.uav[63] utilizationCountMissions 1
scalar OsgEarthNet.uav[63] utilizationCountManeuversMission 10
scalar OsgEarthNet.uav[63] utilizationCountManeuversMaintenance 2
scalar OsgEarthNet.uav[63] utilizationCountChargeState 1
scalar OsgEarthNet.uav[63] utilizationCountOverdrawnAfterMission 0
scalar OsgEarthNet.uav[63] utilizationCountIdleState 2
scalar OsgEarthNet.uav[63] utilizationFail 0
scalar OsgEarthNet.uav[63] simulationTime 259200
scalar OsgEarthNet.uav[64] utilizationSecMission 29968.933832796
scalar OsgEarthNet.uav[64] utilizationSecMaintenance 14436.121604221
scalar OsgEarthNet.uav[64] utilizationSecCharge 163106.4872858
scalar OsgEarthNet.uav[64] utilizationSecIdle 51688.456277181
scalar OsgEarthNet.uav[64] utilizationEnergyMission 138644.81222534
scalar OsgEarthNet.uav[64] utilizationEnergyMaintenance 66961.33889389
scalar OsgEarthNet.uav[64] utilizationEnergyCharge 204138.34643555
scalar OsgEarthNet.uav[64] utilizationEnergyOverdrawMission 0
scalar OsgEarthNet.uav[64] utilizationEnergyOverdrawMaintenance 0
scalar OsgEarthNet.uav[64] utilizationCountMissions 45
scalar OsgEarthNet.uav[64] utilizationCountManeuversMission 489
scalar OsgEarthNet.uav[64] utilizationCountManeuversMaintenance 90
scalar OsgEarthNet.uav[64] utilizationCountChargeState 45
scalar OsgEarthNet.uav[64] utilizationCountOverdrawnAfterMission 0
scalar OsgEarthNet.uav[64] utilizationCountIdleState 45
scalar OsgEarthNet.uav[64] utilizationFail 0
scalar OsgEarthNet.uav[64] simulationTime 259200
scalar OsgEarthNet.uav[65] utilizationSecMission 844.68187799363
scalar OsgEarthNet.uav[65] utilizationSecMaintenance 168.94893785192
scalar OsgEarthNet.uav[65] utilizationSecCharge 3840
scalar OsgEarthNet.uav[65] utilizationSecIdle 254346.36818415
scalar OsgEarthNet.uav[65] utilizationEnergyMission 4183.3190765381
[...]
scalar OsgEarthNet.uav[82] utilizationSecIdle 254347.5003507
scalar OsgEarthNet.uav[82] utilizationEnergyMission 3321.9632797241
scalar OsgEarthNet.uav[82] utilizationEnergyMaintenance 1499.0432853699
scalar OsgEarthNet.uav[82] utilizationEnergyCharge 4821.0083007812
scalar OsgEarthNet.uav[82] utilizationEnergyOverdrawMission 0
scalar OsgEarthNet.uav[82] utilizationEnergyOverdrawMaintenance 0
scalar OsgEarthNet.uav[82] utilizationCountMissions 1
scalar OsgEarthNet.uav[82] utilizationCountManeuversMission 13
scalar OsgEarthNet.uav[82] utilizationCountManeuversMaintenance 2
scalar OsgEarthNet.uav[82] utilizationCountChargeState 1
scalar OsgEarthNet.uav[82] utilizationCountOverdrawnAfterMission 0
scalar OsgEarthNet.uav[82] utilizationCountIdleState 2
scalar OsgEarthNet.uav[82] utilizationFail 0
scalar OsgEarthNet.uav[82] simulationTime 259200
scalar OsgEarthNet.uav[83] utilizationSecMission 760.62515258028
scalar OsgEarthNet.uav[83] utilizationSecMaintenance 291.95923480269
scalar OsgEarthNet.uav[83] utilizationSecCharge 3900
scalar OsgEarthNet.uav[83] utilizationSecIdle 254247.41461262
scalar OsgEarthNet.uav[83] utilizationEnergyMission 3477.8552665711
scalar OsgEarthNet.uav[83] utilizationEnergyMaintenance 1506.1051254272
scalar OsgEarthNet.uav[83] utilizationEnergyCharge 4983.9614257812
scalar OsgEarthNet.uav[83] utilizationEnergyOverdrawMission 0
scalar OsgEarthNet.uav[83] utilizationEnergyOverdrawMaintenance 0
scalar OsgEarthNet.uav[83] utilizationCountMissions 1
scalar OsgEarthNet.uav[83] utilizationCountManeuversMission 12
scalar OsgEarthNet.uav[83] utilizationCountManeuversMaintenance 2
scalar OsgEarthNet.uav[83] utilizationCountChargeState 1
scalar OsgEarthNet.uav[83] utilizationCountOverdrawnAfterMission 0
scalar OsgEarthNet.uav[83] utilizationCountIdleState 2
scalar OsgEarthNet.uav[83] utilizationFail 0
scalar OsgEarthNet.uav[83] simulationTime 259200
scalar OsgEarthNet.uav[84] utilizationSecMission 454.19906291044
scalar OsgEarthNet.uav[84] utilizationSecMaintenance 531.61543982806
scalar OsgEarthNet.uav[84] utilizationSecCharge 3630
scalar OsgEarthNet.uav[84] utilizationSecIdle 254584.18449726
scalar OsgEarthNet.uav[84] utilizationEnergyMission 2003.8779754639
scalar OsgEarthNet.uav[84] utilizationEnergyMaintenance 2523.027305603
scalar OsgEarthNet.uav[84] utilizationEnergyCharge 4526.9072265625
scalar OsgEarthNet.uav[84] utilizationEnergyOverdrawMission 0
scalar OsgEarthNet.uav[84] utilizationEnergyOverdrawMaintenance 0
scalar OsgEarthNet.uav[84] utilizationCountMissions 1
scalar OsgEarthNet.uav[84] utilizationCountManeuversMission 8
scalar OsgEarthNet.uav[84] utilizationCountManeuversMaintenance 2
scalar OsgEarthNet.uav[84] utilizationCountChargeState 1
scalar OsgEarthNet.uav[84] utilizationCountOverdrawnAfterMission 0
scalar OsgEarthNet.uav[84] utilizationCountIdleState 2
scalar OsgEarthNet.uav[84] utilizationFail 0
scalar OsgEarthNet.uav[84] simulationTime 259200
scalar OsgEarthNet.uav[85] utilizationSecMission 828.1936691689
scalar OsgEarthNet.uav[85] utilizationSecMaintenance 156.97870384097
scalar OsgEarthNet.uav[85] utilizationSecCharge 3800
scalar OsgEarthNet.uav[85] utilizationSecIdle 254414.82662699
scalar OsgEarthNet.uav[85] utilizationEnergyMission 3792.3048400879
scalar OsgEarthNet.uav[85] utilizationEnergyMaintenance 711.65309906006
scalar OsgEarthNet.uav[85] utilizationEnergyCharge 4784.9614257812
scalar OsgEarthNet.uav[85] utilizationEnergyOverdrawMission 0
scalar OsgEarthNet.uav[85] utilizationEnergyOverdrawMaintenance 0
scalar OsgEarthNet.uav[85] utilizationCountMissions 1
scalar OsgEarthNet.uav[85] utilizationCountManeuversMission 13
scalar OsgEarthNet.uav[85] utilizationCountManeuversMaintenance 2
scalar OsgEarthNet.uav[85] utilizationCountChargeState 1
scalar OsgEarthNet.uav[85] utilizationCountOverdrawnAfterMission 0
scalar OsgEarthNet.uav[85] utilizationCountIdleState 2
scalar OsgEarthNet.uav[85] utilizationFail 0
scalar OsgEarthNet.uav[85] simulationTime 259200
scalar OsgEarthNet.uav[86] utilizationSecMission 29751.531246664
scalar OsgEarthNet.uav[86] utilizationSecMaintenance 13213.898299898
scalar OsgEarthNet.uav[86] utilizationSecCharge 156592.4296317
scalar OsgEarthNet.uav[86] utilizationSecIdle 59642.139821739
scalar OsgEarthNet.uav[86] utilizationEnergyMission 137897.17443848
scalar OsgEarthNet.uav[86] utilizationEnergyMaintenance 61818.071044922
scalar OsgEarthNet.uav[86] utilizationEnergyCharge 196365.77978516
scalar OsgEarthNet.uav[86] utilizationEnergyOverdrawMission 0
scalar OsgEarthNet.uav[86] utilizationEnergyOverdrawMaintenance 0
scalar OsgEarthNet.uav[86] utilizationCountMissions 43
scalar OsgEarthNet.uav[86] utilizationCountManeuversMission 477
scalar OsgEarthNet.uav[86] utilizationCountManeuversMaintenance 86
scalar OsgEarthNet.uav[86] utilizationCountChargeState 43
scalar OsgEarthNet.uav[86] utilizationCountOverdrawnAfterMission 0
scalar OsgEarthNet.uav[86] utilizationCountIdleState 43
scalar OsgEarthNet.uav[86] utilizationFail 0
scalar OsgEarthNet.uav[86] simulationTime 259200
scalar OsgEarthNet.uav[87] utilizationSecMission 30059.115210613
scalar OsgEarthNet.uav[87] utilizationSecMaintenance 13694.55241247
scalar OsgEarthNet.uav[87] utilizationSecCharge 161765.27552989
scalar OsgEarthNet.uav[87] utilizationSecIdle 53681.055847023
scalar OsgEarthNet.uav[87] utilizationEnergyMission 141079.86651611
scalar OsgEarthNet.uav[87] utilizationEnergyMaintenance 64552.842540741
scalar OsgEarthNet.uav[87] utilizationEnergyCharge 203583.9699707
scalar OsgEarthNet.uav[87] utilizationEnergyOverdrawMission 0
scalar OsgEarthNet.uav[87] utilizationEnergyOverdrawMaintenance 0
scalar OsgEarthNet.uav[87] utilizationCountMissions 44
scalar OsgEarthNet.uav[87] utilizationCountManeuversMission 490
scalar OsgEarthNet.uav[87] utilizationCountManeuversMaintenance 88
scalar OsgEarthNet.uav[87] utilizationCountChargeState 44
scalar OsgEarthNet.uav[87] utilizationCountOverdrawnAfterMission 0
scalar OsgEarthNet.uav[87] utilizationCountIdleState 44
scalar OsgEarthNet.uav[87] utilizationFail 0
scalar OsgEarthNet.uav[87] simulationTime 259200
scalar OsgEarthNet.uav[88] utilizationSecMission 2308.6532473341
scalar OsgEarthNet.uav[88] utilizationSecMaintenance 1784.1989458801
scalar OsgEarthNet.uav[88] utilizationSecCharge 15150
scalar OsgEarthNet.uav[88] utilizationSecIdle 239957.14680679
scalar OsgEarthNet.uav[88] utilizationEnergyMission 10607.621200562
scalar OsgEarthNet.uav[88] utilizationEnergyMaintenance 8489.6646881104
scalar OsgEarthNet.uav[88] utilizationEnergyCharge 19097.282714844
scalar OsgEarthNet.uav[88] utilizationEnergyOverdrawMission 0
scalar OsgEarthNet.uav[88] utilizationEnergyOverdrawMaintenance 0
scalar OsgEarthNet.uav[88] utilizationCountMissions 4
scalar OsgEarthNet.uav[88] utilizationCountManeuversMission 38
scalar OsgEarthNet.uav[88] utilizationCountManeuversMaintenance 8
scalar OsgEarthNet.uav[88] utilizationCountChargeState 4
scalar OsgEarthNet.uav[88] utilizationCountOverdrawnAfterMission 0
scalar OsgEarthNet.uav[88] utilizationCountIdleState 5
scalar OsgEarthNet.uav[88] utilizationFail 0
scalar OsgEarthNet.uav[88] simulationTime 259200
scalar OsgEarthNet.uav[89] utilizationSecMission 684.4732299383
scalar OsgEarthNet.uav[89] utilizationSecMaintenance 298.56834692969
scalar OsgEarthNet.uav[89] utilizationSecCharge 3710
scalar OsgEarthNet.uav[89] utilizationSecIdle 254506.95742313
scalar OsgEarthNet.uav[89] utilizationEnergyMission 3200.3303833008
scalar OsgEarthNet.uav[89] utilizationEnergyMaintenance 1469.0121688843
scalar OsgEarthNet.uav[89] utilizationEnergyCharge 4669.341796875
scalar OsgEarthNet.uav[89] utilizationEnergyOverdrawMission 0
scalar OsgEarthNet.uav[89] utilizationEnergyOverdrawMaintenance 0
scalar OsgEarthNet.uav[89] utilizationCountMissions 1
scalar OsgEarthNet.uav[89] utilizationCountManeuversMission 11
scalar OsgEarthNet.uav[89] utilizationCountManeuversMaintenance 2
scalar OsgEarthNet.uav[89] utilizationCountChargeState 1
scalar OsgEarthNet.uav[89] utilizationCountOverdrawnAfterMission 0
scalar OsgEarthNet.uav[89] utilizationCountIdleState 2
scalar OsgEarthNet.uav[89] utilizationFail 0
scalar OsgEarthNet.uav[89] simulationTime 259200
scalar OsgEarthNet.uav[90] utilizationSecMission 1586.9818027005
scalar OsgEarthNet.uav[90] utilizationSecMaintenance 451.42590763403
scalar OsgEarthNet.uav[90] utilizationSecCharge 7340
scalar OsgEarthNet.uav[90] utilizationSecIdle 249821.59128967
scalar OsgEarthNet.uav[90] utilizationEnergyMission 7050.6074371338
scalar OsgEarthNet.uav[90] utilizationEnergyMaintenance 2116.6444015503
scalar OsgEarthNet.uav[90] utilizationEnergyCharge 9167.248046875
scalar OsgEarthNet.uav[90] utilizationEnergyOverdrawMission 0
scalar OsgEarthNet.uav[90] utilizationEnergyOverdrawMaintenance 0
scalar OsgEarthNet.uav[90] utilizationCountMissions 2
scalar OsgEarthNet.uav[90] utilizationCountManeuversMission 24
scalar OsgEarthNet.uav[90] utilizationCountManeuversMaintenance 4
scalar OsgEarthNet.uav[90] utilizationCountChargeState 2
scalar OsgEarthNet.uav[90] utilizationCountOverdrawnAfterMission 0
scalar OsgEarthNet.uav[90] utilizationCountIdleState 3
scalar OsgEarthNet.uav[90] utilizationFail 0
scalar OsgEarthNet.uav[90] simulationTime 259200
scalar OsgEarthNet.uav[91] utilizationSecMission 28430.166772994
scalar OsgEarthNet.uav[91] utilizationSecMaintenance 12847.443055727
scalar OsgEarthNet.uav[91] utilizationSecCharge 154440
scalar OsgEarthNet.uav[91] utilizationSecIdle 63482.389171279
scalar OsgEarthNet.uav[91] utilizationEnergyMission 131763.84655762
scalar OsgEarthNet.uav[91] utilizationEnergyMaintenance 60556.697700501
scalar OsgEarthNet.uav[91] utilizationEnergyCharge 193075.9362793
scalar OsgEarthNet.uav[91] utilizationEnergyOverdrawMission 0
scalar OsgEarthNet.uav[91] utilizationEnergyOverdrawMaintenance 0
scalar OsgEarthNet.uav[91] utilizationCountMissions 42
scalar OsgEarthNet.uav[91] utilizationCountManeuversMission 468
scalar OsgEarthNet.uav[91] utilizationCountManeuversMaintenance 84
scalar OsgEarthNet.uav[91] utilizationCountChargeState 42
scalar OsgEarthNet.uav[91] utilizationCountOverdrawnAfterMission 0
scalar OsgEarthNet.uav[91] utilizationCountIdleState 43
scalar OsgEarthNet.uav[91] utilizationFail 0
scalar OsgEarthNet.uav[91] simulationTime 259200
scalar OsgEarthNet.uav[92] utilizationSecMission 19122.372273204
scalar OsgEarthNet.uav[92] utilizationSecMaintenance 8517.0425324653
scalar OsgEarthNet.uav[92] utilizationSecCharge 103140
scalar OsgEarthNet.uav[92] utilizationSecIdle 128420.58419433
scalar OsgEarthNet.uav[92] utilizationEnergyMission 89757.452758789
scalar OsgEarthNet.uav[92] utilizationEnergyMaintenance 39257.110198975
scalar OsgEarthNet.uav[92] utilizationEnergyCharge 128659.93579102
scalar OsgEarthNet.uav[92] utilizationEnergyOverdrawMission 0
scalar OsgEarthNet.uav[92] utilizationEnergyOverdrawMaintenance 0
scalar OsgEarthNet.uav[92] utilizationCountMissions 28
scalar OsgEarthNet.uav[92] utilizationCountManeuversMission 320
scalar OsgEarthNet.uav[92] utilizationCountManeuversMaintenance 56
scalar OsgEarthNet.uav[92] utilizationCountChargeState 28
scalar OsgEarthNet.uav[92] utilizationCountOverdrawnAfterMission 0
scalar OsgEarthNet.uav[92] utilizationCountIdleState 29
scalar OsgEarthNet.uav[92] utilizationFail 0
scalar OsgEarthNet.uav[92] simulationTime 259200
scalar OsgEarthNet.uav[93] utilizationSecMission 3489.5040833143
scalar OsgEarthNet.uav[93] utilizationSecMaintenance 1504.3435912506
scalar OsgEarthNet.uav[93] utilizationSecCharge 18290
scalar OsgEarthNet.uav[93] utilizationSecIdle 235916.15132544
scalar OsgEarthNet.uav[93] utilizationEnergyMission 16001.504165649
scalar OsgEarthNet.uav[93] utilizationEnergyMaintenance 6776.9093704224
scalar OsgEarthNet.uav[93] utilizationEnergyCharge 22643.600097656
scalar OsgEarthNet.uav[93] utilizationEnergyOverdrawMission 0
scalar OsgEarthNet.uav[93] utilizationEnergyOverdrawMaintenance 0
scalar OsgEarthNet.uav[93] utilizationCountMissions 5
scalar OsgEarthNet.uav[93] utilizationCountManeuversMission 55
scalar OsgEarthNet.uav[93] utilizationCountManeuversMaintenance 10
scalar OsgEarthNet.uav[93] utilizationCountChargeState 5
scalar OsgEarthNet.uav[93] utilizationCountOverdrawnAfterMission 0
scalar OsgEarthNet.uav[93] utilizationCountIdleState 6
scalar OsgEarthNet.uav[93] utilizationFail 0
scalar OsgEarthNet.uav[93] simulationTime 259200
scalar OsgEarthNet.uav[94] utilizationSecMission 30453.167663472
scalar OsgEarthNet.uav[94] utilizationSecMaintenance 15146.233146249
scalar OsgEarthNet.uav[94] utilizationSecCharge 166472.24556149
scalar OsgEarthNet.uav[94] utilizationSecIdle 47128.352628794
scalar OsgEarthNet.uav[94] utilizationEnergyMission 141847.05828094
scalar OsgEarthNet.uav[94] utilizationEnergyMaintenance 70698.518665314
scalar OsgEarthNet.uav[94] utilizationEnergyCharge 208053.90032959
scalar OsgEarthNet.uav[94] utilizationEnergyOverdrawMission 0
scalar OsgEarthNet.uav[94] utilizationEnergyOverdrawMaintenance 0
scalar OsgEarthNet.uav[94] utilizationCountMissions 46
scalar OsgEarthNet.uav[94] utilizationCountManeuversMission 508
scalar OsgEarthNet.uav[94] utilizationCountManeuversMaintenance 92
scalar OsgEarthNet.uav[94] utilizationCountChargeState 46
scalar OsgEarthNet.uav[94] utilizationCountOverdrawnAfterMission 0
scalar OsgEarthNet.uav[94] utilizationCountIdleState 46
scalar OsgEarthNet.uav[94] utilizationFail 0
scalar OsgEarthNet.uav[94] simulationTime 259200
scalar OsgEarthNet.uav[95] utilizationSecMission 7667.5798273463
scalar OsgEarthNet.uav[95] utilizationSecMaintenance 6249.825942803
scalar OsgEarthNet.uav[95] utilizationSecCharge 50560
scalar OsgEarthNet.uav[95] utilizationSecIdle 194722.59322985
scalar OsgEarthNet.uav[95] utilizationEnergyMission 35300.016716003
scalar OsgEarthNet.uav[95] utilizationEnergyMaintenance 27711.188117981
scalar OsgEarthNet.uav[95] utilizationEnergyCharge 62835.586914062
scalar OsgEarthNet.uav[95] utilizationEnergyOverdrawMission 0
scalar OsgEarthNet.uav[95] utilizationEnergyOverdrawMaintenance 0
scalar OsgEarthNet.uav[95] utilizationCountMissions 14
scalar OsgEarthNet.uav[95] utilizationCountManeuversMission 124
scalar OsgEarthNet.uav[95] utilizationCountManeuversMaintenance 28
scalar OsgEarthNet.uav[95] utilizationCountChargeState 14
scalar OsgEarthNet.uav[95] utilizationCountOverdrawnAfterMission 0
scalar OsgEarthNet.uav[95] utilizationCountIdleState 15
scalar OsgEarthNet.uav[95] utilizationFail 0
scalar OsgEarthNet.uav[95] simulationTime 259200
scalar OsgEarthNet.uav[96] utilizationSecMission 24414.283513876
scalar OsgEarthNet.uav[96] utilizationSecMaintenance 10647.004532183
scalar OsgEarthNet.uav[96] utilizationSecCharge 127042.51260052
scalar OsgEarthNet.uav[96] utilizationSecIdle 97096.198353417
scalar OsgEarthNet.uav[96] utilizationEnergyMission 112183.4575119
scalar OsgEarthNet.uav[96] utilizationEnergyMaintenance 50542.21257019
scalar OsgEarthNet.uav[96] utilizationEnergyCharge 159516.86315918
scalar OsgEarthNet.uav[96] utilizationEnergyOverdrawMission 0
scalar OsgEarthNet.uav[96] utilizationEnergyOverdrawMaintenance 0
scalar OsgEarthNet.uav[96] utilizationCountMissions 35
scalar OsgEarthNet.uav[96] utilizationCountManeuversMission 390
scalar OsgEarthNet.uav[96] utilizationCountManeuversMaintenance 70
scalar OsgEarthNet.uav[96] utilizationCountChargeState 35
scalar OsgEarthNet.uav[96] utilizationCountOverdrawnAfterMission 0
scalar OsgEarthNet.uav[96] utilizationCountIdleState 35
scalar OsgEarthNet.uav[96] utilizationFail 0
scalar OsgEarthNet.uav[96] simulationTime 259200
scalar OsgEarthNet.uav[97] utilizationSecMission 25725.95553069
scalar OsgEarthNet.uav[97] utilizationSecMaintenance 14494.653724729
scalar OsgEarthNet.uav[97] utilizationSecCharge 148876.57202137
scalar OsgEarthNet.uav[97] utilizationSecIdle 70102.81772321
scalar OsgEarthNet.uav[97] utilizationEnergyMission 117859.32830811
scalar OsgEarthNet.uav[97] utilizationEnergyMaintenance 67892.705741882
scalar OsgEarthNet.uav[97] utilizationEnergyCharge 185534.81665039
scalar OsgEarthNet.uav[97] utilizationEnergyOverdrawMission 0
scalar OsgEarthNet.uav[97] utilizationEnergyOverdrawMaintenance 0
scalar OsgEarthNet.uav[97] utilizationCountMissions 41
scalar OsgEarthNet.uav[97] utilizationCountManeuversMission 417
scalar OsgEarthNet.uav[97] utilizationCountManeuversMaintenance 82
scalar OsgEarthNet.uav[97] utilizationCountChargeState 41
scalar OsgEarthNet.uav[97] utilizationCountOverdrawnAfterMission 0
scalar OsgEarthNet.uav[97] utilizationCountIdleState 40
scalar OsgEarthNet.uav[97] utilizationFail 0
scalar OsgEarthNet.uav[97] simulationTime 259200
scalar OsgEarthNet.uav[98] utilizationSecMission 31870.853031845
scalar OsgEarthNet.uav[98] utilizationSecMaintenance 12910.889999676
scalar OsgEarthNet.uav[98] utilizationSecCharge 165840
scalar OsgEarthNet.uav[98] utilizationSecIdle 48578.255968479
scalar OsgEarthNet.uav[98] utilizationEnergyMission 146658.34898246
scalar OsgEarthNet.uav[98] utilizationEnergyMaintenance 61025.310726166
scalar OsgEarthNet.uav[98] utilizationEnergyCharge 207233.27880859
scalar OsgEarthNet.uav[98] utilizationEnergyOverdrawMission 0
scalar OsgEarthNet.uav[98] utilizationEnergyOverdrawMaintenance 0
scalar OsgEarthNet.uav[98] utilizationCountMissions 45
scalar OsgEarthNet.uav[98] utilizationCountManeuversMission 521
scalar OsgEarthNet.uav[98] utilizationCountManeuversMaintenance 89
scalar OsgEarthNet.uav[98] utilizationCountChargeState 45
scalar OsgEarthNet.uav[98] utilizationCountOverdrawnAfterMission 0
scalar OsgEarthNet.uav[98] utilizationCountIdleState 46
scalar OsgEarthNet.uav[98] utilizationFail 0
scalar OsgEarthNet.uav[98] simulationTime 259200
scalar OsgEarthNet.uav[99] utilizationSecMission 19272.501543859
scalar OsgEarthNet.uav[99] utilizationSecMaintenance 11292.342654148
scalar OsgEarthNet.uav[99] utilizationSecCharge 113148.529454
scalar OsgEarthNet.uav[99] utilizationSecIdle 115486.62534799
scalar OsgEarthNet.uav[99] utilizationEnergyMission 90777.29094696
scalar OsgEarthNet.uav[99] utilizationEnergyMaintenance 52655.899303436
scalar OsgEarthNet.uav[99] utilizationEnergyCharge 142857.0625
scalar OsgEarthNet.uav[99] utilizationEnergyOverdrawMission 0
scalar OsgEarthNet.uav[99] utilizationEnergyOverdrawMaintenance 0
scalar OsgEarthNet.uav[99] utilizationCountMissions 31
scalar OsgEarthNet.uav[99] utilizationCountManeuversMission 321
scalar OsgEarthNet.uav[99] utilizationCountManeuversMaintenance 62
scalar OsgEarthNet.uav[99] utilizationCountChargeState 31
scalar OsgEarthNet.uav[99] utilizationCountOverdrawnAfterMission 0
scalar OsgEarthNet.uav[99] utilizationCountIdleState 30
scalar OsgEarthNet.uav[99] utilizationFail 0
scalar OsgEarthNet.uav[99] simulationTime 259200
scalar OsgEarthNet.cs[0] usedPower 482589.97504997
scalar OsgEarthNet.cs[0] chargedPower 482589.97504997
scalar OsgEarthNet.cs[0] chargedMobileNodes 103
scalar OsgEarthNet.cs[0] reservations 103
scalar OsgEarthNet.cs[1] usedPower 1087006.100963
scalar OsgEarthNet.cs[1] chargedPower 1087006.100963
scalar OsgEarthNet.cs[1] chargedMobileNodes 230
scalar OsgEarthNet.cs[1] reservations 234
scalar OsgEarthNet.cs[2] usedPower 2757591.9471494
scalar OsgEarthNet.cs[2] chargedPower 2757591.9471494
scalar OsgEarthNet.cs[2] chargedMobileNodes 584
scalar OsgEarthNet.cs[2] reservations 593
scalar OsgEarthNet.cs[3] usedPower 736652.92136624
scalar OsgEarthNet.cs[3] chargedPower 736652.92136624
scalar OsgEarthNet.cs[3] chargedMobileNodes 165
scalar OsgEarthNet.cs[3] reservations 167
scalar OsgEarthNet.cs[4] usedPower 733241.33973046
scalar OsgEarthNet.cs[4] chargedPower 733241.33973046
scalar OsgEarthNet.cs[4] chargedMobileNodes 162
scalar OsgEarthNet.cs[4] reservations 164
scalar OsgEarthNet.cs[5] usedPower 450545.57131971
scalar OsgEarthNet.cs[5] chargedPower 450545.57131971
scalar OsgEarthNet.cs[5] chargedMobileNodes 94
scalar OsgEarthNet.cs[5] reservations 95
scalar OsgEarthNet.cs[6] usedPower 2506324.2536973
scalar OsgEarthNet.cs[6] chargedPower 2506324.2536973
scalar OsgEarthNet.cs[6] chargedMobileNodes 545
scalar OsgEarthNet.cs[6] reservations 557

