version 2
run Szenario_Hotel_Gabelbach-47-20180709-01:17:44-15680
attr configname Szenario_Hotel_Gabelbach
attr datetime 20180709-01:17:44
attr experiment Szenario_Hotel_Gabelbach
attr inifile omnetpp.ini
attr iterationvars $replM=1
attr iterationvarsf replM=1-
attr measurement $replM=1
attr network OsgEarthNet
attr processid 15680
attr repetition 23
attr replication #23
attr resultdir results
attr runnumber 47
attr seedset 47
itervar replM 1
param *.osgEarthScene.scene "\"Szenario_Hotel_Gabelbach.earth\""
param *.playgroundLatitude 50.6830269
param *.playgroundLongitude 10.8538055
param *.playgroundWidth 3500m
param *.playgroundHeight 3500m
param *.numUAVs 100
param *.cs[0].posX 3537m
param *.cs[0].posY 965m
param *.cs[0].posZ 538m
param *.cs[1].posX 312m
param *.cs[1].posY 1262m
param *.cs[1].posZ 539m
param *.cs[2].posX 2185m
param *.cs[2].posY 3026m
param *.cs[2].posZ 777m
param *.cs[3].posX 10m
param *.cs[3].posY 2200m
param *.cs[3].posZ 560m
param *.cs[4].posX 750m
param *.cs[4].posY 200m
param *.cs[4].posZ 540m
param *.cs[5].posX 2450m
param *.cs[5].posY 180m
param *.cs[5].posZ 524m
param *.cs[6].posX 3140m
param *.cs[6].posY 1790m
param *.cs[6].posZ 606m
param *.numCSs 7
param *.uav[*].replacementMethod 1
param *.*.timeStep 10s
param *.uav[*].commandPreviewCommandCount 20
param *.missionControl.missionFiles "\"missions\\\\Szenario_WB_Hotel_Gabelbach_Mission_Hotel.waypoints,missions\\\\Szenario_WB_Hotel_Gabelbach_Mission_Kickelhahn.waypoints,missions\\\\Szenario_WB_Hotel_Gabelbach_Mission_Ilmenau_Sportplatz.waypoints,missions\\\\Szenario_WB_Hotel_Gabelbach_Mission_Manebach_Mitte.waypoints,missions\\\\Szenario_WB_Hotel_Gabelbach_Mission_Manebach_Sued.waypoints\""
param *.missionControl.missionFiles "\"missions\\\\Szenario_WB_Hotel_Gabelbach_Mission_Hotel.waypoints,missions\\\\Szenario_WB_Hotel_Gabelbach_Mission_Kickelhahn.waypoints,missions\\\\Szenario_WB_Hotel_Gabelbach_Mission_Ilmenau_Sportplatz.waypoints,missions\\\\Szenario_WB_Hotel_Gabelbach_Mission_Manebach_Mitte.waypoints,missions\\\\Szenario_WB_Hotel_Gabelbach_Mission_Manebach_Sued.waypoints,missions\\\\Szenario_WB_Hotel_Gabelbach_Hover_HoheSchlaufe.waypoints,missions\\\\Szenario_WB_Hotel_Gabelbach_Hover_Kickelhahn.waypoints,missions\\\\Szenario_WB_Hotel_Gabelbach_Hover_Gabelbachskopf.waypoints,missions\\\\Szenario_WB_Hotel_Gabelbach_Hover_Dachskopf.waypoints\""
param *.uav[0].startX 3537m
param *.uav[0].startY 965m
param *.uav[0].startZ 539m
param *.uav[1].startX 312m
param *.uav[1].startY 1262m
param *.uav[1].startZ 540m
param *.uav[2].startX 2185m
param *.uav[2].startY 3026m
param *.uav[2].startZ 778m
param *.uav[3].startX 3537m
param *.uav[3].startY 965m
param *.uav[3].startZ 539m
param *.uav[4].startX 312m
param *.uav[4].startY 1262m
param *.uav[4].startZ 540m
param *.uav[5].startX 2185m
param *.uav[5].startY 3026m
param *.uav[5].startZ 778m
param *.uav[6].startX 3537m
param *.uav[6].startY 965m
param *.uav[6].startZ 539m
param *.uav[7].startX 312m
param *.uav[7].startY 1262m
param *.uav[7].startZ 540m
param *.uav[8].startX 2185m
param *.uav[8].startY 3026m
param *.uav[8].startZ 778m
param *.uav[9].startX 3537m
param *.uav[9].startY 965m
param *.uav[9].startZ 539m
param *.uav[10].startX 3537m
param *.uav[10].startY 965m
param *.uav[10].startZ 539m
param *.uav[11].startX 312m
param *.uav[11].startY 1262m
param *.uav[11].startZ 540m
param *.uav[12].startX 2185m
param *.uav[12].startY 3026m
param *.uav[12].startZ 778m
param *.uav[13].startX 3537m
param *.uav[13].startY 965m
param *.uav[13].startZ 539m
param *.uav[14].startX 312m
param *.uav[14].startY 1262m
param *.uav[14].startZ 540m
param *.uav[15].startX 2185m
param *.uav[15].startY 3026m
param *.uav[15].startZ 778m
param *.uav[16].startX 3537m
param *.uav[16].startY 965m
param *.uav[16].startZ 539m
param *.uav[17].startX 312m
param *.uav[17].startY 1262m
param *.uav[17].startZ 540m
param *.uav[18].startX 2185m
param *.uav[18].startY 3026m
param *.uav[18].startZ 778m
param *.uav[19].startX 3537m
param *.uav[19].startY 965m
param *.uav[19].startZ 539m
param *.uav[20].startX 3537m
param *.uav[20].startY 965m
param *.uav[20].startZ 539m
param *.uav[21].startX 312m
param *.uav[21].startY 1262m
param *.uav[21].startZ 540m
param *.uav[22].startX 2185m
param *.uav[22].startY 3026m
param *.uav[22].startZ 778m
param *.uav[23].startX 3537m
param *.uav[23].startY 965m
param *.uav[23].startZ 539m
param *.uav[24].startX 312m
param *.uav[24].startY 1262m
param *.uav[24].startZ 540m
param *.uav[25].startX 2185m
param *.uav[25].startY 3026m
param *.uav[25].startZ 778m
param *.uav[26].startX 3537m
param *.uav[26].startY 965m
param *.uav[26].startZ 539m
param *.uav[27].startX 312m
param *.uav[27].startY 1262m
param *.uav[27].startZ 540m
param *.uav[28].startX 2185m
param *.uav[28].startY 3026m
param *.uav[28].startZ 778m
param *.uav[29].startX 3537m
param *.uav[29].startY 965m
param *.uav[29].startZ 539m
param *.uav[30].startX 3537m
param *.uav[30].startY 965m
param *.uav[30].startZ 539m
param *.uav[31].startX 312m
param *.uav[31].startY 1262m
param *.uav[31].startZ 540m
param *.uav[32].startX 2185m
param *.uav[32].startY 3026m
param *.uav[32].startZ 778m
param *.uav[33].startX 3537m
param *.uav[33].startY 965m
param *.uav[33].startZ 539m
param *.uav[34].startX 312m
param *.uav[34].startY 1262m
param *.uav[34].startZ 540m
param *.uav[35].startX 2185m
param *.uav[35].startY 3026m
param *.uav[35].startZ 778m
param *.uav[36].startX 3537m
param *.uav[36].startY 965m
param *.uav[36].startZ 539m
param *.uav[37].startX 312m
param *.uav[37].startY 1262m
param *.uav[37].startZ 540m
param *.uav[38].startX 2185m
param *.uav[38].startY 3026m
param *.uav[38].startZ 778m
param *.uav[39].startX 3537m
param *.uav[39].startY 965m
param *.uav[39].startZ 539m
param *.uav[40].startX 3537m
param *.uav[40].startY 965m
param *.uav[40].startZ 539m
param *.uav[41].startX 312m
param *.uav[41].startY 1262m
param *.uav[41].startZ 540m
param *.uav[42].startX 2185m
param *.uav[42].startY 3026m
param *.uav[42].startZ 778m
param *.uav[43].startX 3537m
param *.uav[43].startY 965m
param *.uav[43].startZ 539m
param *.uav[44].startX 312m
param *.uav[44].startY 1262m
param *.uav[44].startZ 540m
param *.uav[45].startX 2185m
param *.uav[45].startY 3026m
param *.uav[45].startZ 778m
param *.uav[46].startX 3537m
param *.uav[46].startY 965m
param *.uav[46].startZ 539m
param *.uav[47].startX 312m
param *.uav[47].startY 1262m
param *.uav[47].startZ 540m
param *.uav[48].startX 2185m
param *.uav[48].startY 3026m
param *.uav[48].startZ 778m
param *.uav[49].startX 3537m
param *.uav[49].startY 965m
param *.uav[49].startZ 539m
param *.uav[50].startX 3537m
param *.uav[50].startY 965m
param *.uav[50].startZ 539m
param *.uav[51].startX 312m
param *.uav[51].startY 1262m
param *.uav[51].startZ 540m
param *.uav[52].startX 2185m
param *.uav[52].startY 3026m
param *.uav[52].startZ 778m
param *.uav[53].startX 3537m
param *.uav[53].startY 965m
param *.uav[53].startZ 539m
param *.uav[54].startX 312m
param *.uav[54].startY 1262m
param *.uav[54].startZ 540m
param *.uav[55].startX 2185m
param *.uav[55].startY 3026m
param *.uav[55].startZ 778m
param *.uav[56].startX 3537m
param *.uav[56].startY 965m
param *.uav[56].startZ 539m
param *.uav[57].startX 312m
param *.uav[57].startY 1262m
param *.uav[57].startZ 540m
param *.uav[58].startX 2185m
param *.uav[58].startY 3026m
param *.uav[58].startZ 778m
param *.uav[59].startX 3537m
param *.uav[59].startY 965m
param *.uav[59].startZ 539m
param *.uav[60].startX 3537m
param *.uav[60].startY 965m
param *.uav[60].startZ 539m
param *.uav[61].startX 312m
param *.uav[61].startY 1262m
param *.uav[61].startZ 540m
param *.uav[62].startX 2185m
param *.uav[62].startY 3026m
param *.uav[62].startZ 778m
param *.uav[63].startX 3537m
param *.uav[63].startY 965m
param *.uav[63].startZ 539m
param *.uav[64].startX 312m
param *.uav[64].startY 1262m
param *.uav[64].startZ 540m
param *.uav[65].startX 2185m
param *.uav[65].startY 3026m
param *.uav[65].startZ 778m
param *.uav[66].startX 3537m
param *.uav[66].startY 965m
param *.uav[66].startZ 539m
param *.uav[67].startX 312m
param *.uav[67].startY 1262m
param *.uav[67].startZ 540m
param *.uav[68].startX 2185m
param *.uav[68].startY 3026m
param *.uav[68].startZ 778m
param *.uav[69].startX 3537m
param *.uav[69].startY 965m
param *.uav[69].startZ 539m
param *.uav[70].startX 3537m
param *.uav[70].startY 965m
param *.uav[70].startZ 539m
param *.uav[71].startX 312m
param *.uav[71].startY 1262m
param *.uav[71].startZ 540m
param *.uav[72].startX 2185m
param *.uav[72].startY 3026m
param *.uav[72].startZ 778m
param *.uav[73].startX 3537m
param *.uav[73].startY 965m
param *.uav[73].startZ 539m
param *.uav[74].startX 312m
param *.uav[74].startY 1262m
param *.uav[74].startZ 540m
param *.uav[75].startX 2185m
param *.uav[75].startY 3026m
param *.uav[75].startZ 778m
param *.uav[76].startX 3537m
param *.uav[76].startY 965m
param *.uav[76].startZ 539m
param *.uav[77].startX 312m
param *.uav[77].startY 1262m
param *.uav[77].startZ 540m
param *.uav[78].startX 2185m
param *.uav[78].startY 3026m
param *.uav[78].startZ 778m
param *.uav[79].startX 3537m
param *.uav[79].startY 965m
param *.uav[79].startZ 539m
param *.uav[80].startX 3537m
param *.uav[80].startY 965m
param *.uav[80].startZ 539m
param *.uav[81].startX 312m
param *.uav[81].startY 1262m
param *.uav[81].startZ 540m
param *.uav[82].startX 2185m
param *.uav[82].startY 3026m
param *.uav[82].startZ 778m
param *.uav[83].startX 3537m
param *.uav[83].startY 965m
param *.uav[83].startZ 539m
param *.uav[84].startX 312m
param *.uav[84].startY 1262m
param *.uav[84].startZ 540m
param *.uav[85].startX 2185m
param *.uav[85].startY 3026m
param *.uav[85].startZ 778m
param *.uav[86].startX 3537m
param *.uav[86].startY 965m
param *.uav[86].startZ 539m
param *.uav[87].startX 312m
param *.uav[87].startY 1262m
param *.uav[87].startZ 540m
param *.uav[88].startX 2185m
param *.uav[88].startY 3026m
param *.uav[88].startZ 778m
param *.uav[89].startX 3537m
param *.uav[89].startY 965m
param *.uav[89].startZ 539m
param *.uav[90].startX 3537m
param *.uav[90].startY 965m
param *.uav[90].startZ 539m
param *.uav[91].startX 312m
param *.uav[91].startY 1262m
param *.uav[91].startZ 540m
param *.uav[92].startX 2185m
param *.uav[92].startY 3026m
param *.uav[92].startZ 778m
param *.uav[93].startX 3537m
param *.uav[93].startY 965m
param *.uav[93].startZ 539m
param *.uav[94].startX 312m
param *.uav[94].startY 1262m
param *.uav[94].startZ 540m
param *.uav[95].startX 2185m
param *.uav[95].startY 3026m
param *.uav[95].startZ 778m
param *.uav[96].startX 3537m
param *.uav[96].startY 965m
param *.uav[96].startZ 539m
param *.uav[97].startX 312m
param *.uav[97].startY 1262m
param *.uav[97].startZ 540m
param *.uav[98].startX 2185m
param *.uav[98].startY 3026m
param *.uav[98].startZ 778m
param *.uav[99].startX 3537m
param *.uav[99].startY 965m
param *.uav[99].startZ 539m
param *.osgEarthScene.scene "\"boston.earth\""
param *.playgroundLatitude 42.3558
param *.playgroundLongitude -71.0677
param *.playgroundWidth 400m
param *.playgroundHeight 200m
param *.channelController.connectionColor "\"#0000FF40\""
param *.channelController.showConnections false
param *.uav[*].modelURL "\"quadrocopter.small.obj.15.scale.0,0,90.rot\""
param *.uav[*].labelColor "\"#FF7C00CC\""
param *.uav[*].label2Color "\"#FF7C00EE\""
param *.uav[*].batteryCapacity 5200mAh
param *.uav[*].batteryRemaining uav[index].batteryCapacity
param *.uav[*].predictionQuantile 0.95
param *.uav[*].replacementMethod 2
param *.uav[*].weightedSumWeight 0.5
param *.cs[*].modelURL "\"chargingstation_v1.osgt.2.scale.0,0,0.rot.0,0,-15e-1.trans\""
param *.cs[*].spotsWaiting 999
param *.cs[*].spotsCharging 999
param *.cs[*].chargeEffectivenessPercentage 100
param *.cs[*].nonLinearPhaseStartPercentage 85
param *.cs[*].chargeCurrent 6.0A
param *.cs[*].prioritizeFastCharge true
param *.missionControl.replacementSearchMethod 0
param *.*.timeStep 9s

scalar OsgEarthNet.uav[0] utilizationSecMission 213.40226662092
scalar OsgEarthNet.uav[0] utilizationSecMaintenance 474.30151219871
scalar OsgEarthNet.uav[0] utilizationSecCharge 2890
scalar OsgEarthNet.uav[0] utilizationSecIdle 255622.29522118
scalar OsgEarthNet.uav[0] utilizationEnergyMission 1041.6234130859
scalar OsgEarthNet.uav[0] utilizationEnergyMaintenance 2269.3144760132
scalar OsgEarthNet.uav[0] utilizationEnergyCharge 3310.9418945312
scalar OsgEarthNet.uav[0] utilizationEnergyOverdrawMission 0
scalar OsgEarthNet.uav[0] utilizationEnergyOverdrawMaintenance 0
scalar OsgEarthNet.uav[0] utilizationCountMissions 1
scalar OsgEarthNet.uav[0] utilizationCountManeuversMission 3
scalar OsgEarthNet.uav[0] utilizationCountManeuversMaintenance 2
scalar OsgEarthNet.uav[0] utilizationCountChargeState 1
scalar OsgEarthNet.uav[0] utilizationCountOverdrawnAfterMission 0
scalar OsgEarthNet.uav[0] utilizationCountIdleState 2
scalar OsgEarthNet.uav[0] utilizationFail 0
scalar OsgEarthNet.uav[0] simulationTime 259200
scalar OsgEarthNet.uav[1] utilizationSecMission 301.50602773369
scalar OsgEarthNet.uav[1] utilizationSecMaintenance 206.19350838146
scalar OsgEarthNet.uav[1] utilizationSecCharge 2250
scalar OsgEarthNet.uav[1] utilizationSecIdle 256442.29946388
scalar OsgEarthNet.uav[1] utilizationEnergyMission 1241.8061065674
scalar OsgEarthNet.uav[1] utilizationEnergyMaintenance 925.66164398193
scalar OsgEarthNet.uav[1] utilizationEnergyCharge 2150.7790527344
scalar OsgEarthNet.uav[1] utilizationEnergyOverdrawMission 0
scalar OsgEarthNet.uav[1] utilizationEnergyOverdrawMaintenance 0
scalar OsgEarthNet.uav[1] utilizationCountMissions 1
scalar OsgEarthNet.uav[1] utilizationCountManeuversMission 6
scalar OsgEarthNet.uav[1] utilizationCountManeuversMaintenance 2
scalar OsgEarthNet.uav[1] utilizationCountChargeState 1
scalar OsgEarthNet.uav[1] utilizationCountOverdrawnAfterMission 0
scalar OsgEarthNet.uav[1] utilizationCountIdleState 2
scalar OsgEarthNet.uav[1] utilizationFail 0
scalar OsgEarthNet.uav[1] simulationTime 259200
scalar OsgEarthNet.uav[2] utilizationSecMission 887.1741082606
scalar OsgEarthNet.uav[2] utilizationSecMaintenance 125.81102573108
scalar OsgEarthNet.uav[2] utilizationSecCharge 3670
scalar OsgEarthNet.uav[2] utilizationSecIdle 254517.01386601
scalar OsgEarthNet.uav[2] utilizationEnergyMission 4026.3137512207
scalar OsgEarthNet.uav[2] utilizationEnergyMaintenance 451.67301177979
scalar OsgEarthNet.uav[2] utilizationEnergyCharge 4629.76171875
scalar OsgEarthNet.uav[2] utilizationEnergyOverdrawMission 0
scalar OsgEarthNet.uav[2] utilizationEnergyOverdrawMaintenance 0
scalar OsgEarthNet.uav[2] utilizationCountMissions 1
scalar OsgEarthNet.uav[2] utilizationCountManeuversMission 14
scalar OsgEarthNet.uav[2] utilizationCountManeuversMaintenance 2
scalar OsgEarthNet.uav[2] utilizationCountChargeState 1
scalar OsgEarthNet.uav[2] utilizationCountOverdrawnAfterMission 0
scalar OsgEarthNet.uav[2] utilizationCountIdleState 2
scalar OsgEarthNet.uav[2] utilizationFail 0
scalar OsgEarthNet.uav[2] simulationTime 259200
scalar OsgEarthNet.uav[3] utilizationSecMission 750.20472747826
scalar OsgEarthNet.uav[3] utilizationSecMaintenance 261.68051383311
scalar OsgEarthNet.uav[3] utilizationSecCharge 3750
scalar OsgEarthNet.uav[3] utilizationSecIdle 254438.11375869
scalar OsgEarthNet.uav[3] utilizationEnergyMission 3443.9698028564
scalar OsgEarthNet.uav[3] utilizationEnergyMaintenance 1344.1197624207
scalar OsgEarthNet.uav[3] utilizationEnergyCharge 4788.0849609375
scalar OsgEarthNet.uav[3] utilizationEnergyOverdrawMission 0
scalar OsgEarthNet.uav[3] utilizationEnergyOverdrawMaintenance 0
scalar OsgEarthNet.uav[3] utilizationCountMissions 1
scalar OsgEarthNet.uav[3] utilizationCountManeuversMission 11
scalar OsgEarthNet.uav[3] utilizationCountManeuversMaintenance 2
scalar OsgEarthNet.uav[3] utilizationCountChargeState 1
scalar OsgEarthNet.uav[3] utilizationCountOverdrawnAfterMission 0
scalar OsgEarthNet.uav[3] utilizationCountIdleState 2
scalar OsgEarthNet.uav[3] utilizationFail 0
scalar OsgEarthNet.uav[3] simulationTime 259200
scalar OsgEarthNet.uav[4] utilizationSecMission 16723.896724593
scalar OsgEarthNet.uav[4] utilizationSecMaintenance 9349.0224623654
scalar OsgEarthNet.uav[4] utilizationSecCharge 104278.33930861
scalar OsgEarthNet.uav[4] utilizationSecIdle 128848.74050443
scalar OsgEarthNet.uav[4] utilizationEnergyMission 78589.612930298
scalar OsgEarthNet.uav[4] utilizationEnergyMaintenance 45309.429519653
scalar OsgEarthNet.uav[4] utilizationEnergyCharge 121763.06091309
scalar OsgEarthNet.uav[4] utilizationEnergyOverdrawMission 0
scalar OsgEarthNet.uav[4] utilizationEnergyOverdrawMaintenance 0
scalar OsgEarthNet.uav[4] utilizationCountMissions 35
scalar OsgEarthNet.uav[4] utilizationCountManeuversMission 269
scalar OsgEarthNet.uav[4] utilizationCountManeuversMaintenance 70
scalar OsgEarthNet.uav[4] utilizationCountChargeState 35
scalar OsgEarthNet.uav[4] utilizationCountOverdrawnAfterMission 0
scalar OsgEarthNet.uav[4] utilizationCountIdleState 35
scalar OsgEarthNet.uav[4] utilizationFail 0
scalar OsgEarthNet.uav[4] simulationTime 259200
scalar OsgEarthNet.uav[5] utilizationSecMission 23013.202001202
scalar OsgEarthNet.uav[5] utilizationSecMaintenance 11589.07028938
scalar OsgEarthNet.uav[5] utilizationSecCharge 138030.86667057
scalar OsgEarthNet.uav[5] utilizationSecIdle 86566.860038846
scalar OsgEarthNet.uav[5] utilizationEnergyMission 106690.06899261
scalar OsgEarthNet.uav[5] utilizationEnergyMaintenance 54937.174507141
scalar OsgEarthNet.uav[5] utilizationEnergyCharge 161666.41381836
scalar OsgEarthNet.uav[5] utilizationEnergyOverdrawMission 0
scalar OsgEarthNet.uav[5] utilizationEnergyOverdrawMaintenance 0
scalar OsgEarthNet.uav[5] utilizationCountMissions 45
scalar OsgEarthNet.uav[5] utilizationCountManeuversMission 374
scalar OsgEarthNet.uav[5] utilizationCountManeuversMaintenance 90
scalar OsgEarthNet.uav[5] utilizationCountChargeState 45
scalar OsgEarthNet.uav[5] utilizationCountOverdrawnAfterMission 0
scalar OsgEarthNet.uav[5] utilizationCountIdleState 45
scalar OsgEarthNet.uav[5] utilizationFail 0
scalar OsgEarthNet.uav[5] simulationTime 259200
scalar OsgEarthNet.uav[6] utilizationSecMission 760.62515258028
scalar OsgEarthNet.uav[6] utilizationSecMaintenance 245.74410321072
scalar OsgEarthNet.uav[6] utilizationSecCharge 3640
scalar OsgEarthNet.uav[6] utilizationSecIdle 254553.62974421
scalar OsgEarthNet.uav[6] utilizationEnergyMission 3344.1677436829
scalar OsgEarthNet.uav[6] utilizationEnergyMaintenance 1204.6183891296
scalar OsgEarthNet.uav[6] utilizationEnergyCharge 4548.7875976562
scalar OsgEarthNet.uav[6] utilizationEnergyOverdrawMission 0
scalar OsgEarthNet.uav[6] utilizationEnergyOverdrawMaintenance 0
scalar OsgEarthNet.uav[6] utilizationCountMissions 1
scalar OsgEarthNet.uav[6] utilizationCountManeuversMission 12
scalar OsgEarthNet.uav[6] utilizationCountManeuversMaintenance 2
scalar OsgEarthNet.uav[6] utilizationCountChargeState 1
scalar OsgEarthNet.uav[6] utilizationCountOverdrawnAfterMission 0
scalar OsgEarthNet.uav[6] utilizationCountIdleState 2
scalar OsgEarthNet.uav[6] utilizationFail 0
scalar OsgEarthNet.uav[6] simulationTime 259200
scalar OsgEarthNet.uav[7] utilizationSecMission 19649.255521682
scalar OsgEarthNet.uav[7] utilizationSecMaintenance 12943.333586967
scalar OsgEarthNet.uav[7] utilizationSecCharge 130400
scalar OsgEarthNet.uav[7] utilizationSecIdle 96207.40989135
scalar OsgEarthNet.uav[7] utilizationEnergyMission 90368.498802185
scalar OsgEarthNet.uav[7] utilizationEnergyMaintenance 61112.809981875
scalar OsgEarthNet.uav[7] utilizationEnergyCharge 151295.60424805
scalar OsgEarthNet.uav[7] utilizationEnergyOverdrawMission 0
scalar OsgEarthNet.uav[7] utilizationEnergyOverdrawMaintenance 0
scalar OsgEarthNet.uav[7] utilizationCountMissions 43
scalar OsgEarthNet.uav[7] utilizationCountManeuversMission 325
scalar OsgEarthNet.uav[7] utilizationCountManeuversMaintenance 87
scalar OsgEarthNet.uav[7] utilizationCountChargeState 43
scalar OsgEarthNet.uav[7] utilizationCountOverdrawnAfterMission 0
scalar OsgEarthNet.uav[7] utilizationCountIdleState 44
scalar OsgEarthNet.uav[7] utilizationFail 0
scalar OsgEarthNet.uav[7] simulationTime 259200
scalar OsgEarthNet.uav[8] utilizationSecMission 19803.132366678
scalar OsgEarthNet.uav[8] utilizationSecMaintenance 8469.4057325985
scalar OsgEarthNet.uav[8] utilizationSecCharge 111680
scalar OsgEarthNet.uav[8] utilizationSecIdle 119247.46090072
scalar OsgEarthNet.uav[8] utilizationEnergyMission 92688.245567322
scalar OsgEarthNet.uav[8] utilizationEnergyMaintenance 39258.187839508
scalar OsgEarthNet.uav[8] utilizationEnergyCharge 130745.1003418
scalar OsgEarthNet.uav[8] utilizationEnergyOverdrawMission 0
scalar OsgEarthNet.uav[8] utilizationEnergyOverdrawMaintenance 0
scalar OsgEarthNet.uav[8] utilizationCountMissions 36
scalar OsgEarthNet.uav[8] utilizationCountManeuversMission 321
scalar OsgEarthNet.uav[8] utilizationCountManeuversMaintenance 72
scalar OsgEarthNet.uav[8] utilizationCountChargeState 36
scalar OsgEarthNet.uav[8] utilizationCountOverdrawnAfterMission 0
scalar OsgEarthNet.uav[8] utilizationCountIdleState 37
scalar OsgEarthNet.uav[8] utilizationFail 0
scalar OsgEarthNet.uav[8] simulationTime 259200
scalar OsgEarthNet.uav[9] utilizationSecMission 8401.8053704321
scalar OsgEarthNet.uav[9] utilizationSecMaintenance 3309.5422752328
scalar OsgEarthNet.uav[9] utilizationSecCharge 43890
scalar OsgEarthNet.uav[9] utilizationSecIdle 203598.65135434
scalar OsgEarthNet.uav[9] utilizationEnergyMission 38088.229431152
scalar OsgEarthNet.uav[9] utilizationEnergyMaintenance 15737.560390472
scalar OsgEarthNet.uav[9] utilizationEnergyCharge 53757.134033203
scalar OsgEarthNet.uav[9] utilizationEnergyOverdrawMission 0
scalar OsgEarthNet.uav[9] utilizationEnergyOverdrawMaintenance 0
scalar OsgEarthNet.uav[9] utilizationCountMissions 13
scalar OsgEarthNet.uav[9] utilizationCountManeuversMission 135
scalar OsgEarthNet.uav[9] utilizationCountManeuversMaintenance 26
scalar OsgEarthNet.uav[9] utilizationCountChargeState 13
scalar OsgEarthNet.uav[9] utilizationCountOverdrawnAfterMission 0
scalar OsgEarthNet.uav[9] utilizationCountIdleState 14
scalar OsgEarthNet.uav[9] utilizationFail 0
scalar OsgEarthNet.uav[9] simulationTime 259200
scalar OsgEarthNet.uav[10] utilizationSecMission 31116.635877451
scalar OsgEarthNet.uav[10] utilizationSecMaintenance 11727.804584084
scalar OsgEarthNet.uav[10] utilizationSecCharge 166763.55853846
scalar OsgEarthNet.uav[10] utilizationSecIdle 49592
scalar OsgEarthNet.uav[10] utilizationEnergyMission 144815.82662201
scalar OsgEarthNet.uav[10] utilizationEnergyMaintenance 55370.659934998
scalar OsgEarthNet.uav[10] utilizationEnergyCharge 198983.31713867
scalar OsgEarthNet.uav[10] utilizationEnergyOverdrawMission 0
scalar OsgEarthNet.uav[10] utilizationEnergyOverdrawMaintenance 0
scalar OsgEarthNet.uav[10] utilizationCountMissions 53
scalar OsgEarthNet.uav[10] utilizationCountManeuversMission 510
scalar OsgEarthNet.uav[10] utilizationCountManeuversMaintenance 105
scalar OsgEarthNet.uav[10] utilizationCountChargeState 53
scalar OsgEarthNet.uav[10] utilizationCountOverdrawnAfterMission 0
scalar OsgEarthNet.uav[10] utilizationCountIdleState 53
scalar OsgEarthNet.uav[10] utilizationFail 0
scalar OsgEarthNet.uav[10] simulationTime 259200
scalar OsgEarthNet.uav[11] utilizationSecMission 1265.5165311598
scalar OsgEarthNet.uav[11] utilizationSecMaintenance 830.97529044022
scalar OsgEarthNet.uav[11] utilizationSecCharge 8690
scalar OsgEarthNet.uav[11] utilizationSecIdle 248413.5071784
scalar OsgEarthNet.uav[11] utilizationEnergyMission 5834.7995376587
scalar OsgEarthNet.uav[11] utilizationEnergyMaintenance 4092.586643219
scalar OsgEarthNet.uav[11] utilizationEnergyCharge 9927.3901367188
scalar OsgEarthNet.uav[11] utilizationEnergyOverdrawMission 0
scalar OsgEarthNet.uav[11] utilizationEnergyOverdrawMaintenance 0
scalar OsgEarthNet.uav[11] utilizationCountMissions 3
scalar OsgEarthNet.uav[11] utilizationCountManeuversMission 21
scalar OsgEarthNet.uav[11] utilizationCountManeuversMaintenance 6
scalar OsgEarthNet.uav[11] utilizationCountChargeState 3
scalar OsgEarthNet.uav[11] utilizationCountOverdrawnAfterMission 0
scalar OsgEarthNet.uav[11] utilizationCountIdleState 4
scalar OsgEarthNet.uav[11] utilizationFail 0
scalar OsgEarthNet.uav[11] simulationTime 259200
scalar OsgEarthNet.uav[12] utilizationSecMission 694.00169469977
scalar OsgEarthNet.uav[12] utilizationSecMaintenance 229.48898285212
scalar OsgEarthNet.uav[12] utilizationSecCharge 3370
scalar OsgEarthNet.uav[12] utilizationSecIdle 254906.50832245
scalar OsgEarthNet.uav[12] utilizationEnergyMission 3113.162902832
scalar OsgEarthNet.uav[12] utilizationEnergyMaintenance 1062.6237716675
scalar OsgEarthNet.uav[12] utilizationEnergyCharge 4099.0419921875
scalar OsgEarthNet.uav[12] utilizationEnergyOverdrawMission 0
scalar OsgEarthNet.uav[12] utilizationEnergyOverdrawMaintenance 0
scalar OsgEarthNet.uav[12] utilizationCountMissions 1
scalar OsgEarthNet.uav[12] utilizationCountManeuversMission 13
scalar OsgEarthNet.uav[12] utilizationCountManeuversMaintenance 2
scalar OsgEarthNet.uav[12] utilizationCountChargeState 1
scalar OsgEarthNet.uav[12] utilizationCountOverdrawnAfterMission 0
scalar OsgEarthNet.uav[12] utilizationCountIdleState 2
scalar OsgEarthNet.uav[12] utilizationFail 0
scalar OsgEarthNet.uav[12] simulationTime 259200
scalar OsgEarthNet.uav[13] utilizationSecMission 750.20472747826
scalar OsgEarthNet.uav[13] utilizationSecMaintenance 261.68051383311
scalar OsgEarthNet.uav[13] utilizationSecCharge 3800
scalar OsgEarthNet.uav[13] utilizationSecIdle 254388.11375869
scalar OsgEarthNet.uav[13] utilizationEnergyMission 3523.2190551758
scalar OsgEarthNet.uav[13] utilizationEnergyMaintenance 1309.8918571472
scalar OsgEarthNet.uav[13] utilizationEnergyCharge 4833.1103515625
scalar OsgEarthNet.uav[13] utilizationEnergyOverdrawMission 0
scalar OsgEarthNet.uav[13] utilizationEnergyOverdrawMaintenance 0
scalar OsgEarthNet.uav[13] utilizationCountMissions 1
scalar OsgEarthNet.uav[13] utilizationCountManeuversMission 11
scalar OsgEarthNet.uav[13] utilizationCountManeuversMaintenance 2
scalar OsgEarthNet.uav[13] utilizationCountChargeState 1
scalar OsgEarthNet.uav[13] utilizationCountOverdrawnAfterMission 0
scalar OsgEarthNet.uav[13] utilizationCountIdleState 2
scalar OsgEarthNet.uav[13] utilizationFail 0
scalar OsgEarthNet.uav[13] simulationTime 259200
scalar OsgEarthNet.uav[14] utilizationSecMission 23.329233930829
scalar OsgEarthNet.uav[14] utilizationSecMaintenance 636.50021886036
scalar OsgEarthNet.uav[14] utilizationSecCharge 2860
scalar OsgEarthNet.uav[14] utilizationSecIdle 255680.16954721
scalar OsgEarthNet.uav[14] utilizationEnergyMission 70.71873474121
scalar OsgEarthNet.uav[14] utilizationEnergyMaintenance 3156.5508346558
scalar OsgEarthNet.uav[14] utilizationEnergyCharge 3227.2724609375
scalar OsgEarthNet.uav[14] utilizationEnergyOverdrawMission 0
scalar OsgEarthNet.uav[14] utilizationEnergyOverdrawMaintenance 0
scalar OsgEarthNet.uav[14] utilizationCountMissions 1
scalar OsgEarthNet.uav[14] utilizationCountManeuversMission 1
scalar OsgEarthNet.uav[14] utilizationCountManeuversMaintenance 2
scalar OsgEarthNet.uav[14] utilizationCountChargeState 1
scalar OsgEarthNet.uav[14] utilizationCountOverdrawnAfterMission 0
scalar OsgEarthNet.uav[14] utilizationCountIdleState 2
scalar OsgEarthNet.uav[14] utilizationFail 0
scalar OsgEarthNet.uav[14] simulationTime 259200
scalar OsgEarthNet.uav[15] utilizationSecMission 28123.93486455
scalar OsgEarthNet.uav[15] utilizationSecMaintenance 13897.974973796
scalar OsgEarthNet.uav[15] utilizationSecCharge 162202.05306288
scalar OsgEarthNet.uav[15] utilizationSecIdle 54976.036098769
scalar OsgEarthNet.uav[15] utilizationEnergyMission 128332.7465744
scalar OsgEarthNet.uav[15] utilizationEnergyMaintenance 64786.252742767
scalar OsgEarthNet.uav[15] utilizationEnergyCharge 192232.76538086
scalar OsgEarthNet.uav[15] utilizationEnergyOverdrawMission 0
scalar OsgEarthNet.uav[15] utilizationEnergyOverdrawMaintenance 0
scalar OsgEarthNet.uav[15] utilizationCountMissions 52
scalar OsgEarthNet.uav[15] utilizationCountManeuversMission 452
scalar OsgEarthNet.uav[15] utilizationCountManeuversMaintenance 104
scalar OsgEarthNet.uav[15] utilizationCountChargeState 52
scalar OsgEarthNet.uav[15] utilizationCountOverdrawnAfterMission 0
scalar OsgEarthNet.uav[15] utilizationCountIdleState 52
scalar OsgEarthNet.uav[15] utilizationFail 0
scalar OsgEarthNet.uav[15] simulationTime 259200
scalar OsgEarthNet.uav[16] utilizationSecMission 760.62515258028
scalar OsgEarthNet.uav[16] utilizationSecMaintenance 245.74410321072
scalar OsgEarthNet.uav[16] utilizationSecCharge 3720
scalar OsgEarthNet.uav[16] utilizationSecIdle 254473.62974421
scalar OsgEarthNet.uav[16] utilizationEnergyMission 3522.2418670654
scalar OsgEarthNet.uav[16] utilizationEnergyMaintenance 1215.7785453796
scalar OsgEarthNet.uav[16] utilizationEnergyCharge 4738.0205078125
scalar OsgEarthNet.uav[16] utilizationEnergyOverdrawMission 0
scalar OsgEarthNet.uav[16] utilizationEnergyOverdrawMaintenance 0
scalar OsgEarthNet.uav[16] utilizationCountMissions 1
scalar OsgEarthNet.uav[16] utilizationCountManeuversMission 12
scalar OsgEarthNet.uav[16] utilizationCountManeuversMaintenance 2
scalar OsgEarthNet.uav[16] utilizationCountChargeState 1
scalar OsgEarthNet.uav[16] utilizationCountOverdrawnAfterMission 0
scalar OsgEarthNet.uav[16] utilizationCountIdleState 2
scalar OsgEarthNet.uav[16] utilizationFail 0
scalar OsgEarthNet.uav[16] simulationTime 259200
scalar OsgEarthNet.uav[17] utilizationSecMission 26380.704756532
scalar OsgEarthNet.uav[17] utilizationSecMaintenance 15163.583551569
scalar OsgEarthNet.uav[17] utilizationSecCharge 164584.74670623
scalar OsgEarthNet.uav[17] utilizationSecIdle 53070.963985674
scalar OsgEarthNet.uav[17] utilizationEnergyMission 121764.52074051
scalar OsgEarthNet.uav[17] utilizationEnergyMaintenance 71074.678821564
scalar OsgEarthNet.uav[17] utilizationEnergyCharge 192493.859375
scalar OsgEarthNet.uav[17] utilizationEnergyOverdrawMission 0
scalar OsgEarthNet.uav[17] utilizationEnergyOverdrawMaintenance 0
scalar OsgEarthNet.uav[17] utilizationCountMissions 54
scalar OsgEarthNet.uav[17] utilizationCountManeuversMission 426
scalar OsgEarthNet.uav[17] utilizationCountManeuversMaintenance 108
scalar OsgEarthNet.uav[17] utilizationCountChargeState 54
scalar OsgEarthNet.uav[17] utilizationCountOverdrawnAfterMission 0
scalar OsgEarthNet.uav[17] utilizationCountIdleState 54
scalar OsgEarthNet.uav[17] utilizationFail 0
scalar OsgEarthNet.uav[17] simulationTime 259200
scalar OsgEarthNet.uav[18] utilizationSecMission 21422.761215186
scalar OsgEarthNet.uav[18] utilizationSecMaintenance 10152.365873959
scalar OsgEarthNet.uav[18] utilizationSecCharge 123090.86383203
scalar OsgEarthNet.uav[18] utilizationSecIdle 104534.00807883
scalar OsgEarthNet.uav[18] utilizationEnergyMission 98629.802642822
scalar OsgEarthNet.uav[18] utilizationEnergyMaintenance 46852.574882507
scalar OsgEarthNet.uav[18] utilizationEnergyCharge 145380.75732422
scalar OsgEarthNet.uav[18] utilizationEnergyOverdrawMission 0
scalar OsgEarthNet.uav[18] utilizationEnergyOverdrawMaintenance 0
scalar OsgEarthNet.uav[18] utilizationCountMissions 40
scalar OsgEarthNet.uav[18] utilizationCountManeuversMission 349
scalar OsgEarthNet.uav[18] utilizationCountManeuversMaintenance 80
scalar OsgEarthNet.uav[18] utilizationCountChargeState 40
scalar OsgEarthNet.uav[18] utilizationCountOverdrawnAfterMission 0
scalar OsgEarthNet.uav[18] utilizationCountIdleState 40
scalar OsgEarthNet.uav[18] utilizationFail 0
scalar OsgEarthNet.uav[18] simulationTime 259200
scalar OsgEarthNet.uav[19] utilizationSecMission 760.62515258028
scalar OsgEarthNet.uav[19] utilizationSecMaintenance 245.74410321072
scalar OsgEarthNet.uav[19] utilizationSecCharge 3650
scalar OsgEarthNet.uav[19] utilizationSecIdle 254543.62974421
scalar OsgEarthNet.uav[19] utilizationEnergyMission 3455.720489502
scalar OsgEarthNet.uav[19] utilizationEnergyMaintenance 1155.5469169617
scalar OsgEarthNet.uav[19] utilizationEnergyCharge 4611.265625
scalar OsgEarthNet.uav[19] utilizationEnergyOverdrawMission 0
scalar OsgEarthNet.uav[19] utilizationEnergyOverdrawMaintenance 0
scalar OsgEarthNet.uav[19] utilizationCountMissions 1
scalar OsgEarthNet.uav[19] utilizationCountManeuversMission 12
scalar OsgEarthNet.uav[19] utilizationCountManeuversMaintenance 2
scalar OsgEarthNet.uav[19] utilizationCountChargeState 1
scalar OsgEarthNet.uav[19] utilizationCountOverdrawnAfterMission 0
scalar OsgEarthNet.uav[19] utilizationCountIdleState 2
scalar OsgEarthNet.uav[19] utilizationFail 0
scalar OsgEarthNet.uav[19] simulationTime 259200
scalar OsgEarthNet.uav[20] utilizationSecMission 23104.111825216
scalar OsgEarthNet.uav[20] utilizationSecMaintenance 13845.64224317
scalar OsgEarthNet.uav[20] utilizationSecCharge 148142.81955013
scalar OsgEarthNet.uav[20] utilizationSecIdle 74107.425381488
scalar OsgEarthNet.uav[20] utilizationEnergyMission 104963.72431564
scalar OsgEarthNet.uav[20] utilizationEnergyMaintenance 66120.054935455
scalar OsgEarthNet.uav[20] utilizationEnergyCharge 170578.55932617
scalar OsgEarthNet.uav[20] utilizationEnergyOverdrawMission 0
scalar OsgEarthNet.uav[20] utilizationEnergyOverdrawMaintenance 0
scalar OsgEarthNet.uav[20] utilizationCountMissions 50
scalar OsgEarthNet.uav[20] utilizationCountManeuversMission 369
scalar OsgEarthNet.uav[20] utilizationCountManeuversMaintenance 100
scalar OsgEarthNet.uav[20] utilizationCountChargeState 50
scalar OsgEarthNet.uav[20] utilizationCountOverdrawnAfterMission 0
scalar OsgEarthNet.uav[20] utilizationCountIdleState 50
scalar OsgEarthNet.uav[20] utilizationFail 0
scalar OsgEarthNet.uav[20] simulationTime 259200
scalar OsgEarthNet.uav[21] utilizationSecMission 18873.707837716
scalar OsgEarthNet.uav[21] utilizationSecMaintenance 10580.319570298
scalar OsgEarthNet.uav[21] utilizationSecCharge 115850
scalar OsgEarthNet.uav[21] utilizationSecIdle 113895.97159199
scalar OsgEarthNet.uav[21] utilizationEnergyMission 87002.100353158
scalar OsgEarthNet.uav[21] utilizationEnergyMaintenance 50289.637851715
scalar OsgEarthNet.uav[21] utilizationEnergyCharge 136529.27783203
scalar OsgEarthNet.uav[21] utilizationEnergyOverdrawMission 0
scalar OsgEarthNet.uav[21] utilizationEnergyOverdrawMaintenance 0
scalar OsgEarthNet.uav[21] utilizationCountMissions 37
scalar OsgEarthNet.uav[21] utilizationCountManeuversMission 316
scalar OsgEarthNet.uav[21] utilizationCountManeuversMaintenance 75
scalar OsgEarthNet.uav[21] utilizationCountChargeState 37
scalar OsgEarthNet.uav[21] utilizationCountOverdrawnAfterMission 0
scalar OsgEarthNet.uav[21] utilizationCountIdleState 38
scalar OsgEarthNet.uav[21] utilizationFail 0
scalar OsgEarthNet.uav[21] simulationTime 259200
scalar OsgEarthNet.uav[22] utilizationSecMission 5725.9919526806
scalar OsgEarthNet.uav[22] utilizationSecMaintenance 3694.4866589396
scalar OsgEarthNet.uav[22] utilizationSecCharge 37610
scalar OsgEarthNet.uav[22] utilizationSecIdle 212169.52038838
scalar OsgEarthNet.uav[22] utilizationEnergyMission 26140.590099335
scalar OsgEarthNet.uav[22] utilizationEnergyMaintenance 18091.261032104
scalar OsgEarthNet.uav[22] utilizationEnergyCharge 44316.306640625
scalar OsgEarthNet.uav[22] utilizationEnergyOverdrawMission 0
scalar OsgEarthNet.uav[22] utilizationEnergyOverdrawMaintenance 0
scalar OsgEarthNet.uav[22] utilizationCountMissions 12
scalar OsgEarthNet.uav[22] utilizationCountManeuversMission 94
scalar OsgEarthNet.uav[22] utilizationCountManeuversMaintenance 24
scalar OsgEarthNet.uav[22] utilizationCountChargeState 12
scalar OsgEarthNet.uav[22] utilizationCountOverdrawnAfterMission 0
scalar OsgEarthNet.uav[22] utilizationCountIdleState 13
scalar OsgEarthNet.uav[22] utilizationFail 0
scalar OsgEarthNet.uav[22] simulationTime 259200
scalar OsgEarthNet.uav[23] utilizationSecMission 52.985382275403
scalar OsgEarthNet.uav[23] utilizationSecMaintenance 638.66126345834
scalar OsgEarthNet.uav[23] utilizationSecCharge 2750
scalar OsgEarthNet.uav[23] utilizationSecIdle 255758.35235427
scalar OsgEarthNet.uav[23] utilizationEnergyMission 219.8025970459
scalar OsgEarthNet.uav[23] utilizationEnergyMaintenance 2831.4711494446
scalar OsgEarthNet.uav[23] utilizationEnergyCharge 3051.2692871094
scalar OsgEarthNet.uav[23] utilizationEnergyOverdrawMission 0
scalar OsgEarthNet.uav[23] utilizationEnergyOverdrawMaintenance 0
scalar OsgEarthNet.uav[23] utilizationCountMissions 1
scalar OsgEarthNet.uav[23] utilizationCountManeuversMission 1
scalar OsgEarthNet.uav[23] utilizationCountManeuversMaintenance 2
scalar OsgEarthNet.uav[23] utilizationCountChargeState 1
scalar OsgEarthNet.uav[23] utilizationCountOverdrawnAfterMission 0
scalar OsgEarthNet.uav[23] utilizationCountIdleState 2
scalar OsgEarthNet.uav[23] utilizationFail 0
scalar OsgEarthNet.uav[23] simulationTime 259200
scalar OsgEarthNet.uav[24] utilizationSecMission 24635.711287588
scalar OsgEarthNet.uav[24] utilizationSecMaintenance 14668.408790491
scalar OsgEarthNet.uav[24] utilizationSecCharge 155442.11693441
scalar OsgEarthNet.uav[24] utilizationSecIdle 64453.761987508
scalar OsgEarthNet.uav[24] utilizationEnergyMission 115944.64099884
scalar OsgEarthNet.uav[24] utilizationEnergyMaintenance 67775.499897003
scalar OsgEarthNet.uav[24] utilizationEnergyCharge 183936.62280273
scalar OsgEarthNet.uav[24] utilizationEnergyOverdrawMission 0
scalar OsgEarthNet.uav[24] utilizationEnergyOverdrawMaintenance 0
scalar OsgEarthNet.uav[24] utilizationCountMissions 50
scalar OsgEarthNet.uav[24] utilizationCountManeuversMission 399
scalar OsgEarthNet.uav[24] utilizationCountManeuversMaintenance 100
scalar OsgEarthNet.uav[24] utilizationCountChargeState 50
scalar OsgEarthNet.uav[24] utilizationCountOverdrawnAfterMission 0
scalar OsgEarthNet.uav[24] utilizationCountIdleState 50
scalar OsgEarthNet.uav[24] utilizationFail 0
scalar OsgEarthNet.uav[24] simulationTime 259200
scalar OsgEarthNet.uav[25] utilizationSecMission 17007.873681772
scalar OsgEarthNet.uav[25] utilizationSecMaintenance 8139.132596495
scalar OsgEarthNet.uav[25] utilizationSecCharge 95335.807975433
scalar OsgEarthNet.uav[25] utilizationSecIdle 138717.1847463
scalar OsgEarthNet.uav[25] utilizationEnergyMission 78458.912986755
scalar OsgEarthNet.uav[25] utilizationEnergyMaintenance 37318.355827332
scalar OsgEarthNet.uav[25] utilizationEnergyCharge 112842.07843018
scalar OsgEarthNet.uav[25] utilizationEnergyOverdrawMission 0
scalar OsgEarthNet.uav[25] utilizationEnergyOverdrawMaintenance 0
scalar OsgEarthNet.uav[25] utilizationCountMissions 31
scalar OsgEarthNet.uav[25] utilizationCountManeuversMission 283
scalar OsgEarthNet.uav[25] utilizationCountManeuversMaintenance 62
scalar OsgEarthNet.uav[25] utilizationCountChargeState 31
scalar OsgEarthNet.uav[25] utilizationCountOverdrawnAfterMission 0
scalar OsgEarthNet.uav[25] utilizationCountIdleState 31
scalar OsgEarthNet.uav[25] utilizationFail 0
scalar OsgEarthNet.uav[25] simulationTime 259200
scalar OsgEarthNet.uav[26] utilizationSecMission 443.5870541303
scalar OsgEarthNet.uav[26] utilizationSecMaintenance 425.80795651079
scalar OsgEarthNet.uav[26] utilizationSecCharge 3250
scalar OsgEarthNet.uav[26] utilizationSecIdle 255080.60398936
scalar OsgEarthNet.uav[26] utilizationEnergyMission 1839.4560241699
scalar OsgEarthNet.uav[26] utilizationEnergyMaintenance 1975.0927696228
scalar OsgEarthNet.uav[26] utilizationEnergyCharge 3868.1804199219
scalar OsgEarthNet.uav[26] utilizationEnergyOverdrawMission 0
scalar OsgEarthNet.uav[26] utilizationEnergyOverdrawMaintenance 0
scalar OsgEarthNet.uav[26] utilizationCountMissions 1
scalar OsgEarthNet.uav[26] utilizationCountManeuversMission 7
scalar OsgEarthNet.uav[26] utilizationCountManeuversMaintenance 2
scalar OsgEarthNet.uav[26] utilizationCountChargeState 1
scalar OsgEarthNet.uav[26] utilizationCountOverdrawnAfterMission 0
scalar OsgEarthNet.uav[26] utilizationCountIdleState 2
scalar OsgEarthNet.uav[26] utilizationFail 0
scalar OsgEarthNet.uav[26] simulationTime 259200
scalar OsgEarthNet.uav[27] utilizationSecMission 26600.81833744
scalar OsgEarthNet.uav[27] utilizationSecMaintenance 12583.456005296
scalar OsgEarthNet.uav[27] utilizationSecCharge 154061.01895823
scalar OsgEarthNet.uav[27] utilizationSecIdle 65954.705699036
scalar OsgEarthNet.uav[27] utilizationEnergyMission 124927.58139038
scalar OsgEarthNet.uav[27] utilizationEnergyMaintenance 59249.259155273
scalar OsgEarthNet.uav[27] utilizationEnergyCharge 182213.38574219
scalar OsgEarthNet.uav[27] utilizationEnergyOverdrawMission 0
scalar OsgEarthNet.uav[27] utilizationEnergyOverdrawMaintenance 0
scalar OsgEarthNet.uav[27] utilizationCountMissions 50
scalar OsgEarthNet.uav[27] utilizationCountManeuversMission 453
scalar OsgEarthNet.uav[27] utilizationCountManeuversMaintenance 100
scalar OsgEarthNet.uav[27] utilizationCountChargeState 50
scalar OsgEarthNet.uav[27] utilizationCountOverdrawnAfterMission 0
scalar OsgEarthNet.uav[27] utilizationCountIdleState 50
scalar OsgEarthNet.uav[27] utilizationFail 0
scalar OsgEarthNet.uav[27] simulationTime 259200
scalar OsgEarthNet.uav[28] utilizationSecMission 694.00169469977
scalar OsgEarthNet.uav[28] utilizationSecMaintenance 229.48898285212
scalar OsgEarthNet.uav[28] utilizationSecCharge 3330
scalar OsgEarthNet.uav[28] utilizationSecIdle 254946.50832245
scalar OsgEarthNet.uav[28] utilizationEnergyMission 3087.2791671753
scalar OsgEarthNet.uav[28] utilizationEnergyMaintenance 966.78185272217
scalar OsgEarthNet.uav[28] utilizationEnergyCharge 4024.1662597656
scalar OsgEarthNet.uav[28] utilizationEnergyOverdrawMission 0
scalar OsgEarthNet.uav[28] utilizationEnergyOverdrawMaintenance 0
scalar OsgEarthNet.uav[28] utilizationCountMissions 1
scalar OsgEarthNet.uav[28] utilizationCountManeuversMission 13
scalar OsgEarthNet.uav[28] utilizationCountManeuversMaintenance 2
scalar OsgEarthNet.uav[28] utilizationCountChargeState 1
scalar OsgEarthNet.uav[28] utilizationCountOverdrawnAfterMission 0
scalar OsgEarthNet.uav[28] utilizationCountIdleState 2
scalar OsgEarthNet.uav[28] utilizationFail 0
scalar OsgEarthNet.uav[28] simulationTime 259200
scalar OsgEarthNet.uav[29] utilizationSecMission 213.40226662092
scalar OsgEarthNet.uav[29] utilizationSecMaintenance 474.30151219871
scalar OsgEarthNet.uav[29] utilizationSecCharge 2840
scalar OsgEarthNet.uav[29] utilizationSecIdle 255672.29522118
scalar OsgEarthNet.uav[29] utilizationEnergyMission 1005.4890289307
scalar OsgEarthNet.uav[29] utilizationEnergyMaintenance 2173.7329940796
scalar OsgEarthNet.uav[29] utilizationEnergyCharge 3179.216796875
scalar OsgEarthNet.uav[29] utilizationEnergyOverdrawMission 0
scalar OsgEarthNet.uav[29] utilizationEnergyOverdrawMaintenance 0
scalar OsgEarthNet.uav[29] utilizationCountMissions 1
scalar OsgEarthNet.uav[29] utilizationCountManeuversMission 3
scalar OsgEarthNet.uav[29] utilizationCountManeuversMaintenance 2
scalar OsgEarthNet.uav[29] utilizationCountChargeState 1
scalar OsgEarthNet.uav[29] utilizationCountOverdrawnAfterMission 0
scalar OsgEarthNet.uav[29] utilizationCountIdleState 2
scalar OsgEarthNet.uav[29] utilizationFail 0
scalar OsgEarthNet.uav[29] simulationTime 259200
scalar OsgEarthNet.uav[30] utilizationSecMission 10694.56637957
scalar OsgEarthNet.uav[30] utilizationSecMaintenance 5511.7601097517
scalar OsgEarthNet.uav[30] utilizationSecCharge 64870
scalar OsgEarthNet.uav[30] utilizationSecIdle 178123.67251068
scalar OsgEarthNet.uav[30] utilizationEnergyMission 50122.660148621
scalar OsgEarthNet.uav[30] utilizationEnergyMaintenance 25875.010780334
scalar OsgEarthNet.uav[30] utilizationEnergyCharge 75903.390380859
scalar OsgEarthNet.uav[30] utilizationEnergyOverdrawMission 0
scalar OsgEarthNet.uav[30] utilizationEnergyOverdrawMaintenance 0
scalar OsgEarthNet.uav[30] utilizationCountMissions 21
scalar OsgEarthNet.uav[30] utilizationCountManeuversMission 173
scalar OsgEarthNet.uav[30] utilizationCountManeuversMaintenance 42
scalar OsgEarthNet.uav[30] utilizationCountChargeState 21
scalar OsgEarthNet.uav[30] utilizationCountOverdrawnAfterMission 0
scalar OsgEarthNet.uav[30] utilizationCountIdleState 22
scalar OsgEarthNet.uav[30] utilizationFail 0
scalar OsgEarthNet.uav[30] simulationTime 259200
scalar OsgEarthNet.uav[31] utilizationSecMission 11818.74306727
scalar OsgEarthNet.uav[31] utilizationSecMaintenance 6101.9740123632
scalar OsgEarthNet.uav[31] utilizationSecCharge 70530
scalar OsgEarthNet.uav[31] utilizationSecIdle 170749.28192037
scalar OsgEarthNet.uav[31] utilizationEnergyMission 54171.751220703
scalar OsgEarthNet.uav[31] utilizationEnergyMaintenance 28663.804721832
scalar OsgEarthNet.uav[31] utilizationEnergyCharge 82420.468505859
scalar OsgEarthNet.uav[31] utilizationEnergyOverdrawMission 0
scalar OsgEarthNet.uav[31] utilizationEnergyOverdrawMaintenance 0
scalar OsgEarthNet.uav[31] utilizationCountMissions 23
scalar OsgEarthNet.uav[31] utilizationCountManeuversMission 194
scalar OsgEarthNet.uav[31] utilizationCountManeuversMaintenance 46
scalar OsgEarthNet.uav[31] utilizationCountChargeState 23
scalar OsgEarthNet.uav[31] utilizationCountOverdrawnAfterMission 0
scalar OsgEarthNet.uav[31] utilizationCountIdleState 24
scalar OsgEarthNet.uav[31] utilizationFail 0
scalar OsgEarthNet.uav[31] simulationTime 259200
scalar OsgEarthNet.uav[32] utilizationSecMission 31632.539440764
scalar OsgEarthNet.uav[32] utilizationSecMaintenance 12455.459559236
scalar OsgEarthNet.uav[32] utilizationSecCharge 169290
scalar OsgEarthNet.uav[32] utilizationSecIdle 45822
scalar OsgEarthNet.uav[32] utilizationEnergyMission 146207.41984471
scalar OsgEarthNet.uav[32] utilizationEnergyMaintenance 58763.878843606
scalar OsgEarthNet.uav[32] utilizationEnergyCharge 199696.09741211
scalar OsgEarthNet.uav[32] utilizationEnergyOverdrawMission 0
scalar OsgEarthNet.uav[32] utilizationEnergyOverdrawMaintenance 0
scalar OsgEarthNet.uav[32] utilizationCountMissions 55
scalar OsgEarthNet.uav[32] utilizationCountManeuversMission 516
scalar OsgEarthNet.uav[32] utilizationCountManeuversMaintenance 109
scalar OsgEarthNet.uav[32] utilizationCountChargeState 54
scalar OsgEarthNet.uav[32] utilizationCountOverdrawnAfterMission 0
scalar OsgEarthNet.uav[32] utilizationCountIdleState 55
scalar OsgEarthNet.uav[32] utilizationFail 0
scalar OsgEarthNet.uav[32] simulationTime 259200
scalar OsgEarthNet.uav[33] utilizationSecMission 760.62515258028
scalar OsgEarthNet.uav[33] utilizationSecMaintenance 245.74410321072
scalar OsgEarthNet.uav[33] utilizationSecCharge 3740
scalar OsgEarthNet.uav[33] utilizationSecIdle 254453.62974421
scalar OsgEarthNet.uav[33] utilizationEnergyMission 3552.9683990479
scalar OsgEarthNet.uav[33] utilizationEnergyMaintenance 1181.7815971375
scalar OsgEarthNet.uav[33] utilizationEnergyCharge 4734.7485351562
scalar OsgEarthNet.uav[33] utilizationEnergyOverdrawMission 0
scalar OsgEarthNet.uav[33] utilizationEnergyOverdrawMaintenance 0
scalar OsgEarthNet.uav[33] utilizationCountMissions 1
scalar OsgEarthNet.uav[33] utilizationCountManeuversMission 12
scalar OsgEarthNet.uav[33] utilizationCountManeuversMaintenance 2
scalar OsgEarthNet.uav[33] utilizationCountChargeState 1
scalar OsgEarthNet.uav[33] utilizationCountOverdrawnAfterMission 0
scalar OsgEarthNet.uav[33] utilizationCountIdleState 2
scalar OsgEarthNet.uav[33] utilizationFail 0
scalar OsgEarthNet.uav[33] simulationTime 259200
scalar OsgEarthNet.uav[34] utilizationSecMission 27214.140789099
scalar OsgEarthNet.uav[34] utilizationSecMaintenance 15074.888263134
scalar OsgEarthNet.uav[34] utilizationSecCharge 164636.35805825
scalar OsgEarthNet.uav[34] utilizationSecIdle 52274.611889516
scalar OsgEarthNet.uav[34] utilizationEnergyMission 125405.7635231
scalar OsgEarthNet.uav[34] utilizationEnergyMaintenance 70284.556926727
scalar OsgEarthNet.uav[34] utilizationEnergyCharge 193156.2734375
scalar OsgEarthNet.uav[34] utilizationEnergyOverdrawMission 0
scalar OsgEarthNet.uav[34] utilizationEnergyOverdrawMaintenance 0
scalar OsgEarthNet.uav[34] utilizationCountMissions 54
scalar OsgEarthNet.uav[34] utilizationCountManeuversMission 458
scalar OsgEarthNet.uav[34] utilizationCountManeuversMaintenance 108
scalar OsgEarthNet.uav[34] utilizationCountChargeState 54
scalar OsgEarthNet.uav[34] utilizationCountOverdrawnAfterMission 0
scalar OsgEarthNet.uav[34] utilizationCountIdleState 54
scalar OsgEarthNet.uav[34] utilizationFail 0
scalar OsgEarthNet.uav[34] simulationTime 259200
scalar OsgEarthNet.uav[35] utilizationSecMission 887.1741082606
scalar OsgEarthNet.uav[35] utilizationSecMaintenance 125.81102573108
scalar OsgEarthNet.uav[35] utilizationSecCharge 3610
scalar OsgEarthNet.uav[35] utilizationSecIdle 254577.01386601
scalar OsgEarthNet.uav[35] utilizationEnergyMission 3678.5349960327
scalar OsgEarthNet.uav[35] utilizationEnergyMaintenance 524.30095672608
scalar OsgEarthNet.uav[35] utilizationEnergyCharge 4511.5068359375
scalar OsgEarthNet.uav[35] utilizationEnergyOverdrawMission 0
scalar OsgEarthNet.uav[35] utilizationEnergyOverdrawMaintenance 0
scalar OsgEarthNet.uav[35] utilizationCountMissions 1
scalar OsgEarthNet.uav[35] utilizationCountManeuversMission 14
scalar OsgEarthNet.uav[35] utilizationCountManeuversMaintenance 2
scalar OsgEarthNet.uav[35] utilizationCountChargeState 1
scalar OsgEarthNet.uav[35] utilizationCountOverdrawnAfterMission 0
scalar OsgEarthNet.uav[35] utilizationCountIdleState 2
scalar OsgEarthNet.uav[35] utilizationFail 0
scalar OsgEarthNet.uav[35] simulationTime 259200
scalar OsgEarthNet.uav[36] utilizationSecMission 28472.689794779
scalar OsgEarthNet.uav[36] utilizationSecMaintenance 13609.499851165
scalar OsgEarthNet.uav[36] utilizationSecCharge 162072.2624448
scalar OsgEarthNet.uav[36] utilizationSecIdle 55045.546909258
scalar OsgEarthNet.uav[36] utilizationEnergyMission 131058.47356415
scalar OsgEarthNet.uav[36] utilizationEnergyMaintenance 64150.648323059
scalar OsgEarthNet.uav[36] utilizationEnergyCharge 192752.73022461
scalar OsgEarthNet.uav[36] utilizationEnergyOverdrawMission 0
scalar OsgEarthNet.uav[36] utilizationEnergyOverdrawMaintenance 0
scalar OsgEarthNet.uav[36] utilizationCountMissions 52
scalar OsgEarthNet.uav[36] utilizationCountManeuversMission 460
scalar OsgEarthNet.uav[36] utilizationCountManeuversMaintenance 104
scalar OsgEarthNet.uav[36] utilizationCountChargeState 52
scalar OsgEarthNet.uav[36] utilizationCountOverdrawnAfterMission 0
scalar OsgEarthNet.uav[36] utilizationCountIdleState 52
scalar OsgEarthNet.uav[36] utilizationFail 0
scalar OsgEarthNet.uav[36] simulationTime 259200
scalar OsgEarthNet.uav[37] utilizationSecMission 4583.3834669021
scalar OsgEarthNet.uav[37] utilizationSecMaintenance 2041.5910808687
scalar OsgEarthNet.uav[37] utilizationSecCharge 25850
scalar OsgEarthNet.uav[37] utilizationSecIdle 226725.02445223
scalar OsgEarthNet.uav[37] utilizationEnergyMission 21095.695663452
scalar OsgEarthNet.uav[37] utilizationEnergyMaintenance 9830.9019546509
scalar OsgEarthNet.uav[37] utilizationEnergyCharge 30931.571289062
scalar OsgEarthNet.uav[37] utilizationEnergyOverdrawMission 0
scalar OsgEarthNet.uav[37] utilizationEnergyOverdrawMaintenance 0
scalar OsgEarthNet.uav[37] utilizationCountMissions 8
scalar OsgEarthNet.uav[37] utilizationCountManeuversMission 78
scalar OsgEarthNet.uav[37] utilizationCountManeuversMaintenance 16
scalar OsgEarthNet.uav[37] utilizationCountChargeState 8
scalar OsgEarthNet.uav[37] utilizationCountOverdrawnAfterMission 0
scalar OsgEarthNet.uav[37] utilizationCountIdleState 9
scalar OsgEarthNet.uav[37] utilizationFail 0
scalar OsgEarthNet.uav[37] simulationTime 259200
scalar OsgEarthNet.uav[38] utilizationSecMission 25421.071196998
scalar OsgEarthNet.uav[38] utilizationSecMaintenance 14234.42553438
scalar OsgEarthNet.uav[38] utilizationSecCharge 157900
scalar OsgEarthNet.uav[38] utilizationSecIdle 61644.502268622
scalar OsgEarthNet.uav[38] utilizationEnergyMission 118045.96620941
scalar OsgEarthNet.uav[38] utilizationEnergyMaintenance 67944.709480286
scalar OsgEarthNet.uav[38] utilizationEnergyCharge 185593.76196289
scalar OsgEarthNet.uav[38] utilizationEnergyOverdrawMission 0
scalar OsgEarthNet.uav[38] utilizationEnergyOverdrawMaintenance 0
scalar OsgEarthNet.uav[38] utilizationCountMissions 51
scalar OsgEarthNet.uav[38] utilizationCountManeuversMission 412
scalar OsgEarthNet.uav[38] utilizationCountManeuversMaintenance 102
scalar OsgEarthNet.uav[38] utilizationCountChargeState 51
scalar OsgEarthNet.uav[38] utilizationCountOverdrawnAfterMission 0
scalar OsgEarthNet.uav[38] utilizationCountIdleState 52
scalar OsgEarthNet.uav[38] utilizationFail 0
scalar OsgEarthNet.uav[38] simulationTime 259200
scalar OsgEarthNet.uav[39] utilizationSecMission 28079.775908676
scalar OsgEarthNet.uav[39] utilizationSecMaintenance 12108.972920209
scalar OsgEarthNet.uav[39] utilizationSecCharge 153982.57247481
scalar OsgEarthNet.uav[39] utilizationSecIdle 65028.677696308
scalar OsgEarthNet.uav[39] utilizationEnergyMission 130156.55016327
scalar OsgEarthNet.uav[39] utilizationEnergyMaintenance 55631.739971161
scalar OsgEarthNet.uav[39] utilizationEnergyCharge 181735.58190918
scalar OsgEarthNet.uav[39] utilizationEnergyOverdrawMission 0
scalar OsgEarthNet.uav[39] utilizationEnergyOverdrawMaintenance 0
scalar OsgEarthNet.uav[39] utilizationCountMissions 50
scalar OsgEarthNet.uav[39] utilizationCountManeuversMission 466
scalar OsgEarthNet.uav[39] utilizationCountManeuversMaintenance 100
scalar OsgEarthNet.uav[39] utilizationCountChargeState 50
scalar OsgEarthNet.uav[39] utilizationCountOverdrawnAfterMission 0
scalar OsgEarthNet.uav[39] utilizationCountIdleState 50
scalar OsgEarthNet.uav[39] utilizationFail 0
scalar OsgEarthNet.uav[39] simulationTime 259200
scalar OsgEarthNet.uav[40] utilizationSecMission 443.5870541303
scalar OsgEarthNet.uav[40] utilizationSecMaintenance 425.80795651079
scalar OsgEarthNet.uav[40] utilizationSecCharge 3360
scalar OsgEarthNet.uav[40] utilizationSecIdle 254970.60398936
scalar OsgEarthNet.uav[40] utilizationEnergyMission 2194.1704101562
scalar OsgEarthNet.uav[40] utilizationEnergyMaintenance 1928.8745689392
scalar OsgEarthNet.uav[40] utilizationEnergyCharge 4088.7578125
scalar OsgEarthNet.uav[40] utilizationEnergyOverdrawMission 0
scalar OsgEarthNet.uav[40] utilizationEnergyOverdrawMaintenance 0
scalar OsgEarthNet.uav[40] utilizationCountMissions 1
scalar OsgEarthNet.uav[40] utilizationCountManeuversMission 7
scalar OsgEarthNet.uav[40] utilizationCountManeuversMaintenance 2
scalar OsgEarthNet.uav[40] utilizationCountChargeState 1
scalar OsgEarthNet.uav[40] utilizationCountOverdrawnAfterMission 0
scalar OsgEarthNet.uav[40] utilizationCountIdleState 2
scalar OsgEarthNet.uav[40] utilizationFail 0
scalar OsgEarthNet.uav[40] simulationTime 259200
scalar OsgEarthNet.uav[41] utilizationSecMission 896.35009812453
scalar OsgEarthNet.uav[41] utilizationSecMaintenance 436.05208261933
scalar OsgEarthNet.uav[41] utilizationSecCharge 5620
scalar OsgEarthNet.uav[41] utilizationSecIdle 252247.59681926
scalar OsgEarthNet.uav[41] utilizationEnergyMission 4294.7085113525
scalar OsgEarthNet.uav[41] utilizationEnergyMaintenance 1990.3047523499
scalar OsgEarthNet.uav[41] utilizationEnergyCharge 6285.0124511719
scalar OsgEarthNet.uav[41] utilizationEnergyOverdrawMission 0
scalar OsgEarthNet.uav[41] utilizationEnergyOverdrawMaintenance 0
scalar OsgEarthNet.uav[41] utilizationCountMissions 2
scalar OsgEarthNet.uav[41] utilizationCountManeuversMission 15
scalar OsgEarthNet.uav[41] utilizationCountManeuversMaintenance 4
scalar OsgEarthNet.uav[41] utilizationCountChargeState 2
scalar OsgEarthNet.uav[41] utilizationCountOverdrawnAfterMission 0
scalar OsgEarthNet.uav[41] utilizationCountIdleState 3
scalar OsgEarthNet.uav[41] utilizationFail 0
scalar OsgEarthNet.uav[41] simulationTime 259200
scalar OsgEarthNet.uav[42] utilizationSecMission 2581.7951710081
scalar OsgEarthNet.uav[42] utilizationSecMaintenance 845.68778752951
scalar OsgEarthNet.uav[42] utilizationSecCharge 13270
scalar OsgEarthNet.uav[42] utilizationSecIdle 242502.51604146
scalar OsgEarthNet.uav[42] utilizationEnergyMission 11999.481681824
scalar OsgEarthNet.uav[42] utilizationEnergyMaintenance 3878.7889976502
scalar OsgEarthNet.uav[42] utilizationEnergyCharge 16023.506347656
scalar OsgEarthNet.uav[42] utilizationEnergyOverdrawMission 0
scalar OsgEarthNet.uav[42] utilizationEnergyOverdrawMaintenance 0
scalar OsgEarthNet.uav[42] utilizationCountMissions 4
scalar OsgEarthNet.uav[42] utilizationCountManeuversMission 44
scalar OsgEarthNet.uav[42] utilizationCountManeuversMaintenance 8
scalar OsgEarthNet.uav[42] utilizationCountChargeState 4
scalar OsgEarthNet.uav[42] utilizationCountOverdrawnAfterMission 0
scalar OsgEarthNet.uav[42] utilizationCountIdleState 5
scalar OsgEarthNet.uav[42] utilizationFail 0
scalar OsgEarthNet.uav[42] simulationTime 259200
scalar OsgEarthNet.uav[43] utilizationSecMission 29885.094213346
scalar OsgEarthNet.uav[43] utilizationSecMaintenance 12358.731719986
scalar OsgEarthNet.uav[43] utilizationSecCharge 160260
scalar OsgEarthNet.uav[43] utilizationSecIdle 56696.173066668
scalar OsgEarthNet.uav[43] utilizationEnergyMission 137519.18027767
scalar OsgEarthNet.uav[43] utilizationEnergyMaintenance 56973.929405212
scalar OsgEarthNet.uav[43] utilizationEnergyCharge 192900.62426758
scalar OsgEarthNet.uav[43] utilizationEnergyOverdrawMission 0
scalar OsgEarthNet.uav[43] utilizationEnergyOverdrawMaintenance 0
scalar OsgEarthNet.uav[43] utilizationCountMissions 49
scalar OsgEarthNet.uav[43] utilizationCountManeuversMission 491
scalar OsgEarthNet.uav[43] utilizationCountManeuversMaintenance 99
scalar OsgEarthNet.uav[43] utilizationCountChargeState 49
scalar OsgEarthNet.uav[43] utilizationCountOverdrawnAfterMission 0
scalar OsgEarthNet.uav[43] utilizationCountIdleState 50
scalar OsgEarthNet.uav[43] utilizationFail 0
scalar OsgEarthNet.uav[43] simulationTime 259200
scalar OsgEarthNet.uav[44] utilizationSecMission 18888.86658377
scalar OsgEarthNet.uav[44] utilizationSecMaintenance 10220.677257014
scalar OsgEarthNet.uav[44] utilizationSecCharge 110900
scalar OsgEarthNet.uav[44] utilizationSecIdle 119190.45515922
scalar OsgEarthNet.uav[44] utilizationEnergyMission 85740.47857666
scalar OsgEarthNet.uav[44] utilizationEnergyMaintenance 47507.183666229
scalar OsgEarthNet.uav[44] utilizationEnergyCharge 133399.05639648
scalar OsgEarthNet.uav[44] utilizationEnergyOverdrawMission 0
scalar OsgEarthNet.uav[44] utilizationEnergyOverdrawMaintenance 0
scalar OsgEarthNet.uav[44] utilizationCountMissions 34
scalar OsgEarthNet.uav[44] utilizationCountManeuversMission 302
scalar OsgEarthNet.uav[44] utilizationCountManeuversMaintenance 68
scalar OsgEarthNet.uav[44] utilizationCountChargeState 34
scalar OsgEarthNet.uav[44] utilizationCountOverdrawnAfterMission 0
scalar OsgEarthNet.uav[44] utilizationCountIdleState 35
scalar OsgEarthNet.uav[44] utilizationFail 0
scalar OsgEarthNet.uav[44] simulationTime 259200
scalar OsgEarthNet.uav[45] utilizationSecMission 810.94126380595
scalar OsgEarthNet.uav[45] utilizationSecMaintenance 732.8097946674
scalar OsgEarthNet.uav[45] utilizationSecCharge 6330
scalar OsgEarthNet.uav[45] utilizationSecIdle 251326.24794153
scalar OsgEarthNet.uav[45] utilizationEnergyMission 4101.5418701172
scalar OsgEarthNet.uav[45] utilizationEnergyMaintenance 3506.2894020081
scalar OsgEarthNet.uav[45] utilizationEnergyCharge 7527.2075195312
scalar OsgEarthNet.uav[45] utilizationEnergyOverdrawMission 0
scalar OsgEarthNet.uav[45] utilizationEnergyOverdrawMaintenance 0
scalar OsgEarthNet.uav[45] utilizationCountMissions 2
scalar OsgEarthNet.uav[45] utilizationCountManeuversMission 16
scalar OsgEarthNet.uav[45] utilizationCountManeuversMaintenance 4
scalar OsgEarthNet.uav[45] utilizationCountChargeState 2
scalar OsgEarthNet.uav[45] utilizationCountOverdrawnAfterMission 0
scalar OsgEarthNet.uav[45] utilizationCountIdleState 3
scalar OsgEarthNet.uav[45] utilizationFail 0
scalar OsgEarthNet.uav[45] simulationTime 259200
scalar OsgEarthNet.uav[46] utilizationSecMission 750.20472747826
scalar OsgEarthNet.uav[46] utilizationSecMaintenance 261.68051383311
scalar OsgEarthNet.uav[46] utilizationSecCharge 3640
scalar OsgEarthNet.uav[46] utilizationSecIdle 254548.11375869
scalar OsgEarthNet.uav[46] utilizationEnergyMission 3357.2233886719
scalar OsgEarthNet.uav[46] utilizationEnergyMaintenance 1227.2263908386
scalar OsgEarthNet.uav[46] utilizationEnergyCharge 4584.4467773438
scalar OsgEarthNet.uav[46] utilizationEnergyOverdrawMission 0
scalar OsgEarthNet.uav[46] utilizationEnergyOverdrawMaintenance 0
scalar OsgEarthNet.uav[46] utilizationCountMissions 1
scalar OsgEarthNet.uav[46] utilizationCountManeuversMission 11
scalar OsgEarthNet.uav[46] utilizationCountManeuversMaintenance 2
scalar OsgEarthNet.uav[46] utilizationCountChargeState 1
scalar OsgEarthNet.uav[46] utilizationCountOverdrawnAfterMission 0
scalar OsgEarthNet.uav[46] utilizationCountIdleState 2
scalar OsgEarthNet.uav[46] utilizationFail 0
scalar OsgEarthNet.uav[46] simulationTime 259200
scalar OsgEarthNet.uav[47] utilizationSecMission 301.50602773369
scalar OsgEarthNet.uav[47] utilizationSecMaintenance 206.19350838146
scalar OsgEarthNet.uav[47] utilizationSecCharge 2360
scalar OsgEarthNet.uav[47] utilizationSecIdle 256332.29946388
scalar OsgEarthNet.uav[47] utilizationEnergyMission 1394.0575561523
scalar OsgEarthNet.uav[47] utilizationEnergyMaintenance 1014.7205429077
scalar OsgEarthNet.uav[47] utilizationEnergyCharge 2371.4772949219
scalar OsgEarthNet.uav[47] utilizationEnergyOverdrawMission 0
scalar OsgEarthNet.uav[47] utilizationEnergyOverdrawMaintenance 0
scalar OsgEarthNet.uav[47] utilizationCountMissions 1
scalar OsgEarthNet.uav[47] utilizationCountManeuversMission 6
scalar OsgEarthNet.uav[47] utilizationCountManeuversMaintenance 2
scalar OsgEarthNet.uav[47] utilizationCountChargeState 1
scalar OsgEarthNet.uav[47] utilizationCountOverdrawnAfterMission 0
scalar OsgEarthNet.uav[47] utilizationCountIdleState 2
scalar OsgEarthNet.uav[47] utilizationFail 0
scalar OsgEarthNet.uav[47] simulationTime 259200
scalar OsgEarthNet.uav[48] utilizationSecMission 12976.326736548
scalar OsgEarthNet.uav[48] utilizationSecMaintenance 4302.8994665528
scalar OsgEarthNet.uav[48] utilizationSecCharge 65050
scalar OsgEarthNet.uav[48] utilizationSecIdle 176870.7727969
scalar OsgEarthNet.uav[48] utilizationEnergyMission 60843.729326413
scalar OsgEarthNet.uav[48] utilizationEnergyMaintenance 19296.337257385
scalar OsgEarthNet.uav[48] utilizationEnergyCharge 76118.478515625
scalar OsgEarthNet.uav[48] utilizationEnergyOverdrawMission 0
scalar OsgEarthNet.uav[48] utilizationEnergyOverdrawMaintenance 0
scalar OsgEarthNet.uav[48] utilizationCountMissions 21
scalar OsgEarthNet.uav[48] utilizationCountManeuversMission 224
scalar OsgEarthNet.uav[48] utilizationCountManeuversMaintenance 43
scalar OsgEarthNet.uav[48] utilizationCountChargeState 21
scalar OsgEarthNet.uav[48] utilizationCountOverdrawnAfterMission 0
scalar OsgEarthNet.uav[48] utilizationCountIdleState 22
scalar OsgEarthNet.uav[48] utilizationFail 0
scalar OsgEarthNet.uav[48] simulationTime 259200
scalar OsgEarthNet.uav[49] utilizationSecMission 760.62515258028
scalar OsgEarthNet.uav[49] utilizationSecMaintenance 245.74410321072
scalar OsgEarthNet.uav[49] utilizationSecCharge 3520
scalar OsgEarthNet.uav[49] utilizationSecIdle 254673.62974421
scalar OsgEarthNet.uav[49] utilizationEnergyMission 3287.0150756836
scalar OsgEarthNet.uav[49] utilizationEnergyMaintenance 1106.3724479675
scalar OsgEarthNet.uav[49] utilizationEnergyCharge 4393.3881835938
scalar OsgEarthNet.uav[49] utilizationEnergyOverdrawMission 0
scalar OsgEarthNet.uav[49] utilizationEnergyOverdrawMaintenance 0
scalar OsgEarthNet.uav[49] utilizationCountMissions 1
scalar OsgEarthNet.uav[49] utilizationCountManeuversMission 12
scalar OsgEarthNet.uav[49] utilizationCountManeuversMaintenance 2
scalar OsgEarthNet.uav[49] utilizationCountChargeState 1
scalar OsgEarthNet.uav[49] utilizationCountOverdrawnAfterMission 0
scalar OsgEarthNet.uav[49] utilizationCountIdleState 2
scalar OsgEarthNet.uav[49] utilizationFail 0
scalar OsgEarthNet.uav[49] simulationTime 259200
scalar OsgEarthNet.uav[50] utilizationSecMission 1404.3107360544
scalar OsgEarthNet.uav[50] utilizationSecMaintenance 330.89530380829
scalar OsgEarthNet.uav[50] utilizationSecCharge 6650
scalar OsgEarthNet.uav[50] utilizationSecIdle 250814.79296014
scalar OsgEarthNet.uav[50] utilizationEnergyMission 6382.93724823
scalar OsgEarthNet.uav[50] utilizationEnergyMaintenance 1625.7003517151
scalar OsgEarthNet.uav[50] utilizationEnergyCharge 8053.0556640625
scalar OsgEarthNet.uav[50] utilizationEnergyOverdrawMission 0
scalar OsgEarthNet.uav[50] utilizationEnergyOverdrawMaintenance 0
scalar OsgEarthNet.uav[50] utilizationCountMissions 2
scalar OsgEarthNet.uav[50] utilizationCountManeuversMission 21
scalar OsgEarthNet.uav[50] utilizationCountManeuversMaintenance 4
scalar OsgEarthNet.uav[50] utilizationCountChargeState 2
scalar OsgEarthNet.uav[50] utilizationCountOverdrawnAfterMission 0
scalar OsgEarthNet.uav[50] utilizationCountIdleState 3
scalar OsgEarthNet.uav[50] utilizationFail 0
scalar OsgEarthNet.uav[50] simulationTime 259200
scalar OsgEarthNet.uav[51] utilizationSecMission 8832.5827311311
scalar OsgEarthNet.uav[51] utilizationSecMaintenance 4001.1788088717
scalar OsgEarthNet.uav[51] utilizationSecCharge 50590
scalar OsgEarthNet.uav[51] utilizationSecIdle 195776.23746
scalar OsgEarthNet.uav[51] utilizationEnergyMission 40941.690643311
scalar OsgEarthNet.uav[51] utilizationEnergyMaintenance 18923.711467743
scalar OsgEarthNet.uav[51] utilizationEnergyCharge 59646.97265625
scalar OsgEarthNet.uav[51] utilizationEnergyOverdrawMission 0
scalar OsgEarthNet.uav[51] utilizationEnergyOverdrawMaintenance 0
scalar OsgEarthNet.uav[51] utilizationCountMissions 16
scalar OsgEarthNet.uav[51] utilizationCountManeuversMission 144
scalar OsgEarthNet.uav[51] utilizationCountManeuversMaintenance 32
scalar OsgEarthNet.uav[51] utilizationCountChargeState 16
scalar OsgEarthNet.uav[51] utilizationCountOverdrawnAfterMission 0
scalar OsgEarthNet.uav[51] utilizationCountIdleState 17
scalar OsgEarthNet.uav[51] utilizationFail 0
scalar OsgEarthNet.uav[51] simulationTime 259200
scalar OsgEarthNet.uav[52] utilizationSecMission 30865.7351028
scalar OsgEarthNet.uav[52] utilizationSecMaintenance 12547.208149811
scalar OsgEarthNet.uav[52] utilizationSecCharge 168420
scalar OsgEarthNet.uav[52] utilizationSecIdle 47367.055747389
scalar OsgEarthNet.uav[52] utilizationEnergyMission 141656.20522308
scalar OsgEarthNet.uav[52] utilizationEnergyMaintenance 58377.351379395
scalar OsgEarthNet.uav[52] utilizationEnergyCharge 199965.70776367
scalar OsgEarthNet.uav[52] utilizationEnergyOverdrawMission 0
scalar OsgEarthNet.uav[52] utilizationEnergyOverdrawMaintenance 0
scalar OsgEarthNet.uav[52] utilizationCountMissions 53
scalar OsgEarthNet.uav[52] utilizationCountManeuversMission 509
scalar OsgEarthNet.uav[52] utilizationCountManeuversMaintenance 106
scalar OsgEarthNet.uav[52] utilizationCountChargeState 53
scalar OsgEarthNet.uav[52] utilizationCountOverdrawnAfterMission 0
scalar OsgEarthNet.uav[52] utilizationCountIdleState 54
scalar OsgEarthNet.uav[52] utilizationFail 0
scalar OsgEarthNet.uav[52] simulationTime 259200
scalar OsgEarthNet.uav[53] utilizationSecMission 29101.364035544
scalar OsgEarthNet.uav[53] utilizationSecMaintenance 15146.634964456
scalar OsgEarthNet.uav[53] utilizationSecCharge 169450
scalar OsgEarthNet.uav[53] utilizationSecIdle 45502
scalar OsgEarthNet.uav[53] utilizationEnergyMission 132906.68552253
scalar OsgEarthNet.uav[53] utilizationEnergyMaintenance 72086.342124939
scalar OsgEarthNet.uav[53] utilizationEnergyCharge 201942.16430664
scalar OsgEarthNet.uav[53] utilizationEnergyOverdrawMission 0
scalar OsgEarthNet.uav[53] utilizationEnergyOverdrawMaintenance 0
scalar OsgEarthNet.uav[53] utilizationCountMissions 53
scalar OsgEarthNet.uav[53] utilizationCountManeuversMission 469
scalar OsgEarthNet.uav[53] utilizationCountManeuversMaintenance 106
scalar OsgEarthNet.uav[53] utilizationCountChargeState 53
scalar OsgEarthNet.uav[53] utilizationCountOverdrawnAfterMission 0
scalar OsgEarthNet.uav[53] utilizationCountIdleState 54
scalar OsgEarthNet.uav[53] utilizationFail 0
scalar OsgEarthNet.uav[53] simulationTime 259200
scalar OsgEarthNet.uav[54] utilizationSecMission 301.50602773369
scalar OsgEarthNet.uav[54] utilizationSecMaintenance 206.19350838146
scalar OsgEarthNet.uav[54] utilizationSecCharge 2350
scalar OsgEarthNet.uav[54] utilizationSecIdle 256342.29946388
scalar OsgEarthNet.uav[54] utilizationEnergyMission 1474.2920379639
scalar OsgEarthNet.uav[54] utilizationEnergyMaintenance 1012.7294845581
scalar OsgEarthNet.uav[54] utilizationEnergyCharge 2344.9724121094
scalar OsgEarthNet.uav[54] utilizationEnergyOverdrawMission 0
scalar OsgEarthNet.uav[54] utilizationEnergyOverdrawMaintenance 0
scalar OsgEarthNet.uav[54] utilizationCountMissions 1
scalar OsgEarthNet.uav[54] utilizationCountManeuversMission 6
scalar OsgEarthNet.uav[54] utilizationCountManeuversMaintenance 2
scalar OsgEarthNet.uav[54] utilizationCountChargeState 1
scalar OsgEarthNet.uav[54] utilizationCountOverdrawnAfterMission 0
scalar OsgEarthNet.uav[54] utilizationCountIdleState 2
scalar OsgEarthNet.uav[54] utilizationFail 0
scalar OsgEarthNet.uav[54] simulationTime 259200
scalar OsgEarthNet.uav[55] utilizationSecMission 26864.158656094
scalar OsgEarthNet.uav[55] utilizationSecMaintenance 13079.2783143
scalar OsgEarthNet.uav[55] utilizationSecCharge 156330.90259749
scalar OsgEarthNet.uav[55] utilizationSecIdle 62925.659432111
scalar OsgEarthNet.uav[55] utilizationEnergyMission 126147.60500336
scalar OsgEarthNet.uav[55] utilizationEnergyMaintenance 61835.814750671
scalar OsgEarthNet.uav[55] utilizationEnergyCharge 185935.79956055
scalar OsgEarthNet.uav[55] utilizationEnergyOverdrawMission 0
scalar OsgEarthNet.uav[55] utilizationEnergyOverdrawMaintenance 0
scalar OsgEarthNet.uav[55] utilizationCountMissions 50
scalar OsgEarthNet.uav[55] utilizationCountManeuversMission 438
scalar OsgEarthNet.uav[55] utilizationCountManeuversMaintenance 100
scalar OsgEarthNet.uav[55] utilizationCountChargeState 50
scalar OsgEarthNet.uav[55] utilizationCountOverdrawnAfterMission 0
scalar OsgEarthNet.uav[55] utilizationCountIdleState 50
scalar OsgEarthNet.uav[55] utilizationFail 0
scalar OsgEarthNet.uav[55] simulationTime 259200
scalar OsgEarthNet.uav[56] utilizationSecMission 332.13845170574
scalar OsgEarthNet.uav[56] utilizationSecMaintenance 371.50440930603
scalar OsgEarthNet.uav[56] utilizationSecCharge 2890
scalar OsgEarthNet.uav[56] utilizationSecIdle 255606.35613899
scalar OsgEarthNet.uav[56] utilizationEnergyMission 1612.8251953125
scalar OsgEarthNet.uav[56] utilizationEnergyMaintenance 1656.4550704956
scalar OsgEarthNet.uav[56] utilizationEnergyCharge 3269.27734375
scalar OsgEarthNet.uav[56] utilizationEnergyOverdrawMission 0
scalar OsgEarthNet.uav[56] utilizationEnergyOverdrawMaintenance 0
scalar OsgEarthNet.uav[56] utilizationCountMissions 1
scalar OsgEarthNet.uav[56] utilizationCountManeuversMission 5
scalar OsgEarthNet.uav[56] utilizationCountManeuversMaintenance 2
scalar OsgEarthNet.uav[56] utilizationCountChargeState 1
scalar OsgEarthNet.uav[56] utilizationCountOverdrawnAfterMission 0
scalar OsgEarthNet.uav[56] utilizationCountIdleState 2
scalar OsgEarthNet.uav[56] utilizationFail 0
scalar OsgEarthNet.uav[56] simulationTime 259200
scalar OsgEarthNet.uav[57] utilizationSecMission 23.329233930829
scalar OsgEarthNet.uav[57] utilizationSecMaintenance 636.50021886036
scalar OsgEarthNet.uav[57] utilizationSecCharge 2760
scalar OsgEarthNet.uav[57] utilizationSecIdle 255780.16954721
scalar OsgEarthNet.uav[57] utilizationEnergyMission 78.207405090331
scalar OsgEarthNet.uav[57] utilizationEnergyMaintenance 2952.0536117554
scalar OsgEarthNet.uav[57] utilizationEnergyCharge 3030.2612304688
scalar OsgEarthNet.uav[57] utilizationEnergyOverdrawMission 0
scalar OsgEarthNet.uav[57] utilizationEnergyOverdrawMaintenance 0
scalar OsgEarthNet.uav[57] utilizationCountMissions 1
scalar OsgEarthNet.uav[57] utilizationCountManeuversMission 1
scalar OsgEarthNet.uav[57] utilizationCountManeuversMaintenance 2
scalar OsgEarthNet.uav[57] utilizationCountChargeState 1
scalar OsgEarthNet.uav[57] utilizationCountOverdrawnAfterMission 0
scalar OsgEarthNet.uav[57] utilizationCountIdleState 2
scalar OsgEarthNet.uav[57] utilizationFail 0
scalar OsgEarthNet.uav[57] simulationTime 259200
scalar OsgEarthNet.uav[58] utilizationSecMission 25628.905362648
scalar OsgEarthNet.uav[58] utilizationSecMaintenance 11436.221891947
scalar OsgEarthNet.uav[58] utilizationSecCharge 143578.42417293
scalar OsgEarthNet.uav[58] utilizationSecIdle 78556.447572472
scalar OsgEarthNet.uav[58] utilizationEnergyMission 119030.18798828
scalar OsgEarthNet.uav[58] utilizationEnergyMaintenance 53386.627464294
scalar OsgEarthNet.uav[58] utilizationEnergyCharge 171924.85839844
scalar OsgEarthNet.uav[58] utilizationEnergyOverdrawMission 0
scalar OsgEarthNet.uav[58] utilizationEnergyOverdrawMaintenance 0
scalar OsgEarthNet.uav[58] utilizationCountMissions 45
scalar OsgEarthNet.uav[58] utilizationCountManeuversMission 410
scalar OsgEarthNet.uav[58] utilizationCountManeuversMaintenance 90
scalar OsgEarthNet.uav[58] utilizationCountChargeState 45
scalar OsgEarthNet.uav[58] utilizationCountOverdrawnAfterMission 0
scalar OsgEarthNet.uav[58] utilizationCountIdleState 45
scalar OsgEarthNet.uav[58] utilizationFail 0
scalar OsgEarthNet.uav[58] simulationTime 259200
scalar OsgEarthNet.uav[59] utilizationSecMission 24206.795932088
scalar OsgEarthNet.uav[59] utilizationSecMaintenance 13329.515650401
scalar OsgEarthNet.uav[59] utilizationSecCharge 148542.71080986
scalar OsgEarthNet.uav[59] utilizationSecIdle 73120.976607647
scalar OsgEarthNet.uav[59] utilizationEnergyMission 112269.66178131
scalar OsgEarthNet.uav[59] utilizationEnergyMaintenance 62972.856903076
scalar OsgEarthNet.uav[59] utilizationEnergyCharge 175430.55078125
scalar OsgEarthNet.uav[59] utilizationEnergyOverdrawMission 0
scalar OsgEarthNet.uav[59] utilizationEnergyOverdrawMaintenance 0
scalar OsgEarthNet.uav[59] utilizationCountMissions 48
scalar OsgEarthNet.uav[59] utilizationCountManeuversMission 393
scalar OsgEarthNet.uav[59] utilizationCountManeuversMaintenance 96
scalar OsgEarthNet.uav[59] utilizationCountChargeState 48
scalar OsgEarthNet.uav[59] utilizationCountOverdrawnAfterMission 0
scalar OsgEarthNet.uav[59] utilizationCountIdleState 48
scalar OsgEarthNet.uav[59] utilizationFail 0
scalar OsgEarthNet.uav[59] simulationTime 259200
scalar OsgEarthNet.uav[60] utilizationSecMission 26371.370475383
scalar OsgEarthNet.uav[60] utilizationSecMaintenance 11665.042402351
scalar OsgEarthNet.uav[60] utilizationSecCharge 147770
scalar OsgEarthNet.uav[60] utilizationSecIdle 73393.586122266
scalar OsgEarthNet.uav[60] utilizationEnergyMission 120732.02186584
scalar OsgEarthNet.uav[60] utilizationEnergyMaintenance 55548.083553314
scalar OsgEarthNet.uav[60] utilizationEnergyCharge 176399.71313477
scalar OsgEarthNet.uav[60] utilizationEnergyOverdrawMission 0
scalar OsgEarthNet.uav[60] utilizationEnergyOverdrawMaintenance 0
scalar OsgEarthNet.uav[60] utilizationCountMissions 46
scalar OsgEarthNet.uav[60] utilizationCountManeuversMission 427
scalar OsgEarthNet.uav[60] utilizationCountManeuversMaintenance 92
scalar OsgEarthNet.uav[60] utilizationCountChargeState 46
scalar OsgEarthNet.uav[60] utilizationCountOverdrawnAfterMission 0
scalar OsgEarthNet.uav[60] utilizationCountIdleState 47
scalar OsgEarthNet.uav[60] utilizationFail 0
scalar OsgEarthNet.uav[60] simulationTime 259200
scalar OsgEarthNet.uav[61] utilizationSecMission 582.56869965618
scalar OsgEarthNet.uav[61] utilizationSecMaintenance 696.95124974748
scalar OsgEarthNet.uav[61] utilizationSecCharge 5450
scalar OsgEarthNet.uav[61] utilizationSecIdle 252470.4790506
scalar OsgEarthNet.uav[61] utilizationEnergyMission 2661.5520172119
scalar OsgEarthNet.uav[61] utilizationEnergyMaintenance 3358.0284156799
scalar OsgEarthNet.uav[61] utilizationEnergyCharge 5976.4553222656
scalar OsgEarthNet.uav[61] utilizationEnergyOverdrawMission 0
scalar OsgEarthNet.uav[61] utilizationEnergyOverdrawMaintenance 0
scalar OsgEarthNet.uav[61] utilizationCountMissions 2
scalar OsgEarthNet.uav[61] utilizationCountManeuversMission 9
scalar OsgEarthNet.uav[61] utilizationCountManeuversMaintenance 4
scalar OsgEarthNet.uav[61] utilizationCountChargeState 2
scalar OsgEarthNet.uav[61] utilizationCountOverdrawnAfterMission 0
scalar OsgEarthNet.uav[61] utilizationCountIdleState 3
scalar OsgEarthNet.uav[61] utilizationFail 0
scalar OsgEarthNet.uav[61] simulationTime 259200
scalar OsgEarthNet.uav[62] utilizationSecMission 694.00169469977
scalar OsgEarthNet.uav[62] utilizationSecMaintenance 229.48898285212
scalar OsgEarthNet.uav[62] utilizationSecCharge 3360
scalar OsgEarthNet.uav[62] utilizationSecIdle 254916.50832245
scalar OsgEarthNet.uav[62] utilizationEnergyMission 3079.8702545166
scalar OsgEarthNet.uav[62] utilizationEnergyMaintenance 992.83623504639
scalar OsgEarthNet.uav[62] utilizationEnergyCharge 4066.6948242188
scalar OsgEarthNet.uav[62] utilizationEnergyOverdrawMission 0
scalar OsgEarthNet.uav[62] utilizationEnergyOverdrawMaintenance 0
scalar OsgEarthNet.uav[62] utilizationCountMissions 1
scalar OsgEarthNet.uav[62] utilizationCountManeuversMission 13
scalar OsgEarthNet.uav[62] utilizationCountManeuversMaintenance 2
scalar OsgEarthNet.uav[62] utilizationCountChargeState 1
scalar OsgEarthNet.uav[62] utilizationCountOverdrawnAfterMission 0
scalar OsgEarthNet.uav[62] utilizationCountIdleState 2
scalar OsgEarthNet.uav[62] utilizationFail 0
scalar OsgEarthNet.uav[62] simulationTime 259200
scalar OsgEarthNet.uav[63] utilizationSecMission 570.98871244881
scalar OsgEarthNet.uav[63] utilizationSecMaintenance 276.2282017063
scalar OsgEarthNet.uav[63] utilizationSecCharge 3360
scalar OsgEarthNet.uav[63] utilizationSecIdle 254992.78208584
scalar OsgEarthNet.uav[63] utilizationEnergyMission 2739.6420440674
scalar OsgEarthNet.uav[63] utilizationEnergyMaintenance 1337.7468070984
scalar OsgEarthNet.uav[63] utilizationEnergyCharge 4077.3859863281
scalar OsgEarthNet.uav[63] utilizationEnergyOverdrawMission 0
scalar OsgEarthNet.uav[63] utilizationEnergyOverdrawMaintenance 0
scalar OsgEarthNet.uav[63] utilizationCountMissions 1
scalar OsgEarthNet.uav[63] utilizationCountManeuversMission 8
scalar OsgEarthNet.uav[63] utilizationCountManeuversMaintenance 2
scalar OsgEarthNet.uav[63] utilizationCountChargeState 1
scalar OsgEarthNet.uav[63] utilizationCountOverdrawnAfterMission 0
scalar OsgEarthNet.uav[63] utilizationCountIdleState 2
scalar OsgEarthNet.uav[63] utilizationFail 0
scalar OsgEarthNet.uav[63] simulationTime 259200
scalar OsgEarthNet.uav[64] utilizationSecMission 26342.052059895
scalar OsgEarthNet.uav[64] utilizationSecMaintenance 11970.229592646
scalar OsgEarthNet.uav[64] utilizationSecCharge 149084.04916947
scalar OsgEarthNet.uav[64] utilizationSecIdle 71803.668177988
scalar OsgEarthNet.uav[64] utilizationEnergyMission 121250.10377502
scalar OsgEarthNet.uav[64] utilizationEnergyMaintenance 56542.980144501
scalar OsgEarthNet.uav[64] utilizationEnergyCharge 175133.50585938
scalar OsgEarthNet.uav[64] utilizationEnergyOverdrawMission 0
scalar OsgEarthNet.uav[64] utilizationEnergyOverdrawMaintenance 0
scalar OsgEarthNet.uav[64] utilizationCountMissions 49
scalar OsgEarthNet.uav[64] utilizationCountManeuversMission 435
scalar OsgEarthNet.uav[64] utilizationCountManeuversMaintenance 98
scalar OsgEarthNet.uav[64] utilizationCountChargeState 49
scalar OsgEarthNet.uav[64] utilizationCountOverdrawnAfterMission 0
scalar OsgEarthNet.uav[64] utilizationCountIdleState 49
scalar OsgEarthNet.uav[64] utilizationFail 0
scalar OsgEarthNet.uav[64] simulationTime 259200
scalar OsgEarthNet.uav[65] utilizationSecMission 28232.377661885
scalar OsgEarthNet.uav[65] utilizationSecMaintenance 13388.564286453
scalar OsgEarthNet.uav[65] utilizationSecCharge 157782.81521604
scalar OsgEarthNet.uav[65] utilizationSecIdle 59796.241835621
scalar OsgEarthNet.uav[65] utilizationEnergyMission 130704.39115906
[...]
scalar OsgEarthNet.uav[82] utilizationEnergyMission 2947.8021774292
scalar OsgEarthNet.uav[82] utilizationEnergyMaintenance 1001.8301925659
scalar OsgEarthNet.uav[82] utilizationEnergyCharge 3973.0053710938
scalar OsgEarthNet.uav[82] utilizationEnergyOverdrawMission 0
scalar OsgEarthNet.uav[82] utilizationEnergyOverdrawMaintenance 0
scalar OsgEarthNet.uav[82] utilizationCountMissions 1
scalar OsgEarthNet.uav[82] utilizationCountManeuversMission 13
scalar OsgEarthNet.uav[82] utilizationCountManeuversMaintenance 2
scalar OsgEarthNet.uav[82] utilizationCountChargeState 1
scalar OsgEarthNet.uav[82] utilizationCountOverdrawnAfterMission 0
scalar OsgEarthNet.uav[82] utilizationCountIdleState 2
scalar OsgEarthNet.uav[82] utilizationFail 0
scalar OsgEarthNet.uav[82] simulationTime 259200
scalar OsgEarthNet.uav[83] utilizationSecMission 24831.843551549
scalar OsgEarthNet.uav[83] utilizationSecMaintenance 11595.614244979
scalar OsgEarthNet.uav[83] utilizationSecCharge 143256.61257079
scalar OsgEarthNet.uav[83] utilizationSecIdle 79515.92863268
scalar OsgEarthNet.uav[83] utilizationEnergyMission 114818.3197403
scalar OsgEarthNet.uav[83] utilizationEnergyMaintenance 55668.539279938
scalar OsgEarthNet.uav[83] utilizationEnergyCharge 169970.51928711
scalar OsgEarthNet.uav[83] utilizationEnergyOverdrawMission 0
scalar OsgEarthNet.uav[83] utilizationEnergyOverdrawMaintenance 0
scalar OsgEarthNet.uav[83] utilizationCountMissions 46
scalar OsgEarthNet.uav[83] utilizationCountManeuversMission 397
scalar OsgEarthNet.uav[83] utilizationCountManeuversMaintenance 92
scalar OsgEarthNet.uav[83] utilizationCountChargeState 46
scalar OsgEarthNet.uav[83] utilizationCountOverdrawnAfterMission 0
scalar OsgEarthNet.uav[83] utilizationCountIdleState 46
scalar OsgEarthNet.uav[83] utilizationFail 0
scalar OsgEarthNet.uav[83] simulationTime 259200
scalar OsgEarthNet.uav[84] utilizationSecMission 17646.14530893
scalar OsgEarthNet.uav[84] utilizationSecMaintenance 11380.826913177
scalar OsgEarthNet.uav[84] utilizationSecCharge 115000.70308975
scalar OsgEarthNet.uav[84] utilizationSecIdle 115172.32368814
scalar OsgEarthNet.uav[84] utilizationEnergyMission 81081.281455994
scalar OsgEarthNet.uav[84] utilizationEnergyMaintenance 54037.271331787
scalar OsgEarthNet.uav[84] utilizationEnergyCharge 133182.32995605
scalar OsgEarthNet.uav[84] utilizationEnergyOverdrawMission 0
scalar OsgEarthNet.uav[84] utilizationEnergyOverdrawMaintenance 0
scalar OsgEarthNet.uav[84] utilizationCountMissions 39
scalar OsgEarthNet.uav[84] utilizationCountManeuversMission 286
scalar OsgEarthNet.uav[84] utilizationCountManeuversMaintenance 78
scalar OsgEarthNet.uav[84] utilizationCountChargeState 39
scalar OsgEarthNet.uav[84] utilizationCountOverdrawnAfterMission 0
scalar OsgEarthNet.uav[84] utilizationCountIdleState 39
scalar OsgEarthNet.uav[84] utilizationFail 0
scalar OsgEarthNet.uav[84] simulationTime 259200
scalar OsgEarthNet.uav[85] utilizationSecMission 443.5870541303
scalar OsgEarthNet.uav[85] utilizationSecMaintenance 125.81102573108
scalar OsgEarthNet.uav[85] utilizationSecCharge 2580
scalar OsgEarthNet.uav[85] utilizationSecIdle 256050.60092014
scalar OsgEarthNet.uav[85] utilizationEnergyMission 2183.1821746826
scalar OsgEarthNet.uav[85] utilizationEnergyMaintenance 545.97048187256
scalar OsgEarthNet.uav[85] utilizationEnergyCharge 2746.8901367188
scalar OsgEarthNet.uav[85] utilizationEnergyOverdrawMission 0
scalar OsgEarthNet.uav[85] utilizationEnergyOverdrawMaintenance 0
scalar OsgEarthNet.uav[85] utilizationCountMissions 1
scalar OsgEarthNet.uav[85] utilizationCountManeuversMission 7
scalar OsgEarthNet.uav[85] utilizationCountManeuversMaintenance 2
scalar OsgEarthNet.uav[85] utilizationCountChargeState 1
scalar OsgEarthNet.uav[85] utilizationCountOverdrawnAfterMission 0
scalar OsgEarthNet.uav[85] utilizationCountIdleState 2
scalar OsgEarthNet.uav[85] utilizationFail 0
scalar OsgEarthNet.uav[85] simulationTime 259200
scalar OsgEarthNet.uav[86] utilizationSecMission 26264.443136226
scalar OsgEarthNet.uav[86] utilizationSecMaintenance 9287.5043248761
scalar OsgEarthNet.uav[86] utilizationSecCharge 138130
scalar OsgEarthNet.uav[86] utilizationSecIdle 85518.051538898
scalar OsgEarthNet.uav[86] utilizationEnergyMission 120826.20549119
scalar OsgEarthNet.uav[86] utilizationEnergyMaintenance 44142.463935852
scalar OsgEarthNet.uav[86] utilizationEnergyCharge 163241.43457031
scalar OsgEarthNet.uav[86] utilizationEnergyOverdrawMission 0
scalar OsgEarthNet.uav[86] utilizationEnergyOverdrawMaintenance 0
scalar OsgEarthNet.uav[86] utilizationCountMissions 44
scalar OsgEarthNet.uav[86] utilizationCountManeuversMission 424
scalar OsgEarthNet.uav[86] utilizationCountManeuversMaintenance 89
scalar OsgEarthNet.uav[86] utilizationCountChargeState 44
scalar OsgEarthNet.uav[86] utilizationCountOverdrawnAfterMission 0
scalar OsgEarthNet.uav[86] utilizationCountIdleState 45
scalar OsgEarthNet.uav[86] utilizationFail 0
scalar OsgEarthNet.uav[86] simulationTime 259200
scalar OsgEarthNet.uav[87] utilizationSecMission 28545.448504847
scalar OsgEarthNet.uav[87] utilizationSecMaintenance 10507.039827648
scalar OsgEarthNet.uav[87] utilizationSecCharge 145036.45287231
scalar OsgEarthNet.uav[87] utilizationSecIdle 75111.057795193
scalar OsgEarthNet.uav[87] utilizationEnergyMission 131414.2803421
scalar OsgEarthNet.uav[87] utilizationEnergyMaintenance 48298.566989899
scalar OsgEarthNet.uav[87] utilizationEnergyCharge 175370.41674805
scalar OsgEarthNet.uav[87] utilizationEnergyOverdrawMission 0
scalar OsgEarthNet.uav[87] utilizationEnergyOverdrawMaintenance 0
scalar OsgEarthNet.uav[87] utilizationCountMissions 45
scalar OsgEarthNet.uav[87] utilizationCountManeuversMission 465
scalar OsgEarthNet.uav[87] utilizationCountManeuversMaintenance 90
scalar OsgEarthNet.uav[87] utilizationCountChargeState 45
scalar OsgEarthNet.uav[87] utilizationCountOverdrawnAfterMission 0
scalar OsgEarthNet.uav[87] utilizationCountIdleState 45
scalar OsgEarthNet.uav[87] utilizationFail 0
scalar OsgEarthNet.uav[87] simulationTime 259200
scalar OsgEarthNet.uav[88] utilizationSecMission 27451.47245122
scalar OsgEarthNet.uav[88] utilizationSecMaintenance 14209.255941448
scalar OsgEarthNet.uav[88] utilizationSecCharge 163175.17594355
scalar OsgEarthNet.uav[88] utilizationSecIdle 54364.094663781
scalar OsgEarthNet.uav[88] utilizationEnergyMission 128007.72887421
scalar OsgEarthNet.uav[88] utilizationEnergyMaintenance 66563.71540451
scalar OsgEarthNet.uav[88] utilizationEnergyCharge 194711.39892578
scalar OsgEarthNet.uav[88] utilizationEnergyOverdrawMission 0
scalar OsgEarthNet.uav[88] utilizationEnergyOverdrawMaintenance 0
scalar OsgEarthNet.uav[88] utilizationCountMissions 51
scalar OsgEarthNet.uav[88] utilizationCountManeuversMission 443
scalar OsgEarthNet.uav[88] utilizationCountManeuversMaintenance 102
scalar OsgEarthNet.uav[88] utilizationCountChargeState 51
scalar OsgEarthNet.uav[88] utilizationCountOverdrawnAfterMission 0
scalar OsgEarthNet.uav[88] utilizationCountIdleState 51
scalar OsgEarthNet.uav[88] utilizationFail 0
scalar OsgEarthNet.uav[88] simulationTime 259200
scalar OsgEarthNet.uav[89] utilizationSecMission 18783.065514298
scalar OsgEarthNet.uav[89] utilizationSecMaintenance 8535.3807783644
scalar OsgEarthNet.uav[89] utilizationSecCharge 106240
scalar OsgEarthNet.uav[89] utilizationSecIdle 125641.55270734
scalar OsgEarthNet.uav[89] utilizationEnergyMission 86769.197746277
scalar OsgEarthNet.uav[89] utilizationEnergyMaintenance 40819.535114288
scalar OsgEarthNet.uav[89] utilizationEnergyCharge 126908.40600586
scalar OsgEarthNet.uav[89] utilizationEnergyOverdrawMission 0
scalar OsgEarthNet.uav[89] utilizationEnergyOverdrawMaintenance 0
scalar OsgEarthNet.uav[89] utilizationCountMissions 33
scalar OsgEarthNet.uav[89] utilizationCountManeuversMission 306
scalar OsgEarthNet.uav[89] utilizationCountManeuversMaintenance 66
scalar OsgEarthNet.uav[89] utilizationCountChargeState 33
scalar OsgEarthNet.uav[89] utilizationCountOverdrawnAfterMission 0
scalar OsgEarthNet.uav[89] utilizationCountIdleState 34
scalar OsgEarthNet.uav[89] utilizationFail 0
scalar OsgEarthNet.uav[89] simulationTime 259200
scalar OsgEarthNet.uav[90] utilizationSecMission 622.80306915974
scalar OsgEarthNet.uav[90] utilizationSecMaintenance 658.04036316047
scalar OsgEarthNet.uav[90] utilizationSecCharge 5280
scalar OsgEarthNet.uav[90] utilizationSecIdle 252639.15556768
scalar OsgEarthNet.uav[90] utilizationEnergyMission 2726.2034759522
scalar OsgEarthNet.uav[90] utilizationEnergyMaintenance 3036.8508644104
scalar OsgEarthNet.uav[90] utilizationEnergyCharge 5703.4714355469
scalar OsgEarthNet.uav[90] utilizationEnergyOverdrawMission 0
scalar OsgEarthNet.uav[90] utilizationEnergyOverdrawMaintenance 0
scalar OsgEarthNet.uav[90] utilizationCountMissions 2
scalar OsgEarthNet.uav[90] utilizationCountManeuversMission 10
scalar OsgEarthNet.uav[90] utilizationCountManeuversMaintenance 4
scalar OsgEarthNet.uav[90] utilizationCountChargeState 2
scalar OsgEarthNet.uav[90] utilizationCountOverdrawnAfterMission 0
scalar OsgEarthNet.uav[90] utilizationCountIdleState 3
scalar OsgEarthNet.uav[90] utilizationFail 0
scalar OsgEarthNet.uav[90] simulationTime 259200
scalar OsgEarthNet.uav[91] utilizationSecMission 27536.989564654
scalar OsgEarthNet.uav[91] utilizationSecMaintenance 10582.942500019
scalar OsgEarthNet.uav[91] utilizationSecCharge 146090.04666118
scalar OsgEarthNet.uav[91] utilizationSecIdle 74990.020274145
scalar OsgEarthNet.uav[91] utilizationEnergyMission 127657.09066772
scalar OsgEarthNet.uav[91] utilizationEnergyMaintenance 48474.783210754
scalar OsgEarthNet.uav[91] utilizationEnergyCharge 174862.18847656
scalar OsgEarthNet.uav[91] utilizationEnergyOverdrawMission 0
scalar OsgEarthNet.uav[91] utilizationEnergyOverdrawMaintenance 0
scalar OsgEarthNet.uav[91] utilizationCountMissions 46
scalar OsgEarthNet.uav[91] utilizationCountManeuversMission 456
scalar OsgEarthNet.uav[91] utilizationCountManeuversMaintenance 92
scalar OsgEarthNet.uav[91] utilizationCountChargeState 46
scalar OsgEarthNet.uav[91] utilizationCountOverdrawnAfterMission 0
scalar OsgEarthNet.uav[91] utilizationCountIdleState 46
scalar OsgEarthNet.uav[91] utilizationFail 0
scalar OsgEarthNet.uav[91] simulationTime 259200
scalar OsgEarthNet.uav[92] utilizationSecMission 4255.0277724543
scalar OsgEarthNet.uav[92] utilizationSecMaintenance 3428.4100723238
scalar OsgEarthNet.uav[92] utilizationSecCharge 31230
scalar OsgEarthNet.uav[92] utilizationSecIdle 220286.56115522
scalar OsgEarthNet.uav[92] utilizationEnergyMission 19639.374458313
scalar OsgEarthNet.uav[92] utilizationEnergyMaintenance 15611.579998016
scalar OsgEarthNet.uav[92] utilizationEnergyCharge 35111.399902344
scalar OsgEarthNet.uav[92] utilizationEnergyOverdrawMission 0
scalar OsgEarthNet.uav[92] utilizationEnergyOverdrawMaintenance 0
scalar OsgEarthNet.uav[92] utilizationCountMissions 11
scalar OsgEarthNet.uav[92] utilizationCountManeuversMission 65
scalar OsgEarthNet.uav[92] utilizationCountManeuversMaintenance 22
scalar OsgEarthNet.uav[92] utilizationCountChargeState 11
scalar OsgEarthNet.uav[92] utilizationCountOverdrawnAfterMission 0
scalar OsgEarthNet.uav[92] utilizationCountIdleState 12
scalar OsgEarthNet.uav[92] utilizationFail 0
scalar OsgEarthNet.uav[92] simulationTime 259200
scalar OsgEarthNet.uav[93] utilizationSecMission 1656.9752507048
scalar OsgEarthNet.uav[93] utilizationSecMaintenance 793.59159446347
scalar OsgEarthNet.uav[93] utilizationSecCharge 9640
scalar OsgEarthNet.uav[93] utilizationSecIdle 247109.43215483
scalar OsgEarthNet.uav[93] utilizationEnergyMission 7775.3743286133
scalar OsgEarthNet.uav[93] utilizationEnergyMaintenance 3763.0625953674
scalar OsgEarthNet.uav[93] utilizationEnergyCharge 11538.429443359
scalar OsgEarthNet.uav[93] utilizationEnergyOverdrawMission 0
scalar OsgEarthNet.uav[93] utilizationEnergyOverdrawMaintenance 0
scalar OsgEarthNet.uav[93] utilizationCountMissions 3
scalar OsgEarthNet.uav[93] utilizationCountManeuversMission 27
scalar OsgEarthNet.uav[93] utilizationCountManeuversMaintenance 6
scalar OsgEarthNet.uav[93] utilizationCountChargeState 3
scalar OsgEarthNet.uav[93] utilizationCountOverdrawnAfterMission 0
scalar OsgEarthNet.uav[93] utilizationCountIdleState 4
scalar OsgEarthNet.uav[93] utilizationFail 0
scalar OsgEarthNet.uav[93] simulationTime 259200
scalar OsgEarthNet.uav[94] utilizationSecMission 26462.518453102
scalar OsgEarthNet.uav[94] utilizationSecMaintenance 14830.059757387
scalar OsgEarthNet.uav[94] utilizationSecCharge 164425.41928279
scalar OsgEarthNet.uav[94] utilizationSecIdle 53482.001506722
scalar OsgEarthNet.uav[94] utilizationEnergyMission 123637.70765305
scalar OsgEarthNet.uav[94] utilizationEnergyMaintenance 69610.928569794
scalar OsgEarthNet.uav[94] utilizationEnergyCharge 191157.46484375
scalar OsgEarthNet.uav[94] utilizationEnergyOverdrawMission 0
scalar OsgEarthNet.uav[94] utilizationEnergyOverdrawMaintenance 0
scalar OsgEarthNet.uav[94] utilizationCountMissions 55
scalar OsgEarthNet.uav[94] utilizationCountManeuversMission 447
scalar OsgEarthNet.uav[94] utilizationCountManeuversMaintenance 110
scalar OsgEarthNet.uav[94] utilizationCountChargeState 55
scalar OsgEarthNet.uav[94] utilizationCountOverdrawnAfterMission 0
scalar OsgEarthNet.uav[94] utilizationCountIdleState 55
scalar OsgEarthNet.uav[94] utilizationFail 0
scalar OsgEarthNet.uav[94] simulationTime 259200
scalar OsgEarthNet.uav[95] utilizationSecMission 24345.095034148
scalar OsgEarthNet.uav[95] utilizationSecMaintenance 16429.363974112
scalar OsgEarthNet.uav[95] utilizationSecCharge 166510
scalar OsgEarthNet.uav[95] utilizationSecIdle 51915.539991741
scalar OsgEarthNet.uav[95] utilizationEnergyMission 112673.00640033
scalar OsgEarthNet.uav[95] utilizationEnergyMaintenance 78197.375072479
scalar OsgEarthNet.uav[95] utilizationEnergyCharge 191009.70922852
scalar OsgEarthNet.uav[95] utilizationEnergyOverdrawMission 0
scalar OsgEarthNet.uav[95] utilizationEnergyOverdrawMaintenance 0
scalar OsgEarthNet.uav[95] utilizationCountMissions 56
scalar OsgEarthNet.uav[95] utilizationCountManeuversMission 398
scalar OsgEarthNet.uav[95] utilizationCountManeuversMaintenance 111
scalar OsgEarthNet.uav[95] utilizationCountChargeState 56
scalar OsgEarthNet.uav[95] utilizationCountOverdrawnAfterMission 0
scalar OsgEarthNet.uav[95] utilizationCountIdleState 57
scalar OsgEarthNet.uav[95] utilizationFail 0
scalar OsgEarthNet.uav[95] simulationTime 259200
scalar OsgEarthNet.uav[96] utilizationSecMission 19844.995923813
scalar OsgEarthNet.uav[96] utilizationSecMaintenance 10000.357623358
scalar OsgEarthNet.uav[96] utilizationSecCharge 119370
scalar OsgEarthNet.uav[96] utilizationSecIdle 109984.64545283
scalar OsgEarthNet.uav[96] utilizationEnergyMission 91879.513969421
scalar OsgEarthNet.uav[96] utilizationEnergyMaintenance 46292.564513839
scalar OsgEarthNet.uav[96] utilizationEnergyCharge 137556.32788086
scalar OsgEarthNet.uav[96] utilizationEnergyOverdrawMission 0
scalar OsgEarthNet.uav[96] utilizationEnergyOverdrawMaintenance 0
scalar OsgEarthNet.uav[96] utilizationCountMissions 40
scalar OsgEarthNet.uav[96] utilizationCountManeuversMission 330
scalar OsgEarthNet.uav[96] utilizationCountManeuversMaintenance 81
scalar OsgEarthNet.uav[96] utilizationCountChargeState 40
scalar OsgEarthNet.uav[96] utilizationCountOverdrawnAfterMission 0
scalar OsgEarthNet.uav[96] utilizationCountIdleState 41
scalar OsgEarthNet.uav[96] utilizationFail 0
scalar OsgEarthNet.uav[96] simulationTime 259200
scalar OsgEarthNet.uav[97] utilizationSecMission 26578.697594602
scalar OsgEarthNet.uav[97] utilizationSecMaintenance 13144.713876063
scalar OsgEarthNet.uav[97] utilizationSecCharge 158840
scalar OsgEarthNet.uav[97] utilizationSecIdle 60636.587529335
scalar OsgEarthNet.uav[97] utilizationEnergyMission 121767.3139267
scalar OsgEarthNet.uav[97] utilizationEnergyMaintenance 61931.322525024
scalar OsgEarthNet.uav[97] utilizationEnergyCharge 184971.38818359
scalar OsgEarthNet.uav[97] utilizationEnergyOverdrawMission 0
scalar OsgEarthNet.uav[97] utilizationEnergyOverdrawMaintenance 0
scalar OsgEarthNet.uav[97] utilizationCountMissions 52
scalar OsgEarthNet.uav[97] utilizationCountManeuversMission 437
scalar OsgEarthNet.uav[97] utilizationCountManeuversMaintenance 104
scalar OsgEarthNet.uav[97] utilizationCountChargeState 52
scalar OsgEarthNet.uav[97] utilizationCountOverdrawnAfterMission 0
scalar OsgEarthNet.uav[97] utilizationCountIdleState 53
scalar OsgEarthNet.uav[97] utilizationFail 0
scalar OsgEarthNet.uav[97] simulationTime 259200
scalar OsgEarthNet.uav[98] utilizationSecMission 24459.028376471
scalar OsgEarthNet.uav[98] utilizationSecMaintenance 9133.9048478308
scalar OsgEarthNet.uav[98] utilizationSecCharge 126240
scalar OsgEarthNet.uav[98] utilizationSecIdle 99367.065775698
scalar OsgEarthNet.uav[98] utilizationEnergyMission 110968.48788071
scalar OsgEarthNet.uav[98] utilizationEnergyMaintenance 42722.830910411
scalar OsgEarthNet.uav[98] utilizationEnergyCharge 151442.85058594
scalar OsgEarthNet.uav[98] utilizationEnergyOverdrawMission 0
scalar OsgEarthNet.uav[98] utilizationEnergyOverdrawMaintenance 0
scalar OsgEarthNet.uav[98] utilizationCountMissions 40
scalar OsgEarthNet.uav[98] utilizationCountManeuversMission 388
scalar OsgEarthNet.uav[98] utilizationCountManeuversMaintenance 80
scalar OsgEarthNet.uav[98] utilizationCountChargeState 39
scalar OsgEarthNet.uav[98] utilizationCountOverdrawnAfterMission 0
scalar OsgEarthNet.uav[98] utilizationCountIdleState 40
scalar OsgEarthNet.uav[98] utilizationFail 0
scalar OsgEarthNet.uav[98] simulationTime 259200
scalar OsgEarthNet.uav[99] utilizationSecMission 4624.3869307788
scalar OsgEarthNet.uav[99] utilizationSecMaintenance 5364.4471782295
scalar OsgEarthNet.uav[99] utilizationSecCharge 38343.269787079
scalar OsgEarthNet.uav[99] utilizationSecIdle 210867.89510391
scalar OsgEarthNet.uav[99] utilizationEnergyMission 21531.808425903
scalar OsgEarthNet.uav[99] utilizationEnergyMaintenance 24627.314189911
scalar OsgEarthNet.uav[99] utilizationEnergyCharge 45550.317626953
scalar OsgEarthNet.uav[99] utilizationEnergyOverdrawMission 0
scalar OsgEarthNet.uav[99] utilizationEnergyOverdrawMaintenance 0
scalar OsgEarthNet.uav[99] utilizationCountMissions 13
scalar OsgEarthNet.uav[99] utilizationCountManeuversMission 76
scalar OsgEarthNet.uav[99] utilizationCountManeuversMaintenance 26
scalar OsgEarthNet.uav[99] utilizationCountChargeState 13
scalar OsgEarthNet.uav[99] utilizationCountOverdrawnAfterMission 0
scalar OsgEarthNet.uav[99] utilizationCountIdleState 13
scalar OsgEarthNet.uav[99] utilizationFail 0
scalar OsgEarthNet.uav[99] simulationTime 259200
scalar OsgEarthNet.cs[0] usedPower 310903.61396091
scalar OsgEarthNet.cs[0] chargedPower 310903.61396091
scalar OsgEarthNet.cs[0] chargedMobileNodes 123
scalar OsgEarthNet.cs[0] reservations 125
scalar OsgEarthNet.cs[1] usedPower 849168.31431119
scalar OsgEarthNet.cs[1] chargedPower 849168.31431119
scalar OsgEarthNet.cs[1] chargedMobileNodes 317
scalar OsgEarthNet.cs[1] reservations 320
scalar OsgEarthNet.cs[2] usedPower 3558083.2469135
scalar OsgEarthNet.cs[2] chargedPower 3558083.2469135
scalar OsgEarthNet.cs[2] chargedMobileNodes 927
scalar OsgEarthNet.cs[2] reservations 940
scalar OsgEarthNet.cs[3] usedPower 0
scalar OsgEarthNet.cs[3] chargedPower 0
scalar OsgEarthNet.cs[3] chargedMobileNodes 0
scalar OsgEarthNet.cs[3] reservations 0
scalar OsgEarthNet.cs[4] usedPower 988585.33398814
scalar OsgEarthNet.cs[4] chargedPower 988585.33398814
scalar OsgEarthNet.cs[4] chargedMobileNodes 227
scalar OsgEarthNet.cs[4] reservations 231
scalar OsgEarthNet.cs[5] usedPower 1572882.001265
scalar OsgEarthNet.cs[5] chargedPower 1572882.001265
scalar OsgEarthNet.cs[5] chargedMobileNodes 367
scalar OsgEarthNet.cs[5] reservations 372
scalar OsgEarthNet.cs[6] usedPower 1351483.3819782
scalar OsgEarthNet.cs[6] chargedPower 1351483.3819782
scalar OsgEarthNet.cs[6] chargedMobileNodes 354
scalar OsgEarthNet.cs[6] reservations 358

