version 2
run Szenario_Hotel_Gabelbach-40-20180709-01:05:22-55056
attr configname Szenario_Hotel_Gabelbach
attr datetime 20180709-01:05:22
attr experiment Szenario_Hotel_Gabelbach
attr inifile omnetpp.ini
attr iterationvars $replM=1
attr iterationvarsf replM=1-
attr measurement $replM=1
attr network OsgEarthNet
attr processid 55056
attr repetition 16
attr replication #16
attr resultdir results
attr runnumber 40
attr seedset 40
itervar replM 1
param *.osgEarthScene.scene "\"Szenario_Hotel_Gabelbach.earth\""
param *.playgroundLatitude 50.6830269
param *.playgroundLongitude 10.8538055
param *.playgroundWidth 3500m
param *.playgroundHeight 3500m
param *.numUAVs 100
param *.cs[0].posX 3537m
param *.cs[0].posY 965m
param *.cs[0].posZ 538m
param *.cs[1].posX 312m
param *.cs[1].posY 1262m
param *.cs[1].posZ 539m
param *.cs[2].posX 2185m
param *.cs[2].posY 3026m
param *.cs[2].posZ 777m
param *.cs[3].posX 10m
param *.cs[3].posY 2200m
param *.cs[3].posZ 560m
param *.cs[4].posX 750m
param *.cs[4].posY 200m
param *.cs[4].posZ 540m
param *.cs[5].posX 2450m
param *.cs[5].posY 180m
param *.cs[5].posZ 524m
param *.cs[6].posX 3140m
param *.cs[6].posY 1790m
param *.cs[6].posZ 606m
param *.numCSs 7
param *.uav[*].replacementMethod 1
param *.*.timeStep 10s
param *.uav[*].commandPreviewCommandCount 20
param *.missionControl.missionFiles "\"missions\\\\Szenario_WB_Hotel_Gabelbach_Mission_Hotel.waypoints,missions\\\\Szenario_WB_Hotel_Gabelbach_Mission_Kickelhahn.waypoints,missions\\\\Szenario_WB_Hotel_Gabelbach_Mission_Ilmenau_Sportplatz.waypoints,missions\\\\Szenario_WB_Hotel_Gabelbach_Mission_Manebach_Mitte.waypoints,missions\\\\Szenario_WB_Hotel_Gabelbach_Mission_Manebach_Sued.waypoints\""
param *.missionControl.missionFiles "\"missions\\\\Szenario_WB_Hotel_Gabelbach_Mission_Hotel.waypoints,missions\\\\Szenario_WB_Hotel_Gabelbach_Mission_Kickelhahn.waypoints,missions\\\\Szenario_WB_Hotel_Gabelbach_Mission_Ilmenau_Sportplatz.waypoints,missions\\\\Szenario_WB_Hotel_Gabelbach_Mission_Manebach_Mitte.waypoints,missions\\\\Szenario_WB_Hotel_Gabelbach_Mission_Manebach_Sued.waypoints,missions\\\\Szenario_WB_Hotel_Gabelbach_Hover_HoheSchlaufe.waypoints,missions\\\\Szenario_WB_Hotel_Gabelbach_Hover_Kickelhahn.waypoints,missions\\\\Szenario_WB_Hotel_Gabelbach_Hover_Gabelbachskopf.waypoints,missions\\\\Szenario_WB_Hotel_Gabelbach_Hover_Dachskopf.waypoints\""
param *.uav[0].startX 3537m
param *.uav[0].startY 965m
param *.uav[0].startZ 539m
param *.uav[1].startX 312m
param *.uav[1].startY 1262m
param *.uav[1].startZ 540m
param *.uav[2].startX 2185m
param *.uav[2].startY 3026m
param *.uav[2].startZ 778m
param *.uav[3].startX 3537m
param *.uav[3].startY 965m
param *.uav[3].startZ 539m
param *.uav[4].startX 312m
param *.uav[4].startY 1262m
param *.uav[4].startZ 540m
param *.uav[5].startX 2185m
param *.uav[5].startY 3026m
param *.uav[5].startZ 778m
param *.uav[6].startX 3537m
param *.uav[6].startY 965m
param *.uav[6].startZ 539m
param *.uav[7].startX 312m
param *.uav[7].startY 1262m
param *.uav[7].startZ 540m
param *.uav[8].startX 2185m
param *.uav[8].startY 3026m
param *.uav[8].startZ 778m
param *.uav[9].startX 3537m
param *.uav[9].startY 965m
param *.uav[9].startZ 539m
param *.uav[10].startX 3537m
param *.uav[10].startY 965m
param *.uav[10].startZ 539m
param *.uav[11].startX 312m
param *.uav[11].startY 1262m
param *.uav[11].startZ 540m
param *.uav[12].startX 2185m
param *.uav[12].startY 3026m
param *.uav[12].startZ 778m
param *.uav[13].startX 3537m
param *.uav[13].startY 965m
param *.uav[13].startZ 539m
param *.uav[14].startX 312m
param *.uav[14].startY 1262m
param *.uav[14].startZ 540m
param *.uav[15].startX 2185m
param *.uav[15].startY 3026m
param *.uav[15].startZ 778m
param *.uav[16].startX 3537m
param *.uav[16].startY 965m
param *.uav[16].startZ 539m
param *.uav[17].startX 312m
param *.uav[17].startY 1262m
param *.uav[17].startZ 540m
param *.uav[18].startX 2185m
param *.uav[18].startY 3026m
param *.uav[18].startZ 778m
param *.uav[19].startX 3537m
param *.uav[19].startY 965m
param *.uav[19].startZ 539m
param *.uav[20].startX 3537m
param *.uav[20].startY 965m
param *.uav[20].startZ 539m
param *.uav[21].startX 312m
param *.uav[21].startY 1262m
param *.uav[21].startZ 540m
param *.uav[22].startX 2185m
param *.uav[22].startY 3026m
param *.uav[22].startZ 778m
param *.uav[23].startX 3537m
param *.uav[23].startY 965m
param *.uav[23].startZ 539m
param *.uav[24].startX 312m
param *.uav[24].startY 1262m
param *.uav[24].startZ 540m
param *.uav[25].startX 2185m
param *.uav[25].startY 3026m
param *.uav[25].startZ 778m
param *.uav[26].startX 3537m
param *.uav[26].startY 965m
param *.uav[26].startZ 539m
param *.uav[27].startX 312m
param *.uav[27].startY 1262m
param *.uav[27].startZ 540m
param *.uav[28].startX 2185m
param *.uav[28].startY 3026m
param *.uav[28].startZ 778m
param *.uav[29].startX 3537m
param *.uav[29].startY 965m
param *.uav[29].startZ 539m
param *.uav[30].startX 3537m
param *.uav[30].startY 965m
param *.uav[30].startZ 539m
param *.uav[31].startX 312m
param *.uav[31].startY 1262m
param *.uav[31].startZ 540m
param *.uav[32].startX 2185m
param *.uav[32].startY 3026m
param *.uav[32].startZ 778m
param *.uav[33].startX 3537m
param *.uav[33].startY 965m
param *.uav[33].startZ 539m
param *.uav[34].startX 312m
param *.uav[34].startY 1262m
param *.uav[34].startZ 540m
param *.uav[35].startX 2185m
param *.uav[35].startY 3026m
param *.uav[35].startZ 778m
param *.uav[36].startX 3537m
param *.uav[36].startY 965m
param *.uav[36].startZ 539m
param *.uav[37].startX 312m
param *.uav[37].startY 1262m
param *.uav[37].startZ 540m
param *.uav[38].startX 2185m
param *.uav[38].startY 3026m
param *.uav[38].startZ 778m
param *.uav[39].startX 3537m
param *.uav[39].startY 965m
param *.uav[39].startZ 539m
param *.uav[40].startX 3537m
param *.uav[40].startY 965m
param *.uav[40].startZ 539m
param *.uav[41].startX 312m
param *.uav[41].startY 1262m
param *.uav[41].startZ 540m
param *.uav[42].startX 2185m
param *.uav[42].startY 3026m
param *.uav[42].startZ 778m
param *.uav[43].startX 3537m
param *.uav[43].startY 965m
param *.uav[43].startZ 539m
param *.uav[44].startX 312m
param *.uav[44].startY 1262m
param *.uav[44].startZ 540m
param *.uav[45].startX 2185m
param *.uav[45].startY 3026m
param *.uav[45].startZ 778m
param *.uav[46].startX 3537m
param *.uav[46].startY 965m
param *.uav[46].startZ 539m
param *.uav[47].startX 312m
param *.uav[47].startY 1262m
param *.uav[47].startZ 540m
param *.uav[48].startX 2185m
param *.uav[48].startY 3026m
param *.uav[48].startZ 778m
param *.uav[49].startX 3537m
param *.uav[49].startY 965m
param *.uav[49].startZ 539m
param *.uav[50].startX 3537m
param *.uav[50].startY 965m
param *.uav[50].startZ 539m
param *.uav[51].startX 312m
param *.uav[51].startY 1262m
param *.uav[51].startZ 540m
param *.uav[52].startX 2185m
param *.uav[52].startY 3026m
param *.uav[52].startZ 778m
param *.uav[53].startX 3537m
param *.uav[53].startY 965m
param *.uav[53].startZ 539m
param *.uav[54].startX 312m
param *.uav[54].startY 1262m
param *.uav[54].startZ 540m
param *.uav[55].startX 2185m
param *.uav[55].startY 3026m
param *.uav[55].startZ 778m
param *.uav[56].startX 3537m
param *.uav[56].startY 965m
param *.uav[56].startZ 539m
param *.uav[57].startX 312m
param *.uav[57].startY 1262m
param *.uav[57].startZ 540m
param *.uav[58].startX 2185m
param *.uav[58].startY 3026m
param *.uav[58].startZ 778m
param *.uav[59].startX 3537m
param *.uav[59].startY 965m
param *.uav[59].startZ 539m
param *.uav[60].startX 3537m
param *.uav[60].startY 965m
param *.uav[60].startZ 539m
param *.uav[61].startX 312m
param *.uav[61].startY 1262m
param *.uav[61].startZ 540m
param *.uav[62].startX 2185m
param *.uav[62].startY 3026m
param *.uav[62].startZ 778m
param *.uav[63].startX 3537m
param *.uav[63].startY 965m
param *.uav[63].startZ 539m
param *.uav[64].startX 312m
param *.uav[64].startY 1262m
param *.uav[64].startZ 540m
param *.uav[65].startX 2185m
param *.uav[65].startY 3026m
param *.uav[65].startZ 778m
param *.uav[66].startX 3537m
param *.uav[66].startY 965m
param *.uav[66].startZ 539m
param *.uav[67].startX 312m
param *.uav[67].startY 1262m
param *.uav[67].startZ 540m
param *.uav[68].startX 2185m
param *.uav[68].startY 3026m
param *.uav[68].startZ 778m
param *.uav[69].startX 3537m
param *.uav[69].startY 965m
param *.uav[69].startZ 539m
param *.uav[70].startX 3537m
param *.uav[70].startY 965m
param *.uav[70].startZ 539m
param *.uav[71].startX 312m
param *.uav[71].startY 1262m
param *.uav[71].startZ 540m
param *.uav[72].startX 2185m
param *.uav[72].startY 3026m
param *.uav[72].startZ 778m
param *.uav[73].startX 3537m
param *.uav[73].startY 965m
param *.uav[73].startZ 539m
param *.uav[74].startX 312m
param *.uav[74].startY 1262m
param *.uav[74].startZ 540m
param *.uav[75].startX 2185m
param *.uav[75].startY 3026m
param *.uav[75].startZ 778m
param *.uav[76].startX 3537m
param *.uav[76].startY 965m
param *.uav[76].startZ 539m
param *.uav[77].startX 312m
param *.uav[77].startY 1262m
param *.uav[77].startZ 540m
param *.uav[78].startX 2185m
param *.uav[78].startY 3026m
param *.uav[78].startZ 778m
param *.uav[79].startX 3537m
param *.uav[79].startY 965m
param *.uav[79].startZ 539m
param *.uav[80].startX 3537m
param *.uav[80].startY 965m
param *.uav[80].startZ 539m
param *.uav[81].startX 312m
param *.uav[81].startY 1262m
param *.uav[81].startZ 540m
param *.uav[82].startX 2185m
param *.uav[82].startY 3026m
param *.uav[82].startZ 778m
param *.uav[83].startX 3537m
param *.uav[83].startY 965m
param *.uav[83].startZ 539m
param *.uav[84].startX 312m
param *.uav[84].startY 1262m
param *.uav[84].startZ 540m
param *.uav[85].startX 2185m
param *.uav[85].startY 3026m
param *.uav[85].startZ 778m
param *.uav[86].startX 3537m
param *.uav[86].startY 965m
param *.uav[86].startZ 539m
param *.uav[87].startX 312m
param *.uav[87].startY 1262m
param *.uav[87].startZ 540m
param *.uav[88].startX 2185m
param *.uav[88].startY 3026m
param *.uav[88].startZ 778m
param *.uav[89].startX 3537m
param *.uav[89].startY 965m
param *.uav[89].startZ 539m
param *.uav[90].startX 3537m
param *.uav[90].startY 965m
param *.uav[90].startZ 539m
param *.uav[91].startX 312m
param *.uav[91].startY 1262m
param *.uav[91].startZ 540m
param *.uav[92].startX 2185m
param *.uav[92].startY 3026m
param *.uav[92].startZ 778m
param *.uav[93].startX 3537m
param *.uav[93].startY 965m
param *.uav[93].startZ 539m
param *.uav[94].startX 312m
param *.uav[94].startY 1262m
param *.uav[94].startZ 540m
param *.uav[95].startX 2185m
param *.uav[95].startY 3026m
param *.uav[95].startZ 778m
param *.uav[96].startX 3537m
param *.uav[96].startY 965m
param *.uav[96].startZ 539m
param *.uav[97].startX 312m
param *.uav[97].startY 1262m
param *.uav[97].startZ 540m
param *.uav[98].startX 2185m
param *.uav[98].startY 3026m
param *.uav[98].startZ 778m
param *.uav[99].startX 3537m
param *.uav[99].startY 965m
param *.uav[99].startZ 539m
param *.osgEarthScene.scene "\"boston.earth\""
param *.playgroundLatitude 42.3558
param *.playgroundLongitude -71.0677
param *.playgroundWidth 400m
param *.playgroundHeight 200m
param *.channelController.connectionColor "\"#0000FF40\""
param *.channelController.showConnections false
param *.uav[*].modelURL "\"quadrocopter.small.obj.15.scale.0,0,90.rot\""
param *.uav[*].labelColor "\"#FF7C00CC\""
param *.uav[*].label2Color "\"#FF7C00EE\""
param *.uav[*].batteryCapacity 5200mAh
param *.uav[*].batteryRemaining uav[index].batteryCapacity
param *.uav[*].predictionQuantile 0.95
param *.uav[*].replacementMethod 2
param *.uav[*].weightedSumWeight 0.5
param *.cs[*].modelURL "\"chargingstation_v1.osgt.2.scale.0,0,0.rot.0,0,-15e-1.trans\""
param *.cs[*].spotsWaiting 999
param *.cs[*].spotsCharging 999
param *.cs[*].chargeEffectivenessPercentage 100
param *.cs[*].nonLinearPhaseStartPercentage 85
param *.cs[*].chargeCurrent 6.0A
param *.cs[*].prioritizeFastCharge true
param *.missionControl.replacementSearchMethod 0
param *.*.timeStep 9s

scalar OsgEarthNet.uav[0] utilizationSecMission 760.62515258028
scalar OsgEarthNet.uav[0] utilizationSecMaintenance 245.74410321072
scalar OsgEarthNet.uav[0] utilizationSecCharge 3670
scalar OsgEarthNet.uav[0] utilizationSecIdle 254523.62974421
scalar OsgEarthNet.uav[0] utilizationEnergyMission 3504.3744354248
scalar OsgEarthNet.uav[0] utilizationEnergyMaintenance 1122.5565299988
scalar OsgEarthNet.uav[0] utilizationEnergyCharge 4626.9301757812
scalar OsgEarthNet.uav[0] utilizationEnergyOverdrawMission 0
scalar OsgEarthNet.uav[0] utilizationEnergyOverdrawMaintenance 0
scalar OsgEarthNet.uav[0] utilizationCountMissions 1
scalar OsgEarthNet.uav[0] utilizationCountManeuversMission 12
scalar OsgEarthNet.uav[0] utilizationCountManeuversMaintenance 2
scalar OsgEarthNet.uav[0] utilizationCountChargeState 1
scalar OsgEarthNet.uav[0] utilizationCountOverdrawnAfterMission 0
scalar OsgEarthNet.uav[0] utilizationCountIdleState 2
scalar OsgEarthNet.uav[0] utilizationFail 0
scalar OsgEarthNet.uav[0] simulationTime 259200
scalar OsgEarthNet.uav[1] utilizationSecMission 25744.973276534
scalar OsgEarthNet.uav[1] utilizationSecMaintenance 17285.047585511
scalar OsgEarthNet.uav[1] utilizationSecCharge 169781.62453508
scalar OsgEarthNet.uav[1] utilizationSecIdle 46388.353602879
scalar OsgEarthNet.uav[1] utilizationEnergyMission 119582.70357513
scalar OsgEarthNet.uav[1] utilizationEnergyMaintenance 80734.06962204
scalar OsgEarthNet.uav[1] utilizationEnergyCharge 198847.9831543
scalar OsgEarthNet.uav[1] utilizationEnergyOverdrawMission 0
scalar OsgEarthNet.uav[1] utilizationEnergyOverdrawMaintenance 0
scalar OsgEarthNet.uav[1] utilizationCountMissions 56
scalar OsgEarthNet.uav[1] utilizationCountManeuversMission 443
scalar OsgEarthNet.uav[1] utilizationCountManeuversMaintenance 112
scalar OsgEarthNet.uav[1] utilizationCountChargeState 56
scalar OsgEarthNet.uav[1] utilizationCountOverdrawnAfterMission 0
scalar OsgEarthNet.uav[1] utilizationCountIdleState 56
scalar OsgEarthNet.uav[1] utilizationFail 0
scalar OsgEarthNet.uav[1] simulationTime 259200
scalar OsgEarthNet.uav[2] utilizationSecMission 694.00169469977
scalar OsgEarthNet.uav[2] utilizationSecMaintenance 229.48898285212
scalar OsgEarthNet.uav[2] utilizationSecCharge 3580
scalar OsgEarthNet.uav[2] utilizationSecIdle 254696.50832245
scalar OsgEarthNet.uav[2] utilizationEnergyMission 3227.5293159485
scalar OsgEarthNet.uav[2] utilizationEnergyMaintenance 1070.3380661011
scalar OsgEarthNet.uav[2] utilizationEnergyCharge 4401.748046875
scalar OsgEarthNet.uav[2] utilizationEnergyOverdrawMission 0
scalar OsgEarthNet.uav[2] utilizationEnergyOverdrawMaintenance 0
scalar OsgEarthNet.uav[2] utilizationCountMissions 1
scalar OsgEarthNet.uav[2] utilizationCountManeuversMission 13
scalar OsgEarthNet.uav[2] utilizationCountManeuversMaintenance 2
scalar OsgEarthNet.uav[2] utilizationCountChargeState 1
scalar OsgEarthNet.uav[2] utilizationCountOverdrawnAfterMission 0
scalar OsgEarthNet.uav[2] utilizationCountIdleState 2
scalar OsgEarthNet.uav[2] utilizationFail 0
scalar OsgEarthNet.uav[2] simulationTime 259200
scalar OsgEarthNet.uav[3] utilizationSecMission 702.33488532666
scalar OsgEarthNet.uav[3] utilizationSecMaintenance 256.18820590911
scalar OsgEarthNet.uav[3] utilizationSecCharge 3810
scalar OsgEarthNet.uav[3] utilizationSecIdle 254431.47590876
scalar OsgEarthNet.uav[3] utilizationEnergyMission 3667.4962768555
scalar OsgEarthNet.uav[3] utilizationEnergyMaintenance 1203.4853019714
scalar OsgEarthNet.uav[3] utilizationEnergyCharge 4870.9838867188
scalar OsgEarthNet.uav[3] utilizationEnergyOverdrawMission 0
scalar OsgEarthNet.uav[3] utilizationEnergyOverdrawMaintenance 0
scalar OsgEarthNet.uav[3] utilizationCountMissions 1
scalar OsgEarthNet.uav[3] utilizationCountManeuversMission 11
scalar OsgEarthNet.uav[3] utilizationCountManeuversMaintenance 2
scalar OsgEarthNet.uav[3] utilizationCountChargeState 1
scalar OsgEarthNet.uav[3] utilizationCountOverdrawnAfterMission 0
scalar OsgEarthNet.uav[3] utilizationCountIdleState 2
scalar OsgEarthNet.uav[3] utilizationFail 0
scalar OsgEarthNet.uav[3] simulationTime 259200
scalar OsgEarthNet.uav[4] utilizationSecMission 26037.328076197
scalar OsgEarthNet.uav[4] utilizationSecMaintenance 14439.000325071
scalar OsgEarthNet.uav[4] utilizationSecCharge 159902.70661306
scalar OsgEarthNet.uav[4] utilizationSecIdle 58820.963985674
scalar OsgEarthNet.uav[4] utilizationEnergyMission 121180.38511658
scalar OsgEarthNet.uav[4] utilizationEnergyMaintenance 69680.393550873
scalar OsgEarthNet.uav[4] utilizationEnergyCharge 189265.25952148
scalar OsgEarthNet.uav[4] utilizationEnergyOverdrawMission 0
scalar OsgEarthNet.uav[4] utilizationEnergyOverdrawMaintenance 0
scalar OsgEarthNet.uav[4] utilizationCountMissions 52
scalar OsgEarthNet.uav[4] utilizationCountManeuversMission 430
scalar OsgEarthNet.uav[4] utilizationCountManeuversMaintenance 104
scalar OsgEarthNet.uav[4] utilizationCountChargeState 52
scalar OsgEarthNet.uav[4] utilizationCountOverdrawnAfterMission 0
scalar OsgEarthNet.uav[4] utilizationCountIdleState 52
scalar OsgEarthNet.uav[4] utilizationFail 0
scalar OsgEarthNet.uav[4] simulationTime 259200
scalar OsgEarthNet.uav[5] utilizationSecMission 30126.182833517
scalar OsgEarthNet.uav[5] utilizationSecMaintenance 12857.318015701
scalar OsgEarthNet.uav[5] utilizationSecCharge 164440.46205201
scalar OsgEarthNet.uav[5] utilizationSecIdle 51776.036098769
scalar OsgEarthNet.uav[5] utilizationEnergyMission 137638.75743866
scalar OsgEarthNet.uav[5] utilizationEnergyMaintenance 61015.750907898
scalar OsgEarthNet.uav[5] utilizationEnergyCharge 197744.22753906
scalar OsgEarthNet.uav[5] utilizationEnergyOverdrawMission 0
scalar OsgEarthNet.uav[5] utilizationEnergyOverdrawMaintenance 0
scalar OsgEarthNet.uav[5] utilizationCountMissions 51
scalar OsgEarthNet.uav[5] utilizationCountManeuversMission 482
scalar OsgEarthNet.uav[5] utilizationCountManeuversMaintenance 102
scalar OsgEarthNet.uav[5] utilizationCountChargeState 51
scalar OsgEarthNet.uav[5] utilizationCountOverdrawnAfterMission 0
scalar OsgEarthNet.uav[5] utilizationCountIdleState 51
scalar OsgEarthNet.uav[5] utilizationFail 0
scalar OsgEarthNet.uav[5] simulationTime 259200
scalar OsgEarthNet.uav[6] utilizationSecMission 443.5870541303
scalar OsgEarthNet.uav[6] utilizationSecMaintenance 425.80795651079
scalar OsgEarthNet.uav[6] utilizationSecCharge 3300
scalar OsgEarthNet.uav[6] utilizationSecIdle 255030.60398936
scalar OsgEarthNet.uav[6] utilizationEnergyMission 1980.0144958496
scalar OsgEarthNet.uav[6] utilizationEnergyMaintenance 2024.9130363464
scalar OsgEarthNet.uav[6] utilizationEnergyCharge 3993.7080078125
scalar OsgEarthNet.uav[6] utilizationEnergyOverdrawMission 0
scalar OsgEarthNet.uav[6] utilizationEnergyOverdrawMaintenance 0
scalar OsgEarthNet.uav[6] utilizationCountMissions 1
scalar OsgEarthNet.uav[6] utilizationCountManeuversMission 7
scalar OsgEarthNet.uav[6] utilizationCountManeuversMaintenance 2
scalar OsgEarthNet.uav[6] utilizationCountChargeState 1
scalar OsgEarthNet.uav[6] utilizationCountOverdrawnAfterMission 0
scalar OsgEarthNet.uav[6] utilizationCountIdleState 2
scalar OsgEarthNet.uav[6] utilizationFail 0
scalar OsgEarthNet.uav[6] simulationTime 259200
scalar OsgEarthNet.uav[7] utilizationSecMission 26197.224441067
scalar OsgEarthNet.uav[7] utilizationSecMaintenance 14818.661151826
scalar OsgEarthNet.uav[7] utilizationSecCharge 161699.40770807
scalar OsgEarthNet.uav[7] utilizationSecIdle 56484.705699036
scalar OsgEarthNet.uav[7] utilizationEnergyMission 120883.29285431
scalar OsgEarthNet.uav[7] utilizationEnergyMaintenance 71523.463916779
scalar OsgEarthNet.uav[7] utilizationEnergyCharge 188493.25164795
scalar OsgEarthNet.uav[7] utilizationEnergyOverdrawMission 0
scalar OsgEarthNet.uav[7] utilizationEnergyOverdrawMaintenance 0
scalar OsgEarthNet.uav[7] utilizationCountMissions 54
scalar OsgEarthNet.uav[7] utilizationCountManeuversMission 427
scalar OsgEarthNet.uav[7] utilizationCountManeuversMaintenance 108
scalar OsgEarthNet.uav[7] utilizationCountChargeState 54
scalar OsgEarthNet.uav[7] utilizationCountOverdrawnAfterMission 0
scalar OsgEarthNet.uav[7] utilizationCountIdleState 54
scalar OsgEarthNet.uav[7] utilizationFail 0
scalar OsgEarthNet.uav[7] simulationTime 259200
scalar OsgEarthNet.uav[8] utilizationSecMission 26251.646433608
scalar OsgEarthNet.uav[8] utilizationSecMaintenance 14350.424791826
scalar OsgEarthNet.uav[8] utilizationSecCharge 160380
scalar OsgEarthNet.uav[8] utilizationSecIdle 58217.927774566
scalar OsgEarthNet.uav[8] utilizationEnergyMission 122084.40795898
scalar OsgEarthNet.uav[8] utilizationEnergyMaintenance 67303.672744751
scalar OsgEarthNet.uav[8] utilizationEnergyCharge 189680.36621094
scalar OsgEarthNet.uav[8] utilizationEnergyOverdrawMission 0
scalar OsgEarthNet.uav[8] utilizationEnergyOverdrawMaintenance 0
scalar OsgEarthNet.uav[8] utilizationCountMissions 51
scalar OsgEarthNet.uav[8] utilizationCountManeuversMission 425
scalar OsgEarthNet.uav[8] utilizationCountManeuversMaintenance 102
scalar OsgEarthNet.uav[8] utilizationCountChargeState 51
scalar OsgEarthNet.uav[8] utilizationCountOverdrawnAfterMission 0
scalar OsgEarthNet.uav[8] utilizationCountIdleState 52
scalar OsgEarthNet.uav[8] utilizationFail 0
scalar OsgEarthNet.uav[8] simulationTime 259200
scalar OsgEarthNet.uav[9] utilizationSecMission 12633.696041019
scalar OsgEarthNet.uav[9] utilizationSecMaintenance 7289.9596346068
scalar OsgEarthNet.uav[9] utilizationSecCharge 77960
scalar OsgEarthNet.uav[9] utilizationSecIdle 161316.34332437
scalar OsgEarthNet.uav[9] utilizationEnergyMission 58132.829216003
scalar OsgEarthNet.uav[9] utilizationEnergyMaintenance 33938.684623718
scalar OsgEarthNet.uav[9] utilizationEnergyCharge 91874.952636719
scalar OsgEarthNet.uav[9] utilizationEnergyOverdrawMission 0
scalar OsgEarthNet.uav[9] utilizationEnergyOverdrawMaintenance 0
scalar OsgEarthNet.uav[9] utilizationCountMissions 25
scalar OsgEarthNet.uav[9] utilizationCountManeuversMission 212
scalar OsgEarthNet.uav[9] utilizationCountManeuversMaintenance 50
scalar OsgEarthNet.uav[9] utilizationCountChargeState 25
scalar OsgEarthNet.uav[9] utilizationCountOverdrawnAfterMission 0
scalar OsgEarthNet.uav[9] utilizationCountIdleState 26
scalar OsgEarthNet.uav[9] utilizationFail 0
scalar OsgEarthNet.uav[9] simulationTime 259200
scalar OsgEarthNet.uav[10] utilizationSecMission 443.5870541303
scalar OsgEarthNet.uav[10] utilizationSecMaintenance 425.80795651079
scalar OsgEarthNet.uav[10] utilizationSecCharge 3290
scalar OsgEarthNet.uav[10] utilizationSecIdle 255040.60398936
scalar OsgEarthNet.uav[10] utilizationEnergyMission 2012.8392486572
scalar OsgEarthNet.uav[10] utilizationEnergyMaintenance 1990.3543052673
scalar OsgEarthNet.uav[10] utilizationEnergyCharge 3942.8835449219
scalar OsgEarthNet.uav[10] utilizationEnergyOverdrawMission 0
scalar OsgEarthNet.uav[10] utilizationEnergyOverdrawMaintenance 0
scalar OsgEarthNet.uav[10] utilizationCountMissions 1
scalar OsgEarthNet.uav[10] utilizationCountManeuversMission 7
scalar OsgEarthNet.uav[10] utilizationCountManeuversMaintenance 2
scalar OsgEarthNet.uav[10] utilizationCountChargeState 1
scalar OsgEarthNet.uav[10] utilizationCountOverdrawnAfterMission 0
scalar OsgEarthNet.uav[10] utilizationCountIdleState 2
scalar OsgEarthNet.uav[10] utilizationFail 0
scalar OsgEarthNet.uav[10] simulationTime 259200
scalar OsgEarthNet.uav[11] utilizationSecMission 26569.647935403
scalar OsgEarthNet.uav[11] utilizationSecMaintenance 13146.95360877
scalar OsgEarthNet.uav[11] utilizationSecCharge 154083.37718168
scalar OsgEarthNet.uav[11] utilizationSecIdle 65400.020274145
scalar OsgEarthNet.uav[11] utilizationEnergyMission 122628.89217377
scalar OsgEarthNet.uav[11] utilizationEnergyMaintenance 61870.302902222
scalar OsgEarthNet.uav[11] utilizationEnergyCharge 184485.88378906
scalar OsgEarthNet.uav[11] utilizationEnergyOverdrawMission 0
scalar OsgEarthNet.uav[11] utilizationEnergyOverdrawMaintenance 0
scalar OsgEarthNet.uav[11] utilizationCountMissions 48
scalar OsgEarthNet.uav[11] utilizationCountManeuversMission 426
scalar OsgEarthNet.uav[11] utilizationCountManeuversMaintenance 96
scalar OsgEarthNet.uav[11] utilizationCountChargeState 48
scalar OsgEarthNet.uav[11] utilizationCountOverdrawnAfterMission 0
scalar OsgEarthNet.uav[11] utilizationCountIdleState 48
scalar OsgEarthNet.uav[11] utilizationFail 0
scalar OsgEarthNet.uav[11] simulationTime 259200
scalar OsgEarthNet.uav[12] utilizationSecMission 25398.920827113
scalar OsgEarthNet.uav[12] utilizationSecMaintenance 12129.408789261
scalar OsgEarthNet.uav[12] utilizationSecCharge 146644.80934478
scalar OsgEarthNet.uav[12] utilizationSecIdle 75026.860038846
scalar OsgEarthNet.uav[12] utilizationEnergyMission 117132.41120148
scalar OsgEarthNet.uav[12] utilizationEnergyMaintenance 57621.939071655
scalar OsgEarthNet.uav[12] utilizationEnergyCharge 172724.72851562
scalar OsgEarthNet.uav[12] utilizationEnergyOverdrawMission 0
scalar OsgEarthNet.uav[12] utilizationEnergyOverdrawMaintenance 0
scalar OsgEarthNet.uav[12] utilizationCountMissions 48
scalar OsgEarthNet.uav[12] utilizationCountManeuversMission 411
scalar OsgEarthNet.uav[12] utilizationCountManeuversMaintenance 96
scalar OsgEarthNet.uav[12] utilizationCountChargeState 48
scalar OsgEarthNet.uav[12] utilizationCountOverdrawnAfterMission 0
scalar OsgEarthNet.uav[12] utilizationCountIdleState 48
scalar OsgEarthNet.uav[12] utilizationFail 0
scalar OsgEarthNet.uav[12] simulationTime 259200
scalar OsgEarthNet.uav[13] utilizationSecMission 213.40226662092
scalar OsgEarthNet.uav[13] utilizationSecMaintenance 474.30151219871
scalar OsgEarthNet.uav[13] utilizationSecCharge 2810
scalar OsgEarthNet.uav[13] utilizationSecIdle 255702.29522118
scalar OsgEarthNet.uav[13] utilizationEnergyMission 952.97155761719
scalar OsgEarthNet.uav[13] utilizationEnergyMaintenance 2210.294303894
scalar OsgEarthNet.uav[13] utilizationEnergyCharge 3163.2622070312
scalar OsgEarthNet.uav[13] utilizationEnergyOverdrawMission 0
scalar OsgEarthNet.uav[13] utilizationEnergyOverdrawMaintenance 0
scalar OsgEarthNet.uav[13] utilizationCountMissions 1
scalar OsgEarthNet.uav[13] utilizationCountManeuversMission 3
scalar OsgEarthNet.uav[13] utilizationCountManeuversMaintenance 2
scalar OsgEarthNet.uav[13] utilizationCountChargeState 1
scalar OsgEarthNet.uav[13] utilizationCountOverdrawnAfterMission 0
scalar OsgEarthNet.uav[13] utilizationCountIdleState 2
scalar OsgEarthNet.uav[13] utilizationFail 0
scalar OsgEarthNet.uav[13] simulationTime 259200
scalar OsgEarthNet.uav[14] utilizationSecMission 28118.985004982
scalar OsgEarthNet.uav[14] utilizationSecMaintenance 14419.013995018
scalar OsgEarthNet.uav[14] utilizationSecCharge 170560
scalar OsgEarthNet.uav[14] utilizationSecIdle 46102
scalar OsgEarthNet.uav[14] utilizationEnergyMission 131634.84493943
scalar OsgEarthNet.uav[14] utilizationEnergyMaintenance 68661.061794281
scalar OsgEarthNet.uav[14] utilizationEnergyCharge 198564.25488281
scalar OsgEarthNet.uav[14] utilizationEnergyOverdrawMission 0
scalar OsgEarthNet.uav[14] utilizationEnergyOverdrawMaintenance 0
scalar OsgEarthNet.uav[14] utilizationCountMissions 56
scalar OsgEarthNet.uav[14] utilizationCountManeuversMission 463
scalar OsgEarthNet.uav[14] utilizationCountManeuversMaintenance 112
scalar OsgEarthNet.uav[14] utilizationCountChargeState 56
scalar OsgEarthNet.uav[14] utilizationCountOverdrawnAfterMission 0
scalar OsgEarthNet.uav[14] utilizationCountIdleState 57
scalar OsgEarthNet.uav[14] utilizationFail 0
scalar OsgEarthNet.uav[14] simulationTime 259200
scalar OsgEarthNet.uav[15] utilizationSecMission 694.00169469977
scalar OsgEarthNet.uav[15] utilizationSecMaintenance 229.48898285212
scalar OsgEarthNet.uav[15] utilizationSecCharge 3420
scalar OsgEarthNet.uav[15] utilizationSecIdle 254856.50832245
scalar OsgEarthNet.uav[15] utilizationEnergyMission 3071.596244812
scalar OsgEarthNet.uav[15] utilizationEnergyMaintenance 1058.3234481812
scalar OsgEarthNet.uav[15] utilizationEnergyCharge 4157.4995117188
scalar OsgEarthNet.uav[15] utilizationEnergyOverdrawMission 0
scalar OsgEarthNet.uav[15] utilizationEnergyOverdrawMaintenance 0
scalar OsgEarthNet.uav[15] utilizationCountMissions 1
scalar OsgEarthNet.uav[15] utilizationCountManeuversMission 13
scalar OsgEarthNet.uav[15] utilizationCountManeuversMaintenance 2
scalar OsgEarthNet.uav[15] utilizationCountChargeState 1
scalar OsgEarthNet.uav[15] utilizationCountOverdrawnAfterMission 0
scalar OsgEarthNet.uav[15] utilizationCountIdleState 2
scalar OsgEarthNet.uav[15] utilizationFail 0
scalar OsgEarthNet.uav[15] simulationTime 259200
scalar OsgEarthNet.uav[16] utilizationSecMission 58.290267253621
scalar OsgEarthNet.uav[16] utilizationSecMaintenance 296.48347336566
scalar OsgEarthNet.uav[16] utilizationSecCharge 1900
scalar OsgEarthNet.uav[16] utilizationSecIdle 256945.22525938
scalar OsgEarthNet.uav[16] utilizationEnergyMission 156.3596496582
scalar OsgEarthNet.uav[16] utilizationEnergyMaintenance 1395.0236320496
scalar OsgEarthNet.uav[16] utilizationEnergyCharge 1551.3793945312
scalar OsgEarthNet.uav[16] utilizationEnergyOverdrawMission 0
scalar OsgEarthNet.uav[16] utilizationEnergyOverdrawMaintenance 0
scalar OsgEarthNet.uav[16] utilizationCountMissions 1
scalar OsgEarthNet.uav[16] utilizationCountManeuversMission 1
scalar OsgEarthNet.uav[16] utilizationCountManeuversMaintenance 2
scalar OsgEarthNet.uav[16] utilizationCountChargeState 1
scalar OsgEarthNet.uav[16] utilizationCountOverdrawnAfterMission 0
scalar OsgEarthNet.uav[16] utilizationCountIdleState 2
scalar OsgEarthNet.uav[16] utilizationFail 0
scalar OsgEarthNet.uav[16] simulationTime 259200
scalar OsgEarthNet.uav[17] utilizationSecMission 23.329233930829
scalar OsgEarthNet.uav[17] utilizationSecMaintenance 476.50021886036
scalar OsgEarthNet.uav[17] utilizationSecCharge 2360
scalar OsgEarthNet.uav[17] utilizationSecIdle 256340.16954721
scalar OsgEarthNet.uav[17] utilizationEnergyMission 168.96633911133
scalar OsgEarthNet.uav[17] utilizationEnergyMaintenance 2151.8207015991
scalar OsgEarthNet.uav[17] utilizationEnergyCharge 2320.7849121094
scalar OsgEarthNet.uav[17] utilizationEnergyOverdrawMission 0
scalar OsgEarthNet.uav[17] utilizationEnergyOverdrawMaintenance 0
scalar OsgEarthNet.uav[17] utilizationCountMissions 1
scalar OsgEarthNet.uav[17] utilizationCountManeuversMission 1
scalar OsgEarthNet.uav[17] utilizationCountManeuversMaintenance 2
scalar OsgEarthNet.uav[17] utilizationCountChargeState 1
scalar OsgEarthNet.uav[17] utilizationCountOverdrawnAfterMission 0
scalar OsgEarthNet.uav[17] utilizationCountIdleState 2
scalar OsgEarthNet.uav[17] utilizationFail 0
scalar OsgEarthNet.uav[17] simulationTime 259200
scalar OsgEarthNet.uav[18] utilizationSecMission 27275.19381069
scalar OsgEarthNet.uav[18] utilizationSecMaintenance 15711.253630635
scalar OsgEarthNet.uav[18] utilizationSecCharge 166969.45689489
scalar OsgEarthNet.uav[18] utilizationSecIdle 49244.094663781
scalar OsgEarthNet.uav[18] utilizationEnergyMission 125887.81126404
scalar OsgEarthNet.uav[18] utilizationEnergyMaintenance 74212.780590057
scalar OsgEarthNet.uav[18] utilizationEnergyCharge 195951.71923828
scalar OsgEarthNet.uav[18] utilizationEnergyOverdrawMission 0
scalar OsgEarthNet.uav[18] utilizationEnergyOverdrawMaintenance 0
scalar OsgEarthNet.uav[18] utilizationCountMissions 55
scalar OsgEarthNet.uav[18] utilizationCountManeuversMission 455
scalar OsgEarthNet.uav[18] utilizationCountManeuversMaintenance 110
scalar OsgEarthNet.uav[18] utilizationCountChargeState 55
scalar OsgEarthNet.uav[18] utilizationCountOverdrawnAfterMission 0
scalar OsgEarthNet.uav[18] utilizationCountIdleState 55
scalar OsgEarthNet.uav[18] utilizationFail 0
scalar OsgEarthNet.uav[18] simulationTime 259200
scalar OsgEarthNet.uav[19] utilizationSecMission 443.5870541303
scalar OsgEarthNet.uav[19] utilizationSecMaintenance 425.80795651079
scalar OsgEarthNet.uav[19] utilizationSecCharge 3330
scalar OsgEarthNet.uav[19] utilizationSecIdle 255000.60398936
scalar OsgEarthNet.uav[19] utilizationEnergyMission 2058.2295074463
scalar OsgEarthNet.uav[19] utilizationEnergyMaintenance 2175.7492485046
scalar OsgEarthNet.uav[19] utilizationEnergyCharge 4066.556640625
scalar OsgEarthNet.uav[19] utilizationEnergyOverdrawMission 0
scalar OsgEarthNet.uav[19] utilizationEnergyOverdrawMaintenance 0
scalar OsgEarthNet.uav[19] utilizationCountMissions 1
scalar OsgEarthNet.uav[19] utilizationCountManeuversMission 7
scalar OsgEarthNet.uav[19] utilizationCountManeuversMaintenance 2
scalar OsgEarthNet.uav[19] utilizationCountChargeState 1
scalar OsgEarthNet.uav[19] utilizationCountOverdrawnAfterMission 0
scalar OsgEarthNet.uav[19] utilizationCountIdleState 2
scalar OsgEarthNet.uav[19] utilizationFail 0
scalar OsgEarthNet.uav[19] simulationTime 259200
scalar OsgEarthNet.uav[20] utilizationSecMission 3913.3388618999
scalar OsgEarthNet.uav[20] utilizationSecMaintenance 2390.9514052813
scalar OsgEarthNet.uav[20] utilizationSecCharge 25780
scalar OsgEarthNet.uav[20] utilizationSecIdle 227115.70873282
scalar OsgEarthNet.uav[20] utilizationEnergyMission 17700.87575531
scalar OsgEarthNet.uav[20] utilizationEnergyMaintenance 11145.49156189
scalar OsgEarthNet.uav[20] utilizationEnergyCharge 29248.134765625
scalar OsgEarthNet.uav[20] utilizationEnergyOverdrawMission 0
scalar OsgEarthNet.uav[20] utilizationEnergyOverdrawMaintenance 0
scalar OsgEarthNet.uav[20] utilizationCountMissions 9
scalar OsgEarthNet.uav[20] utilizationCountManeuversMission 59
scalar OsgEarthNet.uav[20] utilizationCountManeuversMaintenance 18
scalar OsgEarthNet.uav[20] utilizationCountChargeState 9
scalar OsgEarthNet.uav[20] utilizationCountOverdrawnAfterMission 0
scalar OsgEarthNet.uav[20] utilizationCountIdleState 10
scalar OsgEarthNet.uav[20] utilizationFail 0
scalar OsgEarthNet.uav[20] simulationTime 259200
scalar OsgEarthNet.uav[21] utilizationSecMission 5512.5999785417
scalar OsgEarthNet.uav[21] utilizationSecMaintenance 5013.3967490906
scalar OsgEarthNet.uav[21] utilizationSecCharge 41070
scalar OsgEarthNet.uav[21] utilizationSecIdle 207604.00227237
scalar OsgEarthNet.uav[21] utilizationEnergyMission 25618.92401886
scalar OsgEarthNet.uav[21] utilizationEnergyMaintenance 23269.006626129
scalar OsgEarthNet.uav[21] utilizationEnergyCharge 48818.573730469
scalar OsgEarthNet.uav[21] utilizationEnergyOverdrawMission 0
scalar OsgEarthNet.uav[21] utilizationEnergyOverdrawMaintenance 0
scalar OsgEarthNet.uav[21] utilizationCountMissions 13
scalar OsgEarthNet.uav[21] utilizationCountManeuversMission 90
scalar OsgEarthNet.uav[21] utilizationCountManeuversMaintenance 26
scalar OsgEarthNet.uav[21] utilizationCountChargeState 13
scalar OsgEarthNet.uav[21] utilizationCountOverdrawnAfterMission 0
scalar OsgEarthNet.uav[21] utilizationCountIdleState 14
scalar OsgEarthNet.uav[21] utilizationFail 0
scalar OsgEarthNet.uav[21] simulationTime 259200
scalar OsgEarthNet.uav[22] utilizationSecMission 27358.936522527
scalar OsgEarthNet.uav[22] utilizationSecMaintenance 15372.505231943
scalar OsgEarthNet.uav[22] utilizationSecCharge 167610
scalar OsgEarthNet.uav[22] utilizationSecIdle 48858.55724553
scalar OsgEarthNet.uav[22] utilizationEnergyMission 125003.38268689
scalar OsgEarthNet.uav[22] utilizationEnergyMaintenance 71740.283794403
scalar OsgEarthNet.uav[22] utilizationEnergyCharge 197037.8125
scalar OsgEarthNet.uav[22] utilizationEnergyOverdrawMission 0
scalar OsgEarthNet.uav[22] utilizationEnergyOverdrawMaintenance 0
scalar OsgEarthNet.uav[22] utilizationCountMissions 54
scalar OsgEarthNet.uav[22] utilizationCountManeuversMission 443
scalar OsgEarthNet.uav[22] utilizationCountManeuversMaintenance 107
scalar OsgEarthNet.uav[22] utilizationCountChargeState 54
scalar OsgEarthNet.uav[22] utilizationCountOverdrawnAfterMission 0
scalar OsgEarthNet.uav[22] utilizationCountIdleState 55
scalar OsgEarthNet.uav[22] utilizationFail 0
scalar OsgEarthNet.uav[22] simulationTime 259200
scalar OsgEarthNet.uav[23] utilizationSecMission 443.5870541303
scalar OsgEarthNet.uav[23] utilizationSecMaintenance 425.80795651079
scalar OsgEarthNet.uav[23] utilizationSecCharge 3340
scalar OsgEarthNet.uav[23] utilizationSecIdle 254990.60398936
scalar OsgEarthNet.uav[23] utilizationEnergyMission 2098.2160339355
scalar OsgEarthNet.uav[23] utilizationEnergyMaintenance 1881.6910972595
scalar OsgEarthNet.uav[23] utilizationEnergyCharge 4049.0708007812
scalar OsgEarthNet.uav[23] utilizationEnergyOverdrawMission 0
scalar OsgEarthNet.uav[23] utilizationEnergyOverdrawMaintenance 0
scalar OsgEarthNet.uav[23] utilizationCountMissions 1
scalar OsgEarthNet.uav[23] utilizationCountManeuversMission 7
scalar OsgEarthNet.uav[23] utilizationCountManeuversMaintenance 2
scalar OsgEarthNet.uav[23] utilizationCountChargeState 1
scalar OsgEarthNet.uav[23] utilizationCountOverdrawnAfterMission 0
scalar OsgEarthNet.uav[23] utilizationCountIdleState 2
scalar OsgEarthNet.uav[23] utilizationFail 0
scalar OsgEarthNet.uav[23] simulationTime 259200
scalar OsgEarthNet.uav[24] utilizationSecMission 13891.977534752
scalar OsgEarthNet.uav[24] utilizationSecMaintenance 5623.0724901978
scalar OsgEarthNet.uav[24] utilizationSecCharge 77200
scalar OsgEarthNet.uav[24] utilizationSecIdle 162484.94897505
scalar OsgEarthNet.uav[24] utilizationEnergyMission 64422.74597168
scalar OsgEarthNet.uav[24] utilizationEnergyMaintenance 26894.519462585
scalar OsgEarthNet.uav[24] utilizationEnergyCharge 90711.720458984
scalar OsgEarthNet.uav[24] utilizationEnergyOverdrawMission 0
scalar OsgEarthNet.uav[24] utilizationEnergyOverdrawMaintenance 0
scalar OsgEarthNet.uav[24] utilizationCountMissions 25
scalar OsgEarthNet.uav[24] utilizationCountManeuversMission 227
scalar OsgEarthNet.uav[24] utilizationCountManeuversMaintenance 50
scalar OsgEarthNet.uav[24] utilizationCountChargeState 25
scalar OsgEarthNet.uav[24] utilizationCountOverdrawnAfterMission 0
scalar OsgEarthNet.uav[24] utilizationCountIdleState 26
scalar OsgEarthNet.uav[24] utilizationFail 0
scalar OsgEarthNet.uav[24] simulationTime 259200
scalar OsgEarthNet.uav[25] utilizationSecMission 15747.312107523
scalar OsgEarthNet.uav[25] utilizationSecMaintenance 7881.0184480288
scalar OsgEarthNet.uav[25] utilizationSecCharge 90694.396931899
scalar OsgEarthNet.uav[25] utilizationSecIdle 144877.27151255
scalar OsgEarthNet.uav[25] utilizationEnergyMission 72439.427986145
scalar OsgEarthNet.uav[25] utilizationEnergyMaintenance 36413.231571198
scalar OsgEarthNet.uav[25] utilizationEnergyCharge 108652.02026367
scalar OsgEarthNet.uav[25] utilizationEnergyOverdrawMission 0
scalar OsgEarthNet.uav[25] utilizationEnergyOverdrawMaintenance 0
scalar OsgEarthNet.uav[25] utilizationCountMissions 29
scalar OsgEarthNet.uav[25] utilizationCountManeuversMission 262
scalar OsgEarthNet.uav[25] utilizationCountManeuversMaintenance 58
scalar OsgEarthNet.uav[25] utilizationCountChargeState 29
scalar OsgEarthNet.uav[25] utilizationCountOverdrawnAfterMission 0
scalar OsgEarthNet.uav[25] utilizationCountIdleState 29
scalar OsgEarthNet.uav[25] utilizationFail 0
scalar OsgEarthNet.uav[25] simulationTime 259200
scalar OsgEarthNet.uav[26] utilizationSecMission 443.5870541303
scalar OsgEarthNet.uav[26] utilizationSecMaintenance 425.80795651079
scalar OsgEarthNet.uav[26] utilizationSecCharge 3420
scalar OsgEarthNet.uav[26] utilizationSecIdle 254910.60398936
scalar OsgEarthNet.uav[26] utilizationEnergyMission 2159.1287841797
scalar OsgEarthNet.uav[26] utilizationEnergyMaintenance 2102.5870475769
scalar OsgEarthNet.uav[26] utilizationEnergyCharge 4134.6767578125
scalar OsgEarthNet.uav[26] utilizationEnergyOverdrawMission 0
scalar OsgEarthNet.uav[26] utilizationEnergyOverdrawMaintenance 0
scalar OsgEarthNet.uav[26] utilizationCountMissions 1
scalar OsgEarthNet.uav[26] utilizationCountManeuversMission 7
scalar OsgEarthNet.uav[26] utilizationCountManeuversMaintenance 2
scalar OsgEarthNet.uav[26] utilizationCountChargeState 1
scalar OsgEarthNet.uav[26] utilizationCountOverdrawnAfterMission 0
scalar OsgEarthNet.uav[26] utilizationCountIdleState 2
scalar OsgEarthNet.uav[26] utilizationFail 0
scalar OsgEarthNet.uav[26] simulationTime 259200
scalar OsgEarthNet.uav[27] utilizationSecMission 301.50602773369
scalar OsgEarthNet.uav[27] utilizationSecMaintenance 206.19350838146
scalar OsgEarthNet.uav[27] utilizationSecCharge 2420
scalar OsgEarthNet.uav[27] utilizationSecIdle 256272.29946388
scalar OsgEarthNet.uav[27] utilizationEnergyMission 1373.8790893555
scalar OsgEarthNet.uav[27] utilizationEnergyMaintenance 1030.267906189
scalar OsgEarthNet.uav[27] utilizationEnergyCharge 2431.5187988281
scalar OsgEarthNet.uav[27] utilizationEnergyOverdrawMission 0
scalar OsgEarthNet.uav[27] utilizationEnergyOverdrawMaintenance 0
scalar OsgEarthNet.uav[27] utilizationCountMissions 1
scalar OsgEarthNet.uav[27] utilizationCountManeuversMission 6
scalar OsgEarthNet.uav[27] utilizationCountManeuversMaintenance 2
scalar OsgEarthNet.uav[27] utilizationCountChargeState 1
scalar OsgEarthNet.uav[27] utilizationCountOverdrawnAfterMission 0
scalar OsgEarthNet.uav[27] utilizationCountIdleState 2
scalar OsgEarthNet.uav[27] utilizationFail 0
scalar OsgEarthNet.uav[27] simulationTime 259200
scalar OsgEarthNet.uav[28] utilizationSecMission 6867.6712116085
scalar OsgEarthNet.uav[28] utilizationSecMaintenance 4904.0611403288
scalar OsgEarthNet.uav[28] utilizationSecCharge 46140.789398662
scalar OsgEarthNet.uav[28] utilizationSecIdle 201287.4772494
scalar OsgEarthNet.uav[28] utilizationEnergyMission 31810.796730041
scalar OsgEarthNet.uav[28] utilizationEnergyMaintenance 23362.769638062
scalar OsgEarthNet.uav[28] utilizationEnergyCharge 54058.583740234
scalar OsgEarthNet.uav[28] utilizationEnergyOverdrawMission 0
scalar OsgEarthNet.uav[28] utilizationEnergyOverdrawMaintenance 0
scalar OsgEarthNet.uav[28] utilizationCountMissions 16
scalar OsgEarthNet.uav[28] utilizationCountManeuversMission 107
scalar OsgEarthNet.uav[28] utilizationCountManeuversMaintenance 32
scalar OsgEarthNet.uav[28] utilizationCountChargeState 16
scalar OsgEarthNet.uav[28] utilizationCountOverdrawnAfterMission 0
scalar OsgEarthNet.uav[28] utilizationCountIdleState 16
scalar OsgEarthNet.uav[28] utilizationFail 0
scalar OsgEarthNet.uav[28] simulationTime 259200
scalar OsgEarthNet.uav[29] utilizationSecMission 760.62515258028
scalar OsgEarthNet.uav[29] utilizationSecMaintenance 245.74410321072
scalar OsgEarthNet.uav[29] utilizationSecCharge 3780
scalar OsgEarthNet.uav[29] utilizationSecIdle 254413.62974421
scalar OsgEarthNet.uav[29] utilizationEnergyMission 3620.0574493408
scalar OsgEarthNet.uav[29] utilizationEnergyMaintenance 1211.4152641296
scalar OsgEarthNet.uav[29] utilizationEnergyCharge 4831.474609375
scalar OsgEarthNet.uav[29] utilizationEnergyOverdrawMission 0
scalar OsgEarthNet.uav[29] utilizationEnergyOverdrawMaintenance 0
scalar OsgEarthNet.uav[29] utilizationCountMissions 1
scalar OsgEarthNet.uav[29] utilizationCountManeuversMission 12
scalar OsgEarthNet.uav[29] utilizationCountManeuversMaintenance 2
scalar OsgEarthNet.uav[29] utilizationCountChargeState 1
scalar OsgEarthNet.uav[29] utilizationCountOverdrawnAfterMission 0
scalar OsgEarthNet.uav[29] utilizationCountIdleState 2
scalar OsgEarthNet.uav[29] utilizationFail 0
scalar OsgEarthNet.uav[29] simulationTime 259200
scalar OsgEarthNet.uav[30] utilizationSecMission 29001.65609679
scalar OsgEarthNet.uav[30] utilizationSecMaintenance 11230.073004442
scalar OsgEarthNet.uav[30] utilizationSecCharge 151910.84451728
scalar OsgEarthNet.uav[30] utilizationSecIdle 67057.425381488
scalar OsgEarthNet.uav[30] utilizationEnergyMission 133466.11727905
scalar OsgEarthNet.uav[30] utilizationEnergyMaintenance 52099.148956299
scalar OsgEarthNet.uav[30] utilizationEnergyCharge 184879.71508789
scalar OsgEarthNet.uav[30] utilizationEnergyOverdrawMission 0
scalar OsgEarthNet.uav[30] utilizationEnergyOverdrawMaintenance 0
scalar OsgEarthNet.uav[30] utilizationCountMissions 46
scalar OsgEarthNet.uav[30] utilizationCountManeuversMission 469
scalar OsgEarthNet.uav[30] utilizationCountManeuversMaintenance 92
scalar OsgEarthNet.uav[30] utilizationCountChargeState 46
scalar OsgEarthNet.uav[30] utilizationCountOverdrawnAfterMission 0
scalar OsgEarthNet.uav[30] utilizationCountIdleState 46
scalar OsgEarthNet.uav[30] utilizationFail 0
scalar OsgEarthNet.uav[30] simulationTime 259200
scalar OsgEarthNet.uav[31] utilizationSecMission 1586.4100632589
scalar OsgEarthNet.uav[31] utilizationSecMaintenance 1108.6057565209
scalar OsgEarthNet.uav[31] utilizationSecCharge 10950
scalar OsgEarthNet.uav[31] utilizationSecIdle 245554.98318022
scalar OsgEarthNet.uav[31] utilizationEnergyMission 7041.9307250977
scalar OsgEarthNet.uav[31] utilizationEnergyMaintenance 5170.1713218689
scalar OsgEarthNet.uav[31] utilizationEnergyCharge 12069.040771484
scalar OsgEarthNet.uav[31] utilizationEnergyOverdrawMission 0
scalar OsgEarthNet.uav[31] utilizationEnergyOverdrawMaintenance 0
scalar OsgEarthNet.uav[31] utilizationCountMissions 4
scalar OsgEarthNet.uav[31] utilizationCountManeuversMission 24
scalar OsgEarthNet.uav[31] utilizationCountManeuversMaintenance 8
scalar OsgEarthNet.uav[31] utilizationCountChargeState 4
scalar OsgEarthNet.uav[31] utilizationCountOverdrawnAfterMission 0
scalar OsgEarthNet.uav[31] utilizationCountIdleState 5
scalar OsgEarthNet.uav[31] utilizationFail 0
scalar OsgEarthNet.uav[31] simulationTime 259200
scalar OsgEarthNet.uav[32] utilizationSecMission 694.00169469977
scalar OsgEarthNet.uav[32] utilizationSecMaintenance 229.48898285212
scalar OsgEarthNet.uav[32] utilizationSecCharge 3550
scalar OsgEarthNet.uav[32] utilizationSecIdle 254726.50832245
scalar OsgEarthNet.uav[32] utilizationEnergyMission 3319.0651473999
scalar OsgEarthNet.uav[32] utilizationEnergyMaintenance 1016.1915817261
scalar OsgEarthNet.uav[32] utilizationEnergyCharge 4357.2895507812
scalar OsgEarthNet.uav[32] utilizationEnergyOverdrawMission 0
scalar OsgEarthNet.uav[32] utilizationEnergyOverdrawMaintenance 0
scalar OsgEarthNet.uav[32] utilizationCountMissions 1
scalar OsgEarthNet.uav[32] utilizationCountManeuversMission 13
scalar OsgEarthNet.uav[32] utilizationCountManeuversMaintenance 2
scalar OsgEarthNet.uav[32] utilizationCountChargeState 1
scalar OsgEarthNet.uav[32] utilizationCountOverdrawnAfterMission 0
scalar OsgEarthNet.uav[32] utilizationCountIdleState 2
scalar OsgEarthNet.uav[32] utilizationFail 0
scalar OsgEarthNet.uav[32] simulationTime 259200
scalar OsgEarthNet.uav[33] utilizationSecMission 25569.738224294
scalar OsgEarthNet.uav[33] utilizationSecMaintenance 15373.461551628
scalar OsgEarthNet.uav[33] utilizationSecCharge 158600
scalar OsgEarthNet.uav[33] utilizationSecIdle 59656.799224078
scalar OsgEarthNet.uav[33] utilizationEnergyMission 115905.43685595
scalar OsgEarthNet.uav[33] utilizationEnergyMaintenance 72737.2329216
scalar OsgEarthNet.uav[33] utilizationEnergyCharge 185135.55004883
scalar OsgEarthNet.uav[33] utilizationEnergyOverdrawMission 0
scalar OsgEarthNet.uav[33] utilizationEnergyOverdrawMaintenance 0
scalar OsgEarthNet.uav[33] utilizationCountMissions 52
scalar OsgEarthNet.uav[33] utilizationCountManeuversMission 423
scalar OsgEarthNet.uav[33] utilizationCountManeuversMaintenance 105
scalar OsgEarthNet.uav[33] utilizationCountChargeState 52
scalar OsgEarthNet.uav[33] utilizationCountOverdrawnAfterMission 0
scalar OsgEarthNet.uav[33] utilizationCountIdleState 53
scalar OsgEarthNet.uav[33] utilizationFail 0
scalar OsgEarthNet.uav[33] simulationTime 259200
scalar OsgEarthNet.uav[34] utilizationSecMission 20021.383909463
scalar OsgEarthNet.uav[34] utilizationSecMaintenance 10189.504843259
scalar OsgEarthNet.uav[34] utilizationSecCharge 116976.78655914
scalar OsgEarthNet.uav[34] utilizationSecIdle 112012.32368814
scalar OsgEarthNet.uav[34] utilizationEnergyMission 92898.220832825
scalar OsgEarthNet.uav[34] utilizationEnergyMaintenance 47894.252288818
scalar OsgEarthNet.uav[34] utilizationEnergyCharge 140346.18652344
scalar OsgEarthNet.uav[34] utilizationEnergyOverdrawMission 0
scalar OsgEarthNet.uav[34] utilizationEnergyOverdrawMaintenance 0
scalar OsgEarthNet.uav[34] utilizationCountMissions 37
scalar OsgEarthNet.uav[34] utilizationCountManeuversMission 325
scalar OsgEarthNet.uav[34] utilizationCountManeuversMaintenance 74
scalar OsgEarthNet.uav[34] utilizationCountChargeState 37
scalar OsgEarthNet.uav[34] utilizationCountOverdrawnAfterMission 0
scalar OsgEarthNet.uav[34] utilizationCountIdleState 37
scalar OsgEarthNet.uav[34] utilizationFail 0
scalar OsgEarthNet.uav[34] simulationTime 259200
scalar OsgEarthNet.uav[35] utilizationSecMission 2261.2210991288
scalar OsgEarthNet.uav[35] utilizationSecMaintenance 863.14070565345
scalar OsgEarthNet.uav[35] utilizationSecCharge 12340
scalar OsgEarthNet.uav[35] utilizationSecIdle 243735.63719522
scalar OsgEarthNet.uav[35] utilizationEnergyMission 10784.408370972
scalar OsgEarthNet.uav[35] utilizationEnergyMaintenance 3773.6908836365
scalar OsgEarthNet.uav[35] utilizationEnergyCharge 14384.836914062
scalar OsgEarthNet.uav[35] utilizationEnergyOverdrawMission 0
scalar OsgEarthNet.uav[35] utilizationEnergyOverdrawMaintenance 0
scalar OsgEarthNet.uav[35] utilizationCountMissions 4
scalar OsgEarthNet.uav[35] utilizationCountManeuversMission 42
scalar OsgEarthNet.uav[35] utilizationCountManeuversMaintenance 8
scalar OsgEarthNet.uav[35] utilizationCountChargeState 4
scalar OsgEarthNet.uav[35] utilizationCountOverdrawnAfterMission 0
scalar OsgEarthNet.uav[35] utilizationCountIdleState 5
scalar OsgEarthNet.uav[35] utilizationFail 0
scalar OsgEarthNet.uav[35] simulationTime 259200
scalar OsgEarthNet.uav[36] utilizationSecMission 750.20472747826
scalar OsgEarthNet.uav[36] utilizationSecMaintenance 261.68051383311
scalar OsgEarthNet.uav[36] utilizationSecCharge 3580
scalar OsgEarthNet.uav[36] utilizationSecIdle 254608.11375869
scalar OsgEarthNet.uav[36] utilizationEnergyMission 3251.0624694824
scalar OsgEarthNet.uav[36] utilizationEnergyMaintenance 1269.3394889832
scalar OsgEarthNet.uav[36] utilizationEnergyCharge 4520.4033203125
scalar OsgEarthNet.uav[36] utilizationEnergyOverdrawMission 0
scalar OsgEarthNet.uav[36] utilizationEnergyOverdrawMaintenance 0
scalar OsgEarthNet.uav[36] utilizationCountMissions 1
scalar OsgEarthNet.uav[36] utilizationCountManeuversMission 11
scalar OsgEarthNet.uav[36] utilizationCountManeuversMaintenance 2
scalar OsgEarthNet.uav[36] utilizationCountChargeState 1
scalar OsgEarthNet.uav[36] utilizationCountOverdrawnAfterMission 0
scalar OsgEarthNet.uav[36] utilizationCountIdleState 2
scalar OsgEarthNet.uav[36] utilizationFail 0
scalar OsgEarthNet.uav[36] simulationTime 259200
scalar OsgEarthNet.uav[37] utilizationSecMission 27409.579494191
scalar OsgEarthNet.uav[37] utilizationSecMaintenance 16109.254072016
scalar OsgEarthNet.uav[37] utilizationSecCharge 170729.16392707
scalar OsgEarthNet.uav[37] utilizationSecIdle 44952.001506722
scalar OsgEarthNet.uav[37] utilizationEnergyMission 126448.26166534
scalar OsgEarthNet.uav[37] utilizationEnergyMaintenance 75976.846427917
scalar OsgEarthNet.uav[37] utilizationEnergyCharge 200477.10668945
scalar OsgEarthNet.uav[37] utilizationEnergyOverdrawMission 0
scalar OsgEarthNet.uav[37] utilizationEnergyOverdrawMaintenance 0
scalar OsgEarthNet.uav[37] utilizationCountMissions 56
scalar OsgEarthNet.uav[37] utilizationCountManeuversMission 437
scalar OsgEarthNet.uav[37] utilizationCountManeuversMaintenance 112
scalar OsgEarthNet.uav[37] utilizationCountChargeState 56
scalar OsgEarthNet.uav[37] utilizationCountOverdrawnAfterMission 0
scalar OsgEarthNet.uav[37] utilizationCountIdleState 56
scalar OsgEarthNet.uav[37] utilizationFail 0
scalar OsgEarthNet.uav[37] simulationTime 259200
scalar OsgEarthNet.uav[38] utilizationSecMission 15442.343283113
scalar OsgEarthNet.uav[38] utilizationSecMaintenance 10944.882927859
scalar OsgEarthNet.uav[38] utilizationSecCharge 107160
scalar OsgEarthNet.uav[38] utilizationSecIdle 125652.77278903
scalar OsgEarthNet.uav[38] utilizationEnergyMission 71642.161907196
scalar OsgEarthNet.uav[38] utilizationEnergyMaintenance 51485.978359222
scalar OsgEarthNet.uav[38] utilizationEnergyCharge 123457.62646484
scalar OsgEarthNet.uav[38] utilizationEnergyOverdrawMission 0
scalar OsgEarthNet.uav[38] utilizationEnergyOverdrawMaintenance 0
scalar OsgEarthNet.uav[38] utilizationCountMissions 36
scalar OsgEarthNet.uav[38] utilizationCountManeuversMission 255
scalar OsgEarthNet.uav[38] utilizationCountManeuversMaintenance 72
scalar OsgEarthNet.uav[38] utilizationCountChargeState 36
scalar OsgEarthNet.uav[38] utilizationCountOverdrawnAfterMission 0
scalar OsgEarthNet.uav[38] utilizationCountIdleState 37
scalar OsgEarthNet.uav[38] utilizationFail 0
scalar OsgEarthNet.uav[38] simulationTime 259200
scalar OsgEarthNet.uav[39] utilizationSecMission 25758.652877375
scalar OsgEarthNet.uav[39] utilizationSecMaintenance 13998.013457798
scalar OsgEarthNet.uav[39] utilizationSecCharge 153874.65496852
scalar OsgEarthNet.uav[39] utilizationSecIdle 65568.677696308
scalar OsgEarthNet.uav[39] utilizationEnergyMission 119633.43663025
scalar OsgEarthNet.uav[39] utilizationEnergyMaintenance 65433.844100952
scalar OsgEarthNet.uav[39] utilizationEnergyCharge 181928.00549316
scalar OsgEarthNet.uav[39] utilizationEnergyOverdrawMission 0
scalar OsgEarthNet.uav[39] utilizationEnergyOverdrawMaintenance 0
scalar OsgEarthNet.uav[39] utilizationCountMissions 50
scalar OsgEarthNet.uav[39] utilizationCountManeuversMission 422
scalar OsgEarthNet.uav[39] utilizationCountManeuversMaintenance 100
scalar OsgEarthNet.uav[39] utilizationCountChargeState 50
scalar OsgEarthNet.uav[39] utilizationCountOverdrawnAfterMission 0
scalar OsgEarthNet.uav[39] utilizationCountIdleState 50
scalar OsgEarthNet.uav[39] utilizationFail 0
scalar OsgEarthNet.uav[39] simulationTime 259200
scalar OsgEarthNet.uav[40] utilizationSecMission 443.5870541303
scalar OsgEarthNet.uav[40] utilizationSecMaintenance 425.80795651079
scalar OsgEarthNet.uav[40] utilizationSecCharge 3340
scalar OsgEarthNet.uav[40] utilizationSecIdle 254990.60398936
scalar OsgEarthNet.uav[40] utilizationEnergyMission 2126.8973083496
scalar OsgEarthNet.uav[40] utilizationEnergyMaintenance 1992.2831840515
scalar OsgEarthNet.uav[40] utilizationEnergyCharge 4022.9643554688
scalar OsgEarthNet.uav[40] utilizationEnergyOverdrawMission 0
scalar OsgEarthNet.uav[40] utilizationEnergyOverdrawMaintenance 0
scalar OsgEarthNet.uav[40] utilizationCountMissions 1
scalar OsgEarthNet.uav[40] utilizationCountManeuversMission 7
scalar OsgEarthNet.uav[40] utilizationCountManeuversMaintenance 2
scalar OsgEarthNet.uav[40] utilizationCountChargeState 1
scalar OsgEarthNet.uav[40] utilizationCountOverdrawnAfterMission 0
scalar OsgEarthNet.uav[40] utilizationCountIdleState 2
scalar OsgEarthNet.uav[40] utilizationFail 0
scalar OsgEarthNet.uav[40] simulationTime 259200
scalar OsgEarthNet.uav[41] utilizationSecMission 24984.417511492
scalar OsgEarthNet.uav[41] utilizationSecMaintenance 15048.102528701
scalar OsgEarthNet.uav[41] utilizationSecCharge 158620
scalar OsgEarthNet.uav[41] utilizationSecIdle 60547.478959807
scalar OsgEarthNet.uav[41] utilizationEnergyMission 114929.81134033
scalar OsgEarthNet.uav[41] utilizationEnergyMaintenance 71235.451545715
scalar OsgEarthNet.uav[41] utilizationEnergyCharge 186599.16601562
scalar OsgEarthNet.uav[41] utilizationEnergyOverdrawMission 0
scalar OsgEarthNet.uav[41] utilizationEnergyOverdrawMaintenance 0
scalar OsgEarthNet.uav[41] utilizationCountMissions 51
scalar OsgEarthNet.uav[41] utilizationCountManeuversMission 406
scalar OsgEarthNet.uav[41] utilizationCountManeuversMaintenance 102
scalar OsgEarthNet.uav[41] utilizationCountChargeState 51
scalar OsgEarthNet.uav[41] utilizationCountOverdrawnAfterMission 0
scalar OsgEarthNet.uav[41] utilizationCountIdleState 52
scalar OsgEarthNet.uav[41] utilizationFail 0
scalar OsgEarthNet.uav[41] simulationTime 259200
scalar OsgEarthNet.uav[42] utilizationSecMission 29523.230305982
scalar OsgEarthNet.uav[42] utilizationSecMaintenance 13621.56370411
scalar OsgEarthNet.uav[42] utilizationSecCharge 165970
scalar OsgEarthNet.uav[42] utilizationSecIdle 50085.204989908
scalar OsgEarthNet.uav[42] utilizationEnergyMission 135472.71940231
scalar OsgEarthNet.uav[42] utilizationEnergyMaintenance 63233.434139252
scalar OsgEarthNet.uav[42] utilizationEnergyCharge 197963.1328125
scalar OsgEarthNet.uav[42] utilizationEnergyOverdrawMission 0
scalar OsgEarthNet.uav[42] utilizationEnergyOverdrawMaintenance 0
scalar OsgEarthNet.uav[42] utilizationCountMissions 52
scalar OsgEarthNet.uav[42] utilizationCountManeuversMission 485
scalar OsgEarthNet.uav[42] utilizationCountManeuversMaintenance 104
scalar OsgEarthNet.uav[42] utilizationCountChargeState 52
scalar OsgEarthNet.uav[42] utilizationCountOverdrawnAfterMission 0
scalar OsgEarthNet.uav[42] utilizationCountIdleState 53
scalar OsgEarthNet.uav[42] utilizationFail 0
scalar OsgEarthNet.uav[42] simulationTime 259200
scalar OsgEarthNet.uav[43] utilizationSecMission 18494.902466021
scalar OsgEarthNet.uav[43] utilizationSecMaintenance 13564.74154598
scalar OsgEarthNet.uav[43] utilizationSecCharge 124150
scalar OsgEarthNet.uav[43] utilizationSecIdle 102990.354988
scalar OsgEarthNet.uav[43] utilizationEnergyMission 85226.187744141
scalar OsgEarthNet.uav[43] utilizationEnergyMaintenance 62679.736877441
scalar OsgEarthNet.uav[43] utilizationEnergyCharge 147627.63452148
scalar OsgEarthNet.uav[43] utilizationEnergyOverdrawMission 0
scalar OsgEarthNet.uav[43] utilizationEnergyOverdrawMaintenance 0
scalar OsgEarthNet.uav[43] utilizationCountMissions 39
scalar OsgEarthNet.uav[43] utilizationCountManeuversMission 298
scalar OsgEarthNet.uav[43] utilizationCountManeuversMaintenance 78
scalar OsgEarthNet.uav[43] utilizationCountChargeState 39
scalar OsgEarthNet.uav[43] utilizationCountOverdrawnAfterMission 0
scalar OsgEarthNet.uav[43] utilizationCountIdleState 40
scalar OsgEarthNet.uav[43] utilizationFail 0
scalar OsgEarthNet.uav[43] simulationTime 259200
scalar OsgEarthNet.uav[44] utilizationSecMission 23.329233930829
scalar OsgEarthNet.uav[44] utilizationSecMaintenance 636.50021886036
scalar OsgEarthNet.uav[44] utilizationSecCharge 2820
scalar OsgEarthNet.uav[44] utilizationSecIdle 255720.16954721
scalar OsgEarthNet.uav[44] utilizationEnergyMission 127.33773803711
scalar OsgEarthNet.uav[44] utilizationEnergyMaintenance 3003.6484603882
scalar OsgEarthNet.uav[44] utilizationEnergyCharge 3130.9855957031
scalar OsgEarthNet.uav[44] utilizationEnergyOverdrawMission 0
scalar OsgEarthNet.uav[44] utilizationEnergyOverdrawMaintenance 0
scalar OsgEarthNet.uav[44] utilizationCountMissions 1
scalar OsgEarthNet.uav[44] utilizationCountManeuversMission 1
scalar OsgEarthNet.uav[44] utilizationCountManeuversMaintenance 2
scalar OsgEarthNet.uav[44] utilizationCountChargeState 1
scalar OsgEarthNet.uav[44] utilizationCountOverdrawnAfterMission 0
scalar OsgEarthNet.uav[44] utilizationCountIdleState 2
scalar OsgEarthNet.uav[44] utilizationFail 0
scalar OsgEarthNet.uav[44] simulationTime 259200
scalar OsgEarthNet.uav[45] utilizationSecMission 887.1741082606
scalar OsgEarthNet.uav[45] utilizationSecMaintenance 125.81102573108
scalar OsgEarthNet.uav[45] utilizationSecCharge 3680
scalar OsgEarthNet.uav[45] utilizationSecIdle 254507.01386601
scalar OsgEarthNet.uav[45] utilizationEnergyMission 4034.1267242432
scalar OsgEarthNet.uav[45] utilizationEnergyMaintenance 609.87787628174
scalar OsgEarthNet.uav[45] utilizationEnergyCharge 4583.8916015625
scalar OsgEarthNet.uav[45] utilizationEnergyOverdrawMission 0
scalar OsgEarthNet.uav[45] utilizationEnergyOverdrawMaintenance 0
scalar OsgEarthNet.uav[45] utilizationCountMissions 1
scalar OsgEarthNet.uav[45] utilizationCountManeuversMission 14
scalar OsgEarthNet.uav[45] utilizationCountManeuversMaintenance 2
scalar OsgEarthNet.uav[45] utilizationCountChargeState 1
scalar OsgEarthNet.uav[45] utilizationCountOverdrawnAfterMission 0
scalar OsgEarthNet.uav[45] utilizationCountIdleState 2
scalar OsgEarthNet.uav[45] utilizationFail 0
scalar OsgEarthNet.uav[45] simulationTime 259200
scalar OsgEarthNet.uav[46] utilizationSecMission 23.32923393083
scalar OsgEarthNet.uav[46] utilizationSecMaintenance 584.24089467002
scalar OsgEarthNet.uav[46] utilizationSecCharge 2710
scalar OsgEarthNet.uav[46] utilizationSecIdle 255882.4288714
scalar OsgEarthNet.uav[46] utilizationEnergyMission 118.03678131104
scalar OsgEarthNet.uav[46] utilizationEnergyMaintenance 2831.2237167358
scalar OsgEarthNet.uav[46] utilizationEnergyCharge 2949.2595214844
scalar OsgEarthNet.uav[46] utilizationEnergyOverdrawMission 0
scalar OsgEarthNet.uav[46] utilizationEnergyOverdrawMaintenance 0
scalar OsgEarthNet.uav[46] utilizationCountMissions 1
scalar OsgEarthNet.uav[46] utilizationCountManeuversMission 1
scalar OsgEarthNet.uav[46] utilizationCountManeuversMaintenance 2
scalar OsgEarthNet.uav[46] utilizationCountChargeState 1
scalar OsgEarthNet.uav[46] utilizationCountOverdrawnAfterMission 0
scalar OsgEarthNet.uav[46] utilizationCountIdleState 2
scalar OsgEarthNet.uav[46] utilizationFail 0
scalar OsgEarthNet.uav[46] simulationTime 259200
scalar OsgEarthNet.uav[47] utilizationSecMission 27667.462843127
scalar OsgEarthNet.uav[47] utilizationSecMaintenance 13909.636174645
scalar OsgEarthNet.uav[47] utilizationSecCharge 159099.23180424
scalar OsgEarthNet.uav[47] utilizationSecIdle 58523.668177988
scalar OsgEarthNet.uav[47] utilizationEnergyMission 127604.63935852
scalar OsgEarthNet.uav[47] utilizationEnergyMaintenance 66220.344985962
scalar OsgEarthNet.uav[47] utilizationEnergyCharge 189515.74511719
scalar OsgEarthNet.uav[47] utilizationEnergyOverdrawMission 0
scalar OsgEarthNet.uav[47] utilizationEnergyOverdrawMaintenance 0
scalar OsgEarthNet.uav[47] utilizationCountMissions 51
scalar OsgEarthNet.uav[47] utilizationCountManeuversMission 452
scalar OsgEarthNet.uav[47] utilizationCountManeuversMaintenance 102
scalar OsgEarthNet.uav[47] utilizationCountChargeState 51
scalar OsgEarthNet.uav[47] utilizationCountOverdrawnAfterMission 0
scalar OsgEarthNet.uav[47] utilizationCountIdleState 51
scalar OsgEarthNet.uav[47] utilizationFail 0
scalar OsgEarthNet.uav[47] simulationTime 259200
scalar OsgEarthNet.uav[48] utilizationSecMission 16295.6531171
scalar OsgEarthNet.uav[48] utilizationSecMaintenance 10665.310278302
scalar OsgEarthNet.uav[48] utilizationSecCharge 106430
scalar OsgEarthNet.uav[48] utilizationSecIdle 125809.0356046
scalar OsgEarthNet.uav[48] utilizationEnergyMission 75553.174461365
scalar OsgEarthNet.uav[48] utilizationEnergyMaintenance 50333.054569244
scalar OsgEarthNet.uav[48] utilizationEnergyCharge 125779.88720703
scalar OsgEarthNet.uav[48] utilizationEnergyOverdrawMission 0
scalar OsgEarthNet.uav[48] utilizationEnergyOverdrawMaintenance 0
scalar OsgEarthNet.uav[48] utilizationCountMissions 34
scalar OsgEarthNet.uav[48] utilizationCountManeuversMission 264
scalar OsgEarthNet.uav[48] utilizationCountManeuversMaintenance 68
scalar OsgEarthNet.uav[48] utilizationCountChargeState 34
scalar OsgEarthNet.uav[48] utilizationCountOverdrawnAfterMission 0
scalar OsgEarthNet.uav[48] utilizationCountIdleState 35
scalar OsgEarthNet.uav[48] utilizationFail 0
scalar OsgEarthNet.uav[48] simulationTime 259200
scalar OsgEarthNet.uav[49] utilizationSecMission 19471.382518239
scalar OsgEarthNet.uav[49] utilizationSecMaintenance 11416.712311258
scalar OsgEarthNet.uav[49] utilizationSecCharge 121130
scalar OsgEarthNet.uav[49] utilizationSecIdle 107181.9041705
scalar OsgEarthNet.uav[49] utilizationEnergyMission 89628.948524475
scalar OsgEarthNet.uav[49] utilizationEnergyMaintenance 54148.506942749
scalar OsgEarthNet.uav[49] utilizationEnergyCharge 144229.55493164
scalar OsgEarthNet.uav[49] utilizationEnergyOverdrawMission 0
scalar OsgEarthNet.uav[49] utilizationEnergyOverdrawMaintenance 0
scalar OsgEarthNet.uav[49] utilizationCountMissions 38
scalar OsgEarthNet.uav[49] utilizationCountManeuversMission 324
scalar OsgEarthNet.uav[49] utilizationCountManeuversMaintenance 76
scalar OsgEarthNet.uav[49] utilizationCountChargeState 38
scalar OsgEarthNet.uav[49] utilizationCountOverdrawnAfterMission 0
scalar OsgEarthNet.uav[49] utilizationCountIdleState 39
scalar OsgEarthNet.uav[49] utilizationFail 0
scalar OsgEarthNet.uav[49] simulationTime 259200
scalar OsgEarthNet.uav[50] utilizationSecMission 28352.125867565
scalar OsgEarthNet.uav[50] utilizationSecMaintenance 15167.932959478
scalar OsgEarthNet.uav[50] utilizationSecCharge 169914.3932637
scalar OsgEarthNet.uav[50] utilizationSecIdle 45765.546909258
scalar OsgEarthNet.uav[50] utilizationEnergyMission 130025.04718399
scalar OsgEarthNet.uav[50] utilizationEnergyMaintenance 70850.33770752
scalar OsgEarthNet.uav[50] utilizationEnergyCharge 200843.66943359
scalar OsgEarthNet.uav[50] utilizationEnergyOverdrawMission 0
scalar OsgEarthNet.uav[50] utilizationEnergyOverdrawMaintenance 0
scalar OsgEarthNet.uav[50] utilizationCountMissions 55
scalar OsgEarthNet.uav[50] utilizationCountManeuversMission 466
scalar OsgEarthNet.uav[50] utilizationCountManeuversMaintenance 110
scalar OsgEarthNet.uav[50] utilizationCountChargeState 55
scalar OsgEarthNet.uav[50] utilizationCountOverdrawnAfterMission 0
scalar OsgEarthNet.uav[50] utilizationCountIdleState 55
scalar OsgEarthNet.uav[50] utilizationFail 0
scalar OsgEarthNet.uav[50] simulationTime 259200
scalar OsgEarthNet.uav[51] utilizationSecMission 301.50602773369
scalar OsgEarthNet.uav[51] utilizationSecMaintenance 206.19350838146
scalar OsgEarthNet.uav[51] utilizationSecCharge 2410
scalar OsgEarthNet.uav[51] utilizationSecIdle 256282.29946388
scalar OsgEarthNet.uav[51] utilizationEnergyMission 1414.9767608643
scalar OsgEarthNet.uav[51] utilizationEnergyMaintenance 1038.5625534058
scalar OsgEarthNet.uav[51] utilizationEnergyCharge 2418.818359375
scalar OsgEarthNet.uav[51] utilizationEnergyOverdrawMission 0
scalar OsgEarthNet.uav[51] utilizationEnergyOverdrawMaintenance 0
scalar OsgEarthNet.uav[51] utilizationCountMissions 1
scalar OsgEarthNet.uav[51] utilizationCountManeuversMission 6
scalar OsgEarthNet.uav[51] utilizationCountManeuversMaintenance 2
scalar OsgEarthNet.uav[51] utilizationCountChargeState 1
scalar OsgEarthNet.uav[51] utilizationCountOverdrawnAfterMission 0
scalar OsgEarthNet.uav[51] utilizationCountIdleState 2
scalar OsgEarthNet.uav[51] utilizationFail 0
scalar OsgEarthNet.uav[51] simulationTime 259200
scalar OsgEarthNet.uav[52] utilizationSecMission 23715.601708381
scalar OsgEarthNet.uav[52] utilizationSecMaintenance 11770.893192372
scalar OsgEarthNet.uav[52] utilizationSecCharge 135389.49602042
scalar OsgEarthNet.uav[52] utilizationSecIdle 88324.008078826
scalar OsgEarthNet.uav[52] utilizationEnergyMission 110558.71934509
scalar OsgEarthNet.uav[52] utilizationEnergyMaintenance 55367.93006897
scalar OsgEarthNet.uav[52] utilizationEnergyCharge 161913.38769531
scalar OsgEarthNet.uav[52] utilizationEnergyOverdrawMission 0
scalar OsgEarthNet.uav[52] utilizationEnergyOverdrawMaintenance 0
scalar OsgEarthNet.uav[52] utilizationCountMissions 43
scalar OsgEarthNet.uav[52] utilizationCountManeuversMission 400
scalar OsgEarthNet.uav[52] utilizationCountManeuversMaintenance 86
scalar OsgEarthNet.uav[52] utilizationCountChargeState 43
scalar OsgEarthNet.uav[52] utilizationCountOverdrawnAfterMission 0
scalar OsgEarthNet.uav[52] utilizationCountIdleState 43
scalar OsgEarthNet.uav[52] utilizationFail 0
scalar OsgEarthNet.uav[52] simulationTime 259200
scalar OsgEarthNet.uav[53] utilizationSecMission 1283.6322722018
scalar OsgEarthNet.uav[53] utilizationSecMaintenance 439.838274008
scalar OsgEarthNet.uav[53] utilizationSecCharge 6610
scalar OsgEarthNet.uav[53] utilizationSecIdle 250866.52845379
scalar OsgEarthNet.uav[53] utilizationEnergyMission 5897.749710083
scalar OsgEarthNet.uav[53] utilizationEnergyMaintenance 2106.2127304077
scalar OsgEarthNet.uav[53] utilizationEnergyCharge 7990.193359375
scalar OsgEarthNet.uav[53] utilizationEnergyOverdrawMission 0
scalar OsgEarthNet.uav[53] utilizationEnergyOverdrawMaintenance 0
scalar OsgEarthNet.uav[53] utilizationCountMissions 2
scalar OsgEarthNet.uav[53] utilizationCountManeuversMission 19
scalar OsgEarthNet.uav[53] utilizationCountManeuversMaintenance 4
scalar OsgEarthNet.uav[53] utilizationCountChargeState 2
scalar OsgEarthNet.uav[53] utilizationCountOverdrawnAfterMission 0
scalar OsgEarthNet.uav[53] utilizationCountIdleState 3
scalar OsgEarthNet.uav[53] utilizationFail 0
scalar OsgEarthNet.uav[53] simulationTime 259200
scalar OsgEarthNet.uav[54] utilizationSecMission 27133.777558479
scalar OsgEarthNet.uav[54] utilizationSecMaintenance 13628.81155017
scalar OsgEarthNet.uav[54] utilizationSecCharge 160100
scalar OsgEarthNet.uav[54] utilizationSecIdle 58337.40989135
scalar OsgEarthNet.uav[54] utilizationEnergyMission 124867.34651489
scalar OsgEarthNet.uav[54] utilizationEnergyMaintenance 63699.501544952
scalar OsgEarthNet.uav[54] utilizationEnergyCharge 187369.83032227
scalar OsgEarthNet.uav[54] utilizationEnergyOverdrawMission 0
scalar OsgEarthNet.uav[54] utilizationEnergyOverdrawMaintenance 0
scalar OsgEarthNet.uav[54] utilizationCountMissions 52
scalar OsgEarthNet.uav[54] utilizationCountManeuversMission 458
scalar OsgEarthNet.uav[54] utilizationCountManeuversMaintenance 105
scalar OsgEarthNet.uav[54] utilizationCountChargeState 52
scalar OsgEarthNet.uav[54] utilizationCountOverdrawnAfterMission 0
scalar OsgEarthNet.uav[54] utilizationCountIdleState 53
scalar OsgEarthNet.uav[54] utilizationFail 0
scalar OsgEarthNet.uav[54] simulationTime 259200
scalar OsgEarthNet.uav[55] utilizationSecMission 3793.2822458944
scalar OsgEarthNet.uav[55] utilizationSecMaintenance 1705.9651074314
scalar OsgEarthNet.uav[55] utilizationSecCharge 21610
scalar OsgEarthNet.uav[55] utilizationSecIdle 232090.75164667
scalar OsgEarthNet.uav[55] utilizationEnergyMission 17572.274475098
scalar OsgEarthNet.uav[55] utilizationEnergyMaintenance 7856.7430305481
scalar OsgEarthNet.uav[55] utilizationEnergyCharge 25288.384521484
scalar OsgEarthNet.uav[55] utilizationEnergyOverdrawMission 0
scalar OsgEarthNet.uav[55] utilizationEnergyOverdrawMaintenance 0
scalar OsgEarthNet.uav[55] utilizationCountMissions 7
scalar OsgEarthNet.uav[55] utilizationCountManeuversMission 59
scalar OsgEarthNet.uav[55] utilizationCountManeuversMaintenance 14
scalar OsgEarthNet.uav[55] utilizationCountChargeState 7
scalar OsgEarthNet.uav[55] utilizationCountOverdrawnAfterMission 0
scalar OsgEarthNet.uav[55] utilizationCountIdleState 8
scalar OsgEarthNet.uav[55] utilizationFail 0
scalar OsgEarthNet.uav[55] simulationTime 259200
scalar OsgEarthNet.uav[56] utilizationSecMission 22016.238903242
scalar OsgEarthNet.uav[56] utilizationSecMaintenance 12802.143906576
scalar OsgEarthNet.uav[56] utilizationSecCharge 139200
scalar OsgEarthNet.uav[56] utilizationSecIdle 85181.616190182
scalar OsgEarthNet.uav[56] utilizationEnergyMission 102637.15393448
scalar OsgEarthNet.uav[56] utilizationEnergyMaintenance 61377.457931519
scalar OsgEarthNet.uav[56] utilizationEnergyCharge 163692.49804688
scalar OsgEarthNet.uav[56] utilizationEnergyOverdrawMission 0
scalar OsgEarthNet.uav[56] utilizationEnergyOverdrawMaintenance 0
scalar OsgEarthNet.uav[56] utilizationCountMissions 45
scalar OsgEarthNet.uav[56] utilizationCountManeuversMission 349
scalar OsgEarthNet.uav[56] utilizationCountManeuversMaintenance 90
scalar OsgEarthNet.uav[56] utilizationCountChargeState 45
scalar OsgEarthNet.uav[56] utilizationCountOverdrawnAfterMission 0
scalar OsgEarthNet.uav[56] utilizationCountIdleState 46
scalar OsgEarthNet.uav[56] utilizationFail 0
scalar OsgEarthNet.uav[56] simulationTime 259200
scalar OsgEarthNet.uav[57] utilizationSecMission 26886.930781277
scalar OsgEarthNet.uav[57] utilizationSecMaintenance 11595.489365747
scalar OsgEarthNet.uav[57] utilizationSecCharge 152970
scalar OsgEarthNet.uav[57] utilizationSecIdle 67747.578852976
scalar OsgEarthNet.uav[57] utilizationEnergyMission 125216.07468033
scalar OsgEarthNet.uav[57] utilizationEnergyMaintenance 55197.533397675
scalar OsgEarthNet.uav[57] utilizationEnergyCharge 180459.51831055
scalar OsgEarthNet.uav[57] utilizationEnergyOverdrawMission 0
scalar OsgEarthNet.uav[57] utilizationEnergyOverdrawMaintenance 0
scalar OsgEarthNet.uav[57] utilizationCountMissions 49
scalar OsgEarthNet.uav[57] utilizationCountManeuversMission 438
scalar OsgEarthNet.uav[57] utilizationCountManeuversMaintenance 98
scalar OsgEarthNet.uav[57] utilizationCountChargeState 49
scalar OsgEarthNet.uav[57] utilizationCountOverdrawnAfterMission 0
scalar OsgEarthNet.uav[57] utilizationCountIdleState 50
scalar OsgEarthNet.uav[57] utilizationFail 0
scalar OsgEarthNet.uav[57] simulationTime 259200
scalar OsgEarthNet.uav[58] utilizationSecMission 12803.814368755
scalar OsgEarthNet.uav[58] utilizationSecMaintenance 6146.5995099503
scalar OsgEarthNet.uav[58] utilizationSecCharge 75430
scalar OsgEarthNet.uav[58] utilizationSecIdle 164819.5851213
scalar OsgEarthNet.uav[58] utilizationEnergyMission 58783.770042419
scalar OsgEarthNet.uav[58] utilizationEnergyMaintenance 28903.094184875
scalar OsgEarthNet.uav[58] utilizationEnergyCharge 87481.549804688
scalar OsgEarthNet.uav[58] utilizationEnergyOverdrawMission 0
scalar OsgEarthNet.uav[58] utilizationEnergyOverdrawMaintenance 0
scalar OsgEarthNet.uav[58] utilizationCountMissions 25
scalar OsgEarthNet.uav[58] utilizationCountManeuversMission 207
scalar OsgEarthNet.uav[58] utilizationCountManeuversMaintenance 50
scalar OsgEarthNet.uav[58] utilizationCountChargeState 25
scalar OsgEarthNet.uav[58] utilizationCountOverdrawnAfterMission 0
scalar OsgEarthNet.uav[58] utilizationCountIdleState 26
scalar OsgEarthNet.uav[58] utilizationFail 0
scalar OsgEarthNet.uav[58] simulationTime 259200
scalar OsgEarthNet.uav[59] utilizationSecMission 23.32923393083
scalar OsgEarthNet.uav[59] utilizationSecMaintenance 584.24089467002
scalar OsgEarthNet.uav[59] utilizationSecCharge 2820
scalar OsgEarthNet.uav[59] utilizationSecIdle 255772.4288714
scalar OsgEarthNet.uav[59] utilizationEnergyMission 60.179561614991
scalar OsgEarthNet.uav[59] utilizationEnergyMaintenance 3078.2236251831
scalar OsgEarthNet.uav[59] utilizationEnergyCharge 3138.4069824219
scalar OsgEarthNet.uav[59] utilizationEnergyOverdrawMission 0
scalar OsgEarthNet.uav[59] utilizationEnergyOverdrawMaintenance 0
scalar OsgEarthNet.uav[59] utilizationCountMissions 1
scalar OsgEarthNet.uav[59] utilizationCountManeuversMission 1
scalar OsgEarthNet.uav[59] utilizationCountManeuversMaintenance 2
scalar OsgEarthNet.uav[59] utilizationCountChargeState 1
scalar OsgEarthNet.uav[59] utilizationCountOverdrawnAfterMission 0
scalar OsgEarthNet.uav[59] utilizationCountIdleState 2
scalar OsgEarthNet.uav[59] utilizationFail 0
scalar OsgEarthNet.uav[59] simulationTime 259200
scalar OsgEarthNet.uav[60] utilizationSecMission 27631.246975842
scalar OsgEarthNet.uav[60] utilizationSecMaintenance 16098.14300314
scalar OsgEarthNet.uav[60] utilizationSecCharge 170648.60902102
scalar OsgEarthNet.uav[60] utilizationSecIdle 44822
scalar OsgEarthNet.uav[60] utilizationEnergyMission 128538.20982742
scalar OsgEarthNet.uav[60] utilizationEnergyMaintenance 76732.482963562
scalar OsgEarthNet.uav[60] utilizationEnergyCharge 204052.92529297
scalar OsgEarthNet.uav[60] utilizationEnergyOverdrawMission 0
scalar OsgEarthNet.uav[60] utilizationEnergyOverdrawMaintenance 0
scalar OsgEarthNet.uav[60] utilizationCountMissions 54
scalar OsgEarthNet.uav[60] utilizationCountManeuversMission 448
scalar OsgEarthNet.uav[60] utilizationCountManeuversMaintenance 107
scalar OsgEarthNet.uav[60] utilizationCountChargeState 54
scalar OsgEarthNet.uav[60] utilizationCountOverdrawnAfterMission 0
scalar OsgEarthNet.uav[60] utilizationCountIdleState 54
scalar OsgEarthNet.uav[60] utilizationFail 0
scalar OsgEarthNet.uav[60] simulationTime 259200
scalar OsgEarthNet.uav[61] utilizationSecMission 21922.645601698
scalar OsgEarthNet.uav[61] utilizationSecMaintenance 12484.243834236
scalar OsgEarthNet.uav[61] utilizationSecCharge 133624.43377977
scalar OsgEarthNet.uav[61] utilizationSecIdle 91168.6757843
scalar OsgEarthNet.uav[61] utilizationEnergyMission 101027.42685699
scalar OsgEarthNet.uav[61] utilizationEnergyMaintenance 57971.310703278
scalar OsgEarthNet.uav[61] utilizationEnergyCharge 159410.07666016
scalar OsgEarthNet.uav[61] utilizationEnergyOverdrawMission 0
scalar OsgEarthNet.uav[61] utilizationEnergyOverdrawMaintenance 0
scalar OsgEarthNet.uav[61] utilizationCountMissions 42
scalar OsgEarthNet.uav[61] utilizationCountManeuversMission 367
scalar OsgEarthNet.uav[61] utilizationCountManeuversMaintenance 84
scalar OsgEarthNet.uav[61] utilizationCountChargeState 42
scalar OsgEarthNet.uav[61] utilizationCountOverdrawnAfterMission 0
scalar OsgEarthNet.uav[61] utilizationCountIdleState 42
scalar OsgEarthNet.uav[61] utilizationFail 0
scalar OsgEarthNet.uav[61] simulationTime 259200
scalar OsgEarthNet.uav[62] utilizationSecMission 694.00169469977
scalar OsgEarthNet.uav[62] utilizationSecMaintenance 229.48898285212
scalar OsgEarthNet.uav[62] utilizationSecCharge 3680
scalar OsgEarthNet.uav[62] utilizationSecIdle 254596.50832245
scalar OsgEarthNet.uav[62] utilizationEnergyMission 3454.4893798828
scalar OsgEarthNet.uav[62] utilizationEnergyMaintenance 1154.7443771362
scalar OsgEarthNet.uav[62] utilizationEnergyCharge 4592.31640625
scalar OsgEarthNet.uav[62] utilizationEnergyOverdrawMission 0
scalar OsgEarthNet.uav[62] utilizationEnergyOverdrawMaintenance 0
scalar OsgEarthNet.uav[62] utilizationCountMissions 1
scalar OsgEarthNet.uav[62] utilizationCountManeuversMission 13
scalar OsgEarthNet.uav[62] utilizationCountManeuversMaintenance 2
scalar OsgEarthNet.uav[62] utilizationCountChargeState 1
scalar OsgEarthNet.uav[62] utilizationCountOverdrawnAfterMission 0
scalar OsgEarthNet.uav[62] utilizationCountIdleState 2
scalar OsgEarthNet.uav[62] utilizationFail 0
scalar OsgEarthNet.uav[62] simulationTime 259200
scalar OsgEarthNet.uav[63] utilizationSecMission 23.32923393083
scalar OsgEarthNet.uav[63] utilizationSecMaintenance 574.24089467002
scalar OsgEarthNet.uav[63] utilizationSecCharge 2600
scalar OsgEarthNet.uav[63] utilizationSecIdle 256002.4288714
scalar OsgEarthNet.uav[63] utilizationEnergyMission 131.17080688477
scalar OsgEarthNet.uav[63] utilizationEnergyMaintenance 2656.5088005066
scalar OsgEarthNet.uav[63] utilizationEnergyCharge 2787.6823730469
scalar OsgEarthNet.uav[63] utilizationEnergyOverdrawMission 0
scalar OsgEarthNet.uav[63] utilizationEnergyOverdrawMaintenance 0
scalar OsgEarthNet.uav[63] utilizationCountMissions 1
scalar OsgEarthNet.uav[63] utilizationCountManeuversMission 1
scalar OsgEarthNet.uav[63] utilizationCountManeuversMaintenance 2
scalar OsgEarthNet.uav[63] utilizationCountChargeState 1
scalar OsgEarthNet.uav[63] utilizationCountOverdrawnAfterMission 0
scalar OsgEarthNet.uav[63] utilizationCountIdleState 2
scalar OsgEarthNet.uav[63] utilizationFail 0
scalar OsgEarthNet.uav[63] simulationTime 259200
scalar OsgEarthNet.uav[64] utilizationSecMission 23.329233930829
scalar OsgEarthNet.uav[64] utilizationSecMaintenance 476.50021886036
scalar OsgEarthNet.uav[64] utilizationSecCharge 2400
scalar OsgEarthNet.uav[64] utilizationSecIdle 256300.16954721
scalar OsgEarthNet.uav[64] utilizationEnergyMission 162.12017822265
scalar OsgEarthNet.uav[64] utilizationEnergyMaintenance 2253.142326355
scalar OsgEarthNet.uav[64] utilizationEnergyCharge 2415.2595214844
scalar OsgEarthNet.uav[64] utilizationEnergyOverdrawMission 0
scalar OsgEarthNet.uav[64] utilizationEnergyOverdrawMaintenance 0
scalar OsgEarthNet.uav[64] utilizationCountMissions 1
scalar OsgEarthNet.uav[64] utilizationCountManeuversMission 1
scalar OsgEarthNet.uav[64] utilizationCountManeuversMaintenance 2
scalar OsgEarthNet.uav[64] utilizationCountChargeState 1
scalar OsgEarthNet.uav[64] utilizationCountOverdrawnAfterMission 0
scalar OsgEarthNet.uav[64] utilizationCountIdleState 2
scalar OsgEarthNet.uav[64] utilizationFail 0
scalar OsgEarthNet.uav[64] simulationTime 259200
scalar OsgEarthNet.uav[65] utilizationSecMission 570.98871244881
scalar OsgEarthNet.uav[65] utilizationSecMaintenance 295.50253239167
scalar OsgEarthNet.uav[65] utilizationSecCharge 3590
scalar OsgEarthNet.uav[65] utilizationSecIdle 254743.50775516
scalar OsgEarthNet.uav[65] utilizationEnergyMission 3152.7144470215
[...]
scalar OsgEarthNet.uav[82] utilizationSecCharge 3640
scalar OsgEarthNet.uav[82] utilizationSecIdle 254547.01386601
scalar OsgEarthNet.uav[82] utilizationEnergyMission 4041.7386627197
scalar OsgEarthNet.uav[82] utilizationEnergyMaintenance 579.28829193115
scalar OsgEarthNet.uav[82] utilizationEnergyCharge 4503.830078125
scalar OsgEarthNet.uav[82] utilizationEnergyOverdrawMission 0
scalar OsgEarthNet.uav[82] utilizationEnergyOverdrawMaintenance 0
scalar OsgEarthNet.uav[82] utilizationCountMissions 1
scalar OsgEarthNet.uav[82] utilizationCountManeuversMission 14
scalar OsgEarthNet.uav[82] utilizationCountManeuversMaintenance 2
scalar OsgEarthNet.uav[82] utilizationCountChargeState 1
scalar OsgEarthNet.uav[82] utilizationCountOverdrawnAfterMission 0
scalar OsgEarthNet.uav[82] utilizationCountIdleState 2
scalar OsgEarthNet.uav[82] utilizationFail 0
scalar OsgEarthNet.uav[82] simulationTime 259200
scalar OsgEarthNet.uav[83] utilizationSecMission 443.5870541303
scalar OsgEarthNet.uav[83] utilizationSecMaintenance 425.80795651079
scalar OsgEarthNet.uav[83] utilizationSecCharge 3350
scalar OsgEarthNet.uav[83] utilizationSecIdle 254980.60398936
scalar OsgEarthNet.uav[83] utilizationEnergyMission 2155.4259643555
scalar OsgEarthNet.uav[83] utilizationEnergyMaintenance 1949.4868278503
scalar OsgEarthNet.uav[83] utilizationEnergyCharge 4072.0278320312
scalar OsgEarthNet.uav[83] utilizationEnergyOverdrawMission 0
scalar OsgEarthNet.uav[83] utilizationEnergyOverdrawMaintenance 0
scalar OsgEarthNet.uav[83] utilizationCountMissions 1
scalar OsgEarthNet.uav[83] utilizationCountManeuversMission 7
scalar OsgEarthNet.uav[83] utilizationCountManeuversMaintenance 2
scalar OsgEarthNet.uav[83] utilizationCountChargeState 1
scalar OsgEarthNet.uav[83] utilizationCountOverdrawnAfterMission 0
scalar OsgEarthNet.uav[83] utilizationCountIdleState 2
scalar OsgEarthNet.uav[83] utilizationFail 0
scalar OsgEarthNet.uav[83] simulationTime 259200
scalar OsgEarthNet.uav[84] utilizationSecMission 23.329233930829
scalar OsgEarthNet.uav[84] utilizationSecMaintenance 626.50021886036
scalar OsgEarthNet.uav[84] utilizationSecCharge 2760
scalar OsgEarthNet.uav[84] utilizationSecIdle 255790.16954721
scalar OsgEarthNet.uav[84] utilizationEnergyMission 82.013031005858
scalar OsgEarthNet.uav[84] utilizationEnergyMaintenance 2979.792339325
scalar OsgEarthNet.uav[84] utilizationEnergyCharge 3061.8039550781
scalar OsgEarthNet.uav[84] utilizationEnergyOverdrawMission 0
scalar OsgEarthNet.uav[84] utilizationEnergyOverdrawMaintenance 0
scalar OsgEarthNet.uav[84] utilizationCountMissions 1
scalar OsgEarthNet.uav[84] utilizationCountManeuversMission 1
scalar OsgEarthNet.uav[84] utilizationCountManeuversMaintenance 2
scalar OsgEarthNet.uav[84] utilizationCountChargeState 1
scalar OsgEarthNet.uav[84] utilizationCountOverdrawnAfterMission 0
scalar OsgEarthNet.uav[84] utilizationCountIdleState 2
scalar OsgEarthNet.uav[84] utilizationFail 0
scalar OsgEarthNet.uav[84] simulationTime 259200
scalar OsgEarthNet.uav[85] utilizationSecMission 31756.964258125
scalar OsgEarthNet.uav[85] utilizationSecMaintenance 13022.883513775
scalar OsgEarthNet.uav[85] utilizationSecCharge 170950
scalar OsgEarthNet.uav[85] utilizationSecIdle 43470.1512281
scalar OsgEarthNet.uav[85] utilizationEnergyMission 146756.66582433
scalar OsgEarthNet.uav[85] utilizationEnergyMaintenance 60488.155971527
scalar OsgEarthNet.uav[85] utilizationEnergyCharge 206492.91870117
scalar OsgEarthNet.uav[85] utilizationEnergyOverdrawMission 0
scalar OsgEarthNet.uav[85] utilizationEnergyOverdrawMaintenance 0
scalar OsgEarthNet.uav[85] utilizationCountMissions 52
scalar OsgEarthNet.uav[85] utilizationCountManeuversMission 504
scalar OsgEarthNet.uav[85] utilizationCountManeuversMaintenance 103
scalar OsgEarthNet.uav[85] utilizationCountChargeState 52
scalar OsgEarthNet.uav[85] utilizationCountOverdrawnAfterMission 0
scalar OsgEarthNet.uav[85] utilizationCountIdleState 53
scalar OsgEarthNet.uav[85] utilizationFail 0
scalar OsgEarthNet.uav[85] simulationTime 259200
scalar OsgEarthNet.uav[86] utilizationSecMission 760.62515258028
scalar OsgEarthNet.uav[86] utilizationSecMaintenance 245.74410321072
scalar OsgEarthNet.uav[86] utilizationSecCharge 3680
scalar OsgEarthNet.uav[86] utilizationSecIdle 254513.62974421
scalar OsgEarthNet.uav[86] utilizationEnergyMission 3539.4968414307
scalar OsgEarthNet.uav[86] utilizationEnergyMaintenance 1125.2168998718
scalar OsgEarthNet.uav[86] utilizationEnergyCharge 4664.7109375
scalar OsgEarthNet.uav[86] utilizationEnergyOverdrawMission 0
scalar OsgEarthNet.uav[86] utilizationEnergyOverdrawMaintenance 0
scalar OsgEarthNet.uav[86] utilizationCountMissions 1
scalar OsgEarthNet.uav[86] utilizationCountManeuversMission 12
scalar OsgEarthNet.uav[86] utilizationCountManeuversMaintenance 2
scalar OsgEarthNet.uav[86] utilizationCountChargeState 1
scalar OsgEarthNet.uav[86] utilizationCountOverdrawnAfterMission 0
scalar OsgEarthNet.uav[86] utilizationCountIdleState 2
scalar OsgEarthNet.uav[86] utilizationFail 0
scalar OsgEarthNet.uav[86] simulationTime 259200
scalar OsgEarthNet.uav[87] utilizationSecMission 4054.2179923308
scalar OsgEarthNet.uav[87] utilizationSecMaintenance 1742.6880048437
scalar OsgEarthNet.uav[87] utilizationSecCharge 22590
scalar OsgEarthNet.uav[87] utilizationSecIdle 230813.09300283
scalar OsgEarthNet.uav[87] utilizationEnergyMission 18514.855537415
scalar OsgEarthNet.uav[87] utilizationEnergyMaintenance 8505.2095031738
scalar OsgEarthNet.uav[87] utilizationEnergyCharge 27048.885009766
scalar OsgEarthNet.uav[87] utilizationEnergyOverdrawMission 0
scalar OsgEarthNet.uav[87] utilizationEnergyOverdrawMaintenance 0
scalar OsgEarthNet.uav[87] utilizationCountMissions 7
scalar OsgEarthNet.uav[87] utilizationCountManeuversMission 67
scalar OsgEarthNet.uav[87] utilizationCountManeuversMaintenance 14
scalar OsgEarthNet.uav[87] utilizationCountChargeState 7
scalar OsgEarthNet.uav[87] utilizationCountOverdrawnAfterMission 0
scalar OsgEarthNet.uav[87] utilizationCountIdleState 8
scalar OsgEarthNet.uav[87] utilizationFail 0
scalar OsgEarthNet.uav[87] simulationTime 259200
scalar OsgEarthNet.uav[88] utilizationSecMission 27226.454705698
scalar OsgEarthNet.uav[88] utilizationSecMaintenance 14150.154604901
scalar OsgEarthNet.uav[88] utilizationSecCharge 160650
scalar OsgEarthNet.uav[88] utilizationSecIdle 57173.389689401
scalar OsgEarthNet.uav[88] utilizationEnergyMission 125650.38535309
scalar OsgEarthNet.uav[88] utilizationEnergyMaintenance 66699.089065552
scalar OsgEarthNet.uav[88] utilizationEnergyCharge 192143.65014648
scalar OsgEarthNet.uav[88] utilizationEnergyOverdrawMission 0
scalar OsgEarthNet.uav[88] utilizationEnergyOverdrawMaintenance 0
scalar OsgEarthNet.uav[88] utilizationCountMissions 50
scalar OsgEarthNet.uav[88] utilizationCountManeuversMission 430
scalar OsgEarthNet.uav[88] utilizationCountManeuversMaintenance 100
scalar OsgEarthNet.uav[88] utilizationCountChargeState 50
scalar OsgEarthNet.uav[88] utilizationCountOverdrawnAfterMission 0
scalar OsgEarthNet.uav[88] utilizationCountIdleState 51
scalar OsgEarthNet.uav[88] utilizationFail 0
scalar OsgEarthNet.uav[88] simulationTime 259200
scalar OsgEarthNet.uav[89] utilizationSecMission 52.985382275403
scalar OsgEarthNet.uav[89] utilizationSecMaintenance 698.66126345834
scalar OsgEarthNet.uav[89] utilizationSecCharge 3070
scalar OsgEarthNet.uav[89] utilizationSecIdle 255378.35235427
scalar OsgEarthNet.uav[89] utilizationEnergyMission 233.32484436035
scalar OsgEarthNet.uav[89] utilizationEnergyMaintenance 3307.2076683044
scalar OsgEarthNet.uav[89] utilizationEnergyCharge 3540.533203125
scalar OsgEarthNet.uav[89] utilizationEnergyOverdrawMission 0
scalar OsgEarthNet.uav[89] utilizationEnergyOverdrawMaintenance 0
scalar OsgEarthNet.uav[89] utilizationCountMissions 1
scalar OsgEarthNet.uav[89] utilizationCountManeuversMission 1
scalar OsgEarthNet.uav[89] utilizationCountManeuversMaintenance 2
scalar OsgEarthNet.uav[89] utilizationCountChargeState 1
scalar OsgEarthNet.uav[89] utilizationCountOverdrawnAfterMission 0
scalar OsgEarthNet.uav[89] utilizationCountIdleState 2
scalar OsgEarthNet.uav[89] utilizationFail 0
scalar OsgEarthNet.uav[89] simulationTime 259200
scalar OsgEarthNet.uav[90] utilizationSecMission 443.5870541303
scalar OsgEarthNet.uav[90] utilizationSecMaintenance 425.80795651079
scalar OsgEarthNet.uav[90] utilizationSecCharge 3430
scalar OsgEarthNet.uav[90] utilizationSecIdle 254900.60398936
scalar OsgEarthNet.uav[90] utilizationEnergyMission 2042.0758056641
scalar OsgEarthNet.uav[90] utilizationEnergyMaintenance 1988.1734733582
scalar OsgEarthNet.uav[90] utilizationEnergyCharge 4194.1596679688
scalar OsgEarthNet.uav[90] utilizationEnergyOverdrawMission 0
scalar OsgEarthNet.uav[90] utilizationEnergyOverdrawMaintenance 0
scalar OsgEarthNet.uav[90] utilizationCountMissions 1
scalar OsgEarthNet.uav[90] utilizationCountManeuversMission 7
scalar OsgEarthNet.uav[90] utilizationCountManeuversMaintenance 2
scalar OsgEarthNet.uav[90] utilizationCountChargeState 1
scalar OsgEarthNet.uav[90] utilizationCountOverdrawnAfterMission 0
scalar OsgEarthNet.uav[90] utilizationCountIdleState 2
scalar OsgEarthNet.uav[90] utilizationFail 0
scalar OsgEarthNet.uav[90] simulationTime 259200
scalar OsgEarthNet.uav[91] utilizationSecMission 9207.9832542671
scalar OsgEarthNet.uav[91] utilizationSecMaintenance 5349.9608686697
scalar OsgEarthNet.uav[91] utilizationSecCharge 57870
scalar OsgEarthNet.uav[91] utilizationSecIdle 186772.05487706
scalar OsgEarthNet.uav[91] utilizationEnergyMission 42968.172828674
scalar OsgEarthNet.uav[91] utilizationEnergyMaintenance 24632.20753479
scalar OsgEarthNet.uav[91] utilizationEnergyCharge 67390.9921875
scalar OsgEarthNet.uav[91] utilizationEnergyOverdrawMission 0
scalar OsgEarthNet.uav[91] utilizationEnergyOverdrawMaintenance 0
scalar OsgEarthNet.uav[91] utilizationCountMissions 19
scalar OsgEarthNet.uav[91] utilizationCountManeuversMission 147
scalar OsgEarthNet.uav[91] utilizationCountManeuversMaintenance 38
scalar OsgEarthNet.uav[91] utilizationCountChargeState 19
scalar OsgEarthNet.uav[91] utilizationCountOverdrawnAfterMission 0
scalar OsgEarthNet.uav[91] utilizationCountIdleState 20
scalar OsgEarthNet.uav[91] utilizationFail 0
scalar OsgEarthNet.uav[91] simulationTime 259200
scalar OsgEarthNet.uav[92] utilizationSecMission 8304.8729420306
scalar OsgEarthNet.uav[92] utilizationSecMaintenance 2989.2793852972
scalar OsgEarthNet.uav[92] utilizationSecCharge 42620
scalar OsgEarthNet.uav[92] utilizationSecIdle 205285.84667267
scalar OsgEarthNet.uav[92] utilizationEnergyMission 38042.626899719
scalar OsgEarthNet.uav[92] utilizationEnergyMaintenance 13376.411319733
scalar OsgEarthNet.uav[92] utilizationEnergyCharge 51509.169433594
scalar OsgEarthNet.uav[92] utilizationEnergyOverdrawMission 0
scalar OsgEarthNet.uav[92] utilizationEnergyOverdrawMaintenance 0
scalar OsgEarthNet.uav[92] utilizationCountMissions 13
scalar OsgEarthNet.uav[92] utilizationCountManeuversMission 135
scalar OsgEarthNet.uav[92] utilizationCountManeuversMaintenance 26
scalar OsgEarthNet.uav[92] utilizationCountChargeState 13
scalar OsgEarthNet.uav[92] utilizationCountOverdrawnAfterMission 0
scalar OsgEarthNet.uav[92] utilizationCountIdleState 14
scalar OsgEarthNet.uav[92] utilizationFail 0
scalar OsgEarthNet.uav[92] simulationTime 259200
scalar OsgEarthNet.uav[93] utilizationSecMission 31916.647473482
scalar OsgEarthNet.uav[93] utilizationSecMaintenance 13849.732223828
scalar OsgEarthNet.uav[93] utilizationSecCharge 172951.61930269
scalar OsgEarthNet.uav[93] utilizationSecIdle 40482
scalar OsgEarthNet.uav[93] utilizationEnergyMission 147351.38150438
scalar OsgEarthNet.uav[93] utilizationEnergyMaintenance 64486.969783783
scalar OsgEarthNet.uav[93] utilizationEnergyCharge 208507.73669434
scalar OsgEarthNet.uav[93] utilizationEnergyOverdrawMission 0
scalar OsgEarthNet.uav[93] utilizationEnergyOverdrawMaintenance 0
scalar OsgEarthNet.uav[93] utilizationCountMissions 54
scalar OsgEarthNet.uav[93] utilizationCountManeuversMission 529
scalar OsgEarthNet.uav[93] utilizationCountManeuversMaintenance 107
scalar OsgEarthNet.uav[93] utilizationCountChargeState 54
scalar OsgEarthNet.uav[93] utilizationCountOverdrawnAfterMission 0
scalar OsgEarthNet.uav[93] utilizationCountIdleState 54
scalar OsgEarthNet.uav[93] utilizationFail 0
scalar OsgEarthNet.uav[93] simulationTime 259200
scalar OsgEarthNet.uav[94] utilizationSecMission 22079.909682542
scalar OsgEarthNet.uav[94] utilizationSecMaintenance 10536.09895805
scalar OsgEarthNet.uav[94] utilizationSecCharge 125830
scalar OsgEarthNet.uav[94] utilizationSecIdle 100753.99035941
scalar OsgEarthNet.uav[94] utilizationEnergyMission 102973.05018107
scalar OsgEarthNet.uav[94] utilizationEnergyMaintenance 49155.864639282
scalar OsgEarthNet.uav[94] utilizationEnergyCharge 148933.31225586
scalar OsgEarthNet.uav[94] utilizationEnergyOverdrawMission 0
scalar OsgEarthNet.uav[94] utilizationEnergyOverdrawMaintenance 0
scalar OsgEarthNet.uav[94] utilizationCountMissions 40
scalar OsgEarthNet.uav[94] utilizationCountManeuversMission 370
scalar OsgEarthNet.uav[94] utilizationCountManeuversMaintenance 81
scalar OsgEarthNet.uav[94] utilizationCountChargeState 40
scalar OsgEarthNet.uav[94] utilizationCountOverdrawnAfterMission 0
scalar OsgEarthNet.uav[94] utilizationCountIdleState 41
scalar OsgEarthNet.uav[94] utilizationFail 0
scalar OsgEarthNet.uav[94] simulationTime 259200
scalar OsgEarthNet.uav[95] utilizationSecMission 1004.1136773668
scalar OsgEarthNet.uav[95] utilizationSecMaintenance 899.13183754636
scalar OsgEarthNet.uav[95] utilizationSecCharge 7000
scalar OsgEarthNet.uav[95] utilizationSecIdle 250296.75348509
scalar OsgEarthNet.uav[95] utilizationEnergyMission 4428.4663467407
scalar OsgEarthNet.uav[95] utilizationEnergyMaintenance 4075.2426681519
scalar OsgEarthNet.uav[95] utilizationEnergyCharge 8647.125
scalar OsgEarthNet.uav[95] utilizationEnergyOverdrawMission 0
scalar OsgEarthNet.uav[95] utilizationEnergyOverdrawMaintenance 0
scalar OsgEarthNet.uav[95] utilizationCountMissions 2
scalar OsgEarthNet.uav[95] utilizationCountManeuversMission 17
scalar OsgEarthNet.uav[95] utilizationCountManeuversMaintenance 4
scalar OsgEarthNet.uav[95] utilizationCountChargeState 2
scalar OsgEarthNet.uav[95] utilizationCountOverdrawnAfterMission 0
scalar OsgEarthNet.uav[95] utilizationCountIdleState 3
scalar OsgEarthNet.uav[95] utilizationFail 0
scalar OsgEarthNet.uav[95] simulationTime 259200
scalar OsgEarthNet.uav[96] utilizationSecMission 25994.065600437
scalar OsgEarthNet.uav[96] utilizationSecMaintenance 13828.731775471
scalar OsgEarthNet.uav[96] utilizationSecCharge 154430
scalar OsgEarthNet.uav[96] utilizationSecIdle 64947.201624092
scalar OsgEarthNet.uav[96] utilizationEnergyMission 119054.35804749
scalar OsgEarthNet.uav[96] utilizationEnergyMaintenance 64813.517227173
scalar OsgEarthNet.uav[96] utilizationEnergyCharge 184625.234375
scalar OsgEarthNet.uav[96] utilizationEnergyOverdrawMission 0
scalar OsgEarthNet.uav[96] utilizationEnergyOverdrawMaintenance 0
scalar OsgEarthNet.uav[96] utilizationCountMissions 48
scalar OsgEarthNet.uav[96] utilizationCountManeuversMission 422
scalar OsgEarthNet.uav[96] utilizationCountManeuversMaintenance 96
scalar OsgEarthNet.uav[96] utilizationCountChargeState 48
scalar OsgEarthNet.uav[96] utilizationCountOverdrawnAfterMission 0
scalar OsgEarthNet.uav[96] utilizationCountIdleState 49
scalar OsgEarthNet.uav[96] utilizationFail 0
scalar OsgEarthNet.uav[96] simulationTime 259200
scalar OsgEarthNet.uav[97] utilizationSecMission 4202.7269776797
scalar OsgEarthNet.uav[97] utilizationSecMaintenance 3228.9400845401
scalar OsgEarthNet.uav[97] utilizationSecCharge 28740
scalar OsgEarthNet.uav[97] utilizationSecIdle 223028.33193778
scalar OsgEarthNet.uav[97] utilizationEnergyMission 19661.360290527
scalar OsgEarthNet.uav[97] utilizationEnergyMaintenance 14749.978431702
scalar OsgEarthNet.uav[97] utilizationEnergyCharge 34116.854003906
scalar OsgEarthNet.uav[97] utilizationEnergyOverdrawMission 0
scalar OsgEarthNet.uav[97] utilizationEnergyOverdrawMaintenance 0
scalar OsgEarthNet.uav[97] utilizationCountMissions 9
scalar OsgEarthNet.uav[97] utilizationCountManeuversMission 66
scalar OsgEarthNet.uav[97] utilizationCountManeuversMaintenance 18
scalar OsgEarthNet.uav[97] utilizationCountChargeState 9
scalar OsgEarthNet.uav[97] utilizationCountOverdrawnAfterMission 0
scalar OsgEarthNet.uav[97] utilizationCountIdleState 10
scalar OsgEarthNet.uav[97] utilizationFail 0
scalar OsgEarthNet.uav[97] simulationTime 259200
scalar OsgEarthNet.uav[98] utilizationSecMission 8229.8250473008
scalar OsgEarthNet.uav[98] utilizationSecMaintenance 6693.0475412924
scalar OsgEarthNet.uav[98] utilizationSecCharge 59570
scalar OsgEarthNet.uav[98] utilizationSecIdle 184707.12641141
scalar OsgEarthNet.uav[98] utilizationEnergyMission 38088.943054199
scalar OsgEarthNet.uav[98] utilizationEnergyMaintenance 31652.094104767
scalar OsgEarthNet.uav[98] utilizationEnergyCharge 70344.290283203
scalar OsgEarthNet.uav[98] utilizationEnergyOverdrawMission 0
scalar OsgEarthNet.uav[98] utilizationEnergyOverdrawMaintenance 0
scalar OsgEarthNet.uav[98] utilizationCountMissions 19
scalar OsgEarthNet.uav[98] utilizationCountManeuversMission 128
scalar OsgEarthNet.uav[98] utilizationCountManeuversMaintenance 38
scalar OsgEarthNet.uav[98] utilizationCountChargeState 19
scalar OsgEarthNet.uav[98] utilizationCountOverdrawnAfterMission 0
scalar OsgEarthNet.uav[98] utilizationCountIdleState 20
scalar OsgEarthNet.uav[98] utilizationFail 0
scalar OsgEarthNet.uav[98] simulationTime 259200
scalar OsgEarthNet.uav[99] utilizationSecMission 11089.984790282
scalar OsgEarthNet.uav[99] utilizationSecMaintenance 10263.548500922
scalar OsgEarthNet.uav[99] utilizationSecCharge 82774.328842797
scalar OsgEarthNet.uav[99] utilizationSecIdle 155072.136866
scalar OsgEarthNet.uav[99] utilizationEnergyMission 51675.073059082
scalar OsgEarthNet.uav[99] utilizationEnergyMaintenance 48151.312393188
scalar OsgEarthNet.uav[99] utilizationEnergyCharge 98623.869140625
scalar OsgEarthNet.uav[99] utilizationEnergyOverdrawMission 0
scalar OsgEarthNet.uav[99] utilizationEnergyOverdrawMaintenance 0
scalar OsgEarthNet.uav[99] utilizationCountMissions 27
scalar OsgEarthNet.uav[99] utilizationCountManeuversMission 189
scalar OsgEarthNet.uav[99] utilizationCountManeuversMaintenance 54
scalar OsgEarthNet.uav[99] utilizationCountChargeState 27
scalar OsgEarthNet.uav[99] utilizationCountOverdrawnAfterMission 0
scalar OsgEarthNet.uav[99] utilizationCountIdleState 27
scalar OsgEarthNet.uav[99] utilizationFail 0
scalar OsgEarthNet.uav[99] simulationTime 259200
scalar OsgEarthNet.cs[0] usedPower 383007.54379522
scalar OsgEarthNet.cs[0] chargedPower 383007.54379522
scalar OsgEarthNet.cs[0] chargedMobileNodes 144
scalar OsgEarthNet.cs[0] reservations 144
scalar OsgEarthNet.cs[1] usedPower 929031.141067
scalar OsgEarthNet.cs[1] chargedPower 929031.141067
scalar OsgEarthNet.cs[1] chargedMobileNodes 328
scalar OsgEarthNet.cs[1] reservations 332
scalar OsgEarthNet.cs[2] usedPower 3558922.4756777
scalar OsgEarthNet.cs[2] chargedPower 3558922.4756777
scalar OsgEarthNet.cs[2] chargedMobileNodes 943
scalar OsgEarthNet.cs[2] reservations 954
scalar OsgEarthNet.cs[3] usedPower 0
scalar OsgEarthNet.cs[3] chargedPower 0
scalar OsgEarthNet.cs[3] chargedMobileNodes 0
scalar OsgEarthNet.cs[3] reservations 0
scalar OsgEarthNet.cs[4] usedPower 904042.18817418
scalar OsgEarthNet.cs[4] chargedPower 904042.18817418
scalar OsgEarthNet.cs[4] chargedMobileNodes 207
scalar OsgEarthNet.cs[4] reservations 210
scalar OsgEarthNet.cs[5] usedPower 1618675.2920847
scalar OsgEarthNet.cs[5] chargedPower 1618675.2920847
scalar OsgEarthNet.cs[5] chargedMobileNodes 379
scalar OsgEarthNet.cs[5] reservations 384
scalar OsgEarthNet.cs[6] usedPower 1484981.5756103
scalar OsgEarthNet.cs[6] chargedPower 1484981.5756103
scalar OsgEarthNet.cs[6] chargedMobileNodes 378
scalar OsgEarthNet.cs[6] reservations 383

