version 2
run Szenario_Hotel_Gabelbach-66-20180709-02:15:10-25360
attr configname Szenario_Hotel_Gabelbach
attr datetime 20180709-02:15:10
attr experiment Szenario_Hotel_Gabelbach
attr inifile omnetpp.ini
attr iterationvars $replM=2
attr iterationvarsf replM=2-
attr measurement $replM=2
attr network OsgEarthNet
attr processid 25360
attr repetition 18
attr replication #18
attr resultdir results
attr runnumber 66
attr seedset 66
itervar replM 2
param *.osgEarthScene.scene "\"Szenario_Hotel_Gabelbach.earth\""
param *.playgroundLatitude 50.6830269
param *.playgroundLongitude 10.8538055
param *.playgroundWidth 3500m
param *.playgroundHeight 3500m
param *.numUAVs 100
param *.cs[0].posX 3537m
param *.cs[0].posY 965m
param *.cs[0].posZ 538m
param *.cs[1].posX 312m
param *.cs[1].posY 1262m
param *.cs[1].posZ 539m
param *.cs[2].posX 2185m
param *.cs[2].posY 3026m
param *.cs[2].posZ 777m
param *.cs[3].posX 10m
param *.cs[3].posY 2200m
param *.cs[3].posZ 560m
param *.cs[4].posX 750m
param *.cs[4].posY 200m
param *.cs[4].posZ 540m
param *.cs[5].posX 2450m
param *.cs[5].posY 180m
param *.cs[5].posZ 524m
param *.cs[6].posX 3140m
param *.cs[6].posY 1790m
param *.cs[6].posZ 606m
param *.numCSs 7
param *.uav[*].replacementMethod 2
param *.*.timeStep 10s
param *.uav[*].commandPreviewCommandCount 20
param *.missionControl.missionFiles "\"missions\\\\Szenario_WB_Hotel_Gabelbach_Mission_Hotel.waypoints,missions\\\\Szenario_WB_Hotel_Gabelbach_Mission_Kickelhahn.waypoints,missions\\\\Szenario_WB_Hotel_Gabelbach_Mission_Ilmenau_Sportplatz.waypoints,missions\\\\Szenario_WB_Hotel_Gabelbach_Mission_Manebach_Mitte.waypoints,missions\\\\Szenario_WB_Hotel_Gabelbach_Mission_Manebach_Sued.waypoints\""
param *.missionControl.missionFiles "\"missions\\\\Szenario_WB_Hotel_Gabelbach_Mission_Hotel.waypoints,missions\\\\Szenario_WB_Hotel_Gabelbach_Mission_Kickelhahn.waypoints,missions\\\\Szenario_WB_Hotel_Gabelbach_Mission_Ilmenau_Sportplatz.waypoints,missions\\\\Szenario_WB_Hotel_Gabelbach_Mission_Manebach_Mitte.waypoints,missions\\\\Szenario_WB_Hotel_Gabelbach_Mission_Manebach_Sued.waypoints,missions\\\\Szenario_WB_Hotel_Gabelbach_Hover_HoheSchlaufe.waypoints,missions\\\\Szenario_WB_Hotel_Gabelbach_Hover_Kickelhahn.waypoints,missions\\\\Szenario_WB_Hotel_Gabelbach_Hover_Gabelbachskopf.waypoints,missions\\\\Szenario_WB_Hotel_Gabelbach_Hover_Dachskopf.waypoints\""
param *.uav[0].startX 3537m
param *.uav[0].startY 965m
param *.uav[0].startZ 539m
param *.uav[1].startX 312m
param *.uav[1].startY 1262m
param *.uav[1].startZ 540m
param *.uav[2].startX 2185m
param *.uav[2].startY 3026m
param *.uav[2].startZ 778m
param *.uav[3].startX 3537m
param *.uav[3].startY 965m
param *.uav[3].startZ 539m
param *.uav[4].startX 312m
param *.uav[4].startY 1262m
param *.uav[4].startZ 540m
param *.uav[5].startX 2185m
param *.uav[5].startY 3026m
param *.uav[5].startZ 778m
param *.uav[6].startX 3537m
param *.uav[6].startY 965m
param *.uav[6].startZ 539m
param *.uav[7].startX 312m
param *.uav[7].startY 1262m
param *.uav[7].startZ 540m
param *.uav[8].startX 2185m
param *.uav[8].startY 3026m
param *.uav[8].startZ 778m
param *.uav[9].startX 3537m
param *.uav[9].startY 965m
param *.uav[9].startZ 539m
param *.uav[10].startX 3537m
param *.uav[10].startY 965m
param *.uav[10].startZ 539m
param *.uav[11].startX 312m
param *.uav[11].startY 1262m
param *.uav[11].startZ 540m
param *.uav[12].startX 2185m
param *.uav[12].startY 3026m
param *.uav[12].startZ 778m
param *.uav[13].startX 3537m
param *.uav[13].startY 965m
param *.uav[13].startZ 539m
param *.uav[14].startX 312m
param *.uav[14].startY 1262m
param *.uav[14].startZ 540m
param *.uav[15].startX 2185m
param *.uav[15].startY 3026m
param *.uav[15].startZ 778m
param *.uav[16].startX 3537m
param *.uav[16].startY 965m
param *.uav[16].startZ 539m
param *.uav[17].startX 312m
param *.uav[17].startY 1262m
param *.uav[17].startZ 540m
param *.uav[18].startX 2185m
param *.uav[18].startY 3026m
param *.uav[18].startZ 778m
param *.uav[19].startX 3537m
param *.uav[19].startY 965m
param *.uav[19].startZ 539m
param *.uav[20].startX 3537m
param *.uav[20].startY 965m
param *.uav[20].startZ 539m
param *.uav[21].startX 312m
param *.uav[21].startY 1262m
param *.uav[21].startZ 540m
param *.uav[22].startX 2185m
param *.uav[22].startY 3026m
param *.uav[22].startZ 778m
param *.uav[23].startX 3537m
param *.uav[23].startY 965m
param *.uav[23].startZ 539m
param *.uav[24].startX 312m
param *.uav[24].startY 1262m
param *.uav[24].startZ 540m
param *.uav[25].startX 2185m
param *.uav[25].startY 3026m
param *.uav[25].startZ 778m
param *.uav[26].startX 3537m
param *.uav[26].startY 965m
param *.uav[26].startZ 539m
param *.uav[27].startX 312m
param *.uav[27].startY 1262m
param *.uav[27].startZ 540m
param *.uav[28].startX 2185m
param *.uav[28].startY 3026m
param *.uav[28].startZ 778m
param *.uav[29].startX 3537m
param *.uav[29].startY 965m
param *.uav[29].startZ 539m
param *.uav[30].startX 3537m
param *.uav[30].startY 965m
param *.uav[30].startZ 539m
param *.uav[31].startX 312m
param *.uav[31].startY 1262m
param *.uav[31].startZ 540m
param *.uav[32].startX 2185m
param *.uav[32].startY 3026m
param *.uav[32].startZ 778m
param *.uav[33].startX 3537m
param *.uav[33].startY 965m
param *.uav[33].startZ 539m
param *.uav[34].startX 312m
param *.uav[34].startY 1262m
param *.uav[34].startZ 540m
param *.uav[35].startX 2185m
param *.uav[35].startY 3026m
param *.uav[35].startZ 778m
param *.uav[36].startX 3537m
param *.uav[36].startY 965m
param *.uav[36].startZ 539m
param *.uav[37].startX 312m
param *.uav[37].startY 1262m
param *.uav[37].startZ 540m
param *.uav[38].startX 2185m
param *.uav[38].startY 3026m
param *.uav[38].startZ 778m
param *.uav[39].startX 3537m
param *.uav[39].startY 965m
param *.uav[39].startZ 539m
param *.uav[40].startX 3537m
param *.uav[40].startY 965m
param *.uav[40].startZ 539m
param *.uav[41].startX 312m
param *.uav[41].startY 1262m
param *.uav[41].startZ 540m
param *.uav[42].startX 2185m
param *.uav[42].startY 3026m
param *.uav[42].startZ 778m
param *.uav[43].startX 3537m
param *.uav[43].startY 965m
param *.uav[43].startZ 539m
param *.uav[44].startX 312m
param *.uav[44].startY 1262m
param *.uav[44].startZ 540m
param *.uav[45].startX 2185m
param *.uav[45].startY 3026m
param *.uav[45].startZ 778m
param *.uav[46].startX 3537m
param *.uav[46].startY 965m
param *.uav[46].startZ 539m
param *.uav[47].startX 312m
param *.uav[47].startY 1262m
param *.uav[47].startZ 540m
param *.uav[48].startX 2185m
param *.uav[48].startY 3026m
param *.uav[48].startZ 778m
param *.uav[49].startX 3537m
param *.uav[49].startY 965m
param *.uav[49].startZ 539m
param *.uav[50].startX 3537m
param *.uav[50].startY 965m
param *.uav[50].startZ 539m
param *.uav[51].startX 312m
param *.uav[51].startY 1262m
param *.uav[51].startZ 540m
param *.uav[52].startX 2185m
param *.uav[52].startY 3026m
param *.uav[52].startZ 778m
param *.uav[53].startX 3537m
param *.uav[53].startY 965m
param *.uav[53].startZ 539m
param *.uav[54].startX 312m
param *.uav[54].startY 1262m
param *.uav[54].startZ 540m
param *.uav[55].startX 2185m
param *.uav[55].startY 3026m
param *.uav[55].startZ 778m
param *.uav[56].startX 3537m
param *.uav[56].startY 965m
param *.uav[56].startZ 539m
param *.uav[57].startX 312m
param *.uav[57].startY 1262m
param *.uav[57].startZ 540m
param *.uav[58].startX 2185m
param *.uav[58].startY 3026m
param *.uav[58].startZ 778m
param *.uav[59].startX 3537m
param *.uav[59].startY 965m
param *.uav[59].startZ 539m
param *.uav[60].startX 3537m
param *.uav[60].startY 965m
param *.uav[60].startZ 539m
param *.uav[61].startX 312m
param *.uav[61].startY 1262m
param *.uav[61].startZ 540m
param *.uav[62].startX 2185m
param *.uav[62].startY 3026m
param *.uav[62].startZ 778m
param *.uav[63].startX 3537m
param *.uav[63].startY 965m
param *.uav[63].startZ 539m
param *.uav[64].startX 312m
param *.uav[64].startY 1262m
param *.uav[64].startZ 540m
param *.uav[65].startX 2185m
param *.uav[65].startY 3026m
param *.uav[65].startZ 778m
param *.uav[66].startX 3537m
param *.uav[66].startY 965m
param *.uav[66].startZ 539m
param *.uav[67].startX 312m
param *.uav[67].startY 1262m
param *.uav[67].startZ 540m
param *.uav[68].startX 2185m
param *.uav[68].startY 3026m
param *.uav[68].startZ 778m
param *.uav[69].startX 3537m
param *.uav[69].startY 965m
param *.uav[69].startZ 539m
param *.uav[70].startX 3537m
param *.uav[70].startY 965m
param *.uav[70].startZ 539m
param *.uav[71].startX 312m
param *.uav[71].startY 1262m
param *.uav[71].startZ 540m
param *.uav[72].startX 2185m
param *.uav[72].startY 3026m
param *.uav[72].startZ 778m
param *.uav[73].startX 3537m
param *.uav[73].startY 965m
param *.uav[73].startZ 539m
param *.uav[74].startX 312m
param *.uav[74].startY 1262m
param *.uav[74].startZ 540m
param *.uav[75].startX 2185m
param *.uav[75].startY 3026m
param *.uav[75].startZ 778m
param *.uav[76].startX 3537m
param *.uav[76].startY 965m
param *.uav[76].startZ 539m
param *.uav[77].startX 312m
param *.uav[77].startY 1262m
param *.uav[77].startZ 540m
param *.uav[78].startX 2185m
param *.uav[78].startY 3026m
param *.uav[78].startZ 778m
param *.uav[79].startX 3537m
param *.uav[79].startY 965m
param *.uav[79].startZ 539m
param *.uav[80].startX 3537m
param *.uav[80].startY 965m
param *.uav[80].startZ 539m
param *.uav[81].startX 312m
param *.uav[81].startY 1262m
param *.uav[81].startZ 540m
param *.uav[82].startX 2185m
param *.uav[82].startY 3026m
param *.uav[82].startZ 778m
param *.uav[83].startX 3537m
param *.uav[83].startY 965m
param *.uav[83].startZ 539m
param *.uav[84].startX 312m
param *.uav[84].startY 1262m
param *.uav[84].startZ 540m
param *.uav[85].startX 2185m
param *.uav[85].startY 3026m
param *.uav[85].startZ 778m
param *.uav[86].startX 3537m
param *.uav[86].startY 965m
param *.uav[86].startZ 539m
param *.uav[87].startX 312m
param *.uav[87].startY 1262m
param *.uav[87].startZ 540m
param *.uav[88].startX 2185m
param *.uav[88].startY 3026m
param *.uav[88].startZ 778m
param *.uav[89].startX 3537m
param *.uav[89].startY 965m
param *.uav[89].startZ 539m
param *.uav[90].startX 3537m
param *.uav[90].startY 965m
param *.uav[90].startZ 539m
param *.uav[91].startX 312m
param *.uav[91].startY 1262m
param *.uav[91].startZ 540m
param *.uav[92].startX 2185m
param *.uav[92].startY 3026m
param *.uav[92].startZ 778m
param *.uav[93].startX 3537m
param *.uav[93].startY 965m
param *.uav[93].startZ 539m
param *.uav[94].startX 312m
param *.uav[94].startY 1262m
param *.uav[94].startZ 540m
param *.uav[95].startX 2185m
param *.uav[95].startY 3026m
param *.uav[95].startZ 778m
param *.uav[96].startX 3537m
param *.uav[96].startY 965m
param *.uav[96].startZ 539m
param *.uav[97].startX 312m
param *.uav[97].startY 1262m
param *.uav[97].startZ 540m
param *.uav[98].startX 2185m
param *.uav[98].startY 3026m
param *.uav[98].startZ 778m
param *.uav[99].startX 3537m
param *.uav[99].startY 965m
param *.uav[99].startZ 539m
param *.osgEarthScene.scene "\"boston.earth\""
param *.playgroundLatitude 42.3558
param *.playgroundLongitude -71.0677
param *.playgroundWidth 400m
param *.playgroundHeight 200m
param *.channelController.connectionColor "\"#0000FF40\""
param *.channelController.showConnections false
param *.uav[*].modelURL "\"quadrocopter.small.obj.15.scale.0,0,90.rot\""
param *.uav[*].labelColor "\"#FF7C00CC\""
param *.uav[*].label2Color "\"#FF7C00EE\""
param *.uav[*].batteryCapacity 5200mAh
param *.uav[*].batteryRemaining uav[index].batteryCapacity
param *.uav[*].predictionQuantile 0.95
param *.uav[*].replacementMethod 2
param *.uav[*].weightedSumWeight 0.5
param *.cs[*].modelURL "\"chargingstation_v1.osgt.2.scale.0,0,0.rot.0,0,-15e-1.trans\""
param *.cs[*].spotsWaiting 999
param *.cs[*].spotsCharging 999
param *.cs[*].chargeEffectivenessPercentage 100
param *.cs[*].nonLinearPhaseStartPercentage 85
param *.cs[*].chargeCurrent 6.0A
param *.cs[*].prioritizeFastCharge true
param *.missionControl.replacementSearchMethod 0
param *.*.timeStep 9s

scalar OsgEarthNet.uav[0] utilizationSecMission 750.20472747826
scalar OsgEarthNet.uav[0] utilizationSecMaintenance 261.68051383311
scalar OsgEarthNet.uav[0] utilizationSecCharge 3790
scalar OsgEarthNet.uav[0] utilizationSecIdle 254398.11375869
scalar OsgEarthNet.uav[0] utilizationEnergyMission 3456.0211639404
scalar OsgEarthNet.uav[0] utilizationEnergyMaintenance 1334.9769096375
scalar OsgEarthNet.uav[0] utilizationEnergyCharge 4790.9951171875
scalar OsgEarthNet.uav[0] utilizationEnergyOverdrawMission 0
scalar OsgEarthNet.uav[0] utilizationEnergyOverdrawMaintenance 0
scalar OsgEarthNet.uav[0] utilizationCountMissions 1
scalar OsgEarthNet.uav[0] utilizationCountManeuversMission 11
scalar OsgEarthNet.uav[0] utilizationCountManeuversMaintenance 2
scalar OsgEarthNet.uav[0] utilizationCountChargeState 1
scalar OsgEarthNet.uav[0] utilizationCountOverdrawnAfterMission 0
scalar OsgEarthNet.uav[0] utilizationCountIdleState 2
scalar OsgEarthNet.uav[0] utilizationFail 0
scalar OsgEarthNet.uav[0] simulationTime 259200
scalar OsgEarthNet.uav[1] utilizationSecMission 29336.554223769
scalar OsgEarthNet.uav[1] utilizationSecMaintenance 12927.95739129
scalar OsgEarthNet.uav[1] utilizationSecCharge 152891.72834122
scalar OsgEarthNet.uav[1] utilizationSecIdle 64043.759043722
scalar OsgEarthNet.uav[1] utilizationEnergyMission 136088.65288544
scalar OsgEarthNet.uav[1] utilizationEnergyMaintenance 59732.226459503
scalar OsgEarthNet.uav[1] utilizationEnergyCharge 191656.3671875
scalar OsgEarthNet.uav[1] utilizationEnergyOverdrawMission 0
scalar OsgEarthNet.uav[1] utilizationEnergyOverdrawMaintenance 0
scalar OsgEarthNet.uav[1] utilizationCountMissions 42
scalar OsgEarthNet.uav[1] utilizationCountManeuversMission 490
scalar OsgEarthNet.uav[1] utilizationCountManeuversMaintenance 84
scalar OsgEarthNet.uav[1] utilizationCountChargeState 42
scalar OsgEarthNet.uav[1] utilizationCountOverdrawnAfterMission 0
scalar OsgEarthNet.uav[1] utilizationCountIdleState 42
scalar OsgEarthNet.uav[1] utilizationFail 0
scalar OsgEarthNet.uav[1] simulationTime 259200
scalar OsgEarthNet.uav[2] utilizationSecMission 27414.062394347
scalar OsgEarthNet.uav[2] utilizationSecMaintenance 13140.852149411
scalar OsgEarthNet.uav[2] utilizationSecCharge 151300
scalar OsgEarthNet.uav[2] utilizationSecIdle 67345.084456242
scalar OsgEarthNet.uav[2] utilizationEnergyMission 126630.3616333
scalar OsgEarthNet.uav[2] utilizationEnergyMaintenance 62530.177333832
scalar OsgEarthNet.uav[2] utilizationEnergyCharge 189011.22558594
scalar OsgEarthNet.uav[2] utilizationEnergyOverdrawMission 0
scalar OsgEarthNet.uav[2] utilizationEnergyOverdrawMaintenance 0
scalar OsgEarthNet.uav[2] utilizationCountMissions 41
scalar OsgEarthNet.uav[2] utilizationCountManeuversMission 456
scalar OsgEarthNet.uav[2] utilizationCountManeuversMaintenance 82
scalar OsgEarthNet.uav[2] utilizationCountChargeState 41
scalar OsgEarthNet.uav[2] utilizationCountOverdrawnAfterMission 0
scalar OsgEarthNet.uav[2] utilizationCountIdleState 42
scalar OsgEarthNet.uav[2] utilizationFail 0
scalar OsgEarthNet.uav[2] simulationTime 259200
scalar OsgEarthNet.uav[3] utilizationSecMission 702.6942798579
scalar OsgEarthNet.uav[3] utilizationSecMaintenance 282.29565405678
scalar OsgEarthNet.uav[3] utilizationSecCharge 3660
scalar OsgEarthNet.uav[3] utilizationSecIdle 254555.00906609
scalar OsgEarthNet.uav[3] utilizationEnergyMission 3210.9617767334
scalar OsgEarthNet.uav[3] utilizationEnergyMaintenance 1326.2468070984
scalar OsgEarthNet.uav[3] utilizationEnergyCharge 4537.2045898438
scalar OsgEarthNet.uav[3] utilizationEnergyOverdrawMission 0
scalar OsgEarthNet.uav[3] utilizationEnergyOverdrawMaintenance 0
scalar OsgEarthNet.uav[3] utilizationCountMissions 1
scalar OsgEarthNet.uav[3] utilizationCountManeuversMission 10
scalar OsgEarthNet.uav[3] utilizationCountManeuversMaintenance 2
scalar OsgEarthNet.uav[3] utilizationCountChargeState 1
scalar OsgEarthNet.uav[3] utilizationCountOverdrawnAfterMission 0
scalar OsgEarthNet.uav[3] utilizationCountIdleState 2
scalar OsgEarthNet.uav[3] utilizationFail 0
scalar OsgEarthNet.uav[3] simulationTime 259200
scalar OsgEarthNet.uav[4] utilizationSecMission 25610.510711371
scalar OsgEarthNet.uav[4] utilizationSecMaintenance 11448.124114563
scalar OsgEarthNet.uav[4] utilizationSecCharge 136790.35451348
scalar OsgEarthNet.uav[4] utilizationSecIdle 85351.009660589
scalar OsgEarthNet.uav[4] utilizationEnergyMission 118230.07820129
scalar OsgEarthNet.uav[4] utilizationEnergyMaintenance 53371.204170227
scalar OsgEarthNet.uav[4] utilizationEnergyCharge 171015.67260742
scalar OsgEarthNet.uav[4] utilizationEnergyOverdrawMission 0
scalar OsgEarthNet.uav[4] utilizationEnergyOverdrawMaintenance 0
scalar OsgEarthNet.uav[4] utilizationCountMissions 37
scalar OsgEarthNet.uav[4] utilizationCountManeuversMission 423
scalar OsgEarthNet.uav[4] utilizationCountManeuversMaintenance 74
scalar OsgEarthNet.uav[4] utilizationCountChargeState 37
scalar OsgEarthNet.uav[4] utilizationCountOverdrawnAfterMission 0
scalar OsgEarthNet.uav[4] utilizationCountIdleState 37
scalar OsgEarthNet.uav[4] utilizationFail 0
scalar OsgEarthNet.uav[4] simulationTime 259200
scalar OsgEarthNet.uav[5] utilizationSecMission 887.1741082606
scalar OsgEarthNet.uav[5] utilizationSecMaintenance 148.2728194454
scalar OsgEarthNet.uav[5] utilizationSecCharge 3920
scalar OsgEarthNet.uav[5] utilizationSecIdle 254244.55207229
scalar OsgEarthNet.uav[5] utilizationEnergyMission 4083.385635376
scalar OsgEarthNet.uav[5] utilizationEnergyMaintenance 750.53444671631
scalar OsgEarthNet.uav[5] utilizationEnergyCharge 4982.69921875
scalar OsgEarthNet.uav[5] utilizationEnergyOverdrawMission 0
scalar OsgEarthNet.uav[5] utilizationEnergyOverdrawMaintenance 0
scalar OsgEarthNet.uav[5] utilizationCountMissions 1
scalar OsgEarthNet.uav[5] utilizationCountManeuversMission 14
scalar OsgEarthNet.uav[5] utilizationCountManeuversMaintenance 2
scalar OsgEarthNet.uav[5] utilizationCountChargeState 1
scalar OsgEarthNet.uav[5] utilizationCountOverdrawnAfterMission 0
scalar OsgEarthNet.uav[5] utilizationCountIdleState 2
scalar OsgEarthNet.uav[5] utilizationFail 0
scalar OsgEarthNet.uav[5] simulationTime 259200
scalar OsgEarthNet.uav[6] utilizationSecMission 25716.660887552
scalar OsgEarthNet.uav[6] utilizationSecMaintenance 13331.388267847
scalar OsgEarthNet.uav[6] utilizationSecCharge 144500
scalar OsgEarthNet.uav[6] utilizationSecIdle 75651.949844601
scalar OsgEarthNet.uav[6] utilizationEnergyMission 120156.08939743
scalar OsgEarthNet.uav[6] utilizationEnergyMaintenance 61107.813121796
scalar OsgEarthNet.uav[6] utilizationEnergyCharge 180527.05175781
scalar OsgEarthNet.uav[6] utilizationEnergyOverdrawMission 0
scalar OsgEarthNet.uav[6] utilizationEnergyOverdrawMaintenance 0
scalar OsgEarthNet.uav[6] utilizationCountMissions 39
scalar OsgEarthNet.uav[6] utilizationCountManeuversMission 422
scalar OsgEarthNet.uav[6] utilizationCountManeuversMaintenance 78
scalar OsgEarthNet.uav[6] utilizationCountChargeState 39
scalar OsgEarthNet.uav[6] utilizationCountOverdrawnAfterMission 0
scalar OsgEarthNet.uav[6] utilizationCountIdleState 40
scalar OsgEarthNet.uav[6] utilizationFail 0
scalar OsgEarthNet.uav[6] simulationTime 259200
scalar OsgEarthNet.uav[7] utilizationSecMission 27358.437448214
scalar OsgEarthNet.uav[7] utilizationSecMaintenance 14316.381871822
scalar OsgEarthNet.uav[7] utilizationSecCharge 154250
scalar OsgEarthNet.uav[7] utilizationSecIdle 63275.179679963
scalar OsgEarthNet.uav[7] utilizationEnergyMission 127378.05480957
scalar OsgEarthNet.uav[7] utilizationEnergyMaintenance 66883.134286483
scalar OsgEarthNet.uav[7] utilizationEnergyCharge 192296.00415039
scalar OsgEarthNet.uav[7] utilizationEnergyOverdrawMission 0
scalar OsgEarthNet.uav[7] utilizationEnergyOverdrawMaintenance 0
scalar OsgEarthNet.uav[7] utilizationCountMissions 42
scalar OsgEarthNet.uav[7] utilizationCountManeuversMission 458
scalar OsgEarthNet.uav[7] utilizationCountManeuversMaintenance 85
scalar OsgEarthNet.uav[7] utilizationCountChargeState 42
scalar OsgEarthNet.uav[7] utilizationCountOverdrawnAfterMission 0
scalar OsgEarthNet.uav[7] utilizationCountIdleState 43
scalar OsgEarthNet.uav[7] utilizationFail 0
scalar OsgEarthNet.uav[7] simulationTime 259200
scalar OsgEarthNet.uav[8] utilizationSecMission 29358.314372002
scalar OsgEarthNet.uav[8] utilizationSecMaintenance 12724.915260778
scalar OsgEarthNet.uav[8] utilizationSecCharge 154370.73326845
scalar OsgEarthNet.uav[8] utilizationSecIdle 62746.036098769
scalar OsgEarthNet.uav[8] utilizationEnergyMission 136836.1333847
scalar OsgEarthNet.uav[8] utilizationEnergyMaintenance 59396.562736511
scalar OsgEarthNet.uav[8] utilizationEnergyCharge 194154.50952148
scalar OsgEarthNet.uav[8] utilizationEnergyOverdrawMission 0
scalar OsgEarthNet.uav[8] utilizationEnergyOverdrawMaintenance 0
scalar OsgEarthNet.uav[8] utilizationCountMissions 42
scalar OsgEarthNet.uav[8] utilizationCountManeuversMission 473
scalar OsgEarthNet.uav[8] utilizationCountManeuversMaintenance 84
scalar OsgEarthNet.uav[8] utilizationCountChargeState 42
scalar OsgEarthNet.uav[8] utilizationCountOverdrawnAfterMission 0
scalar OsgEarthNet.uav[8] utilizationCountIdleState 42
scalar OsgEarthNet.uav[8] utilizationFail 0
scalar OsgEarthNet.uav[8] simulationTime 259200
scalar OsgEarthNet.uav[9] utilizationSecMission 836.77707522227
scalar OsgEarthNet.uav[9] utilizationSecMaintenance 217.0347828456
scalar OsgEarthNet.uav[9] utilizationSecCharge 3710
scalar OsgEarthNet.uav[9] utilizationSecIdle 254436.18714193
scalar OsgEarthNet.uav[9] utilizationEnergyMission 3601.215927124
scalar OsgEarthNet.uav[9] utilizationEnergyMaintenance 1095.1341667175
scalar OsgEarthNet.uav[9] utilizationEnergyCharge 4696.3486328125
scalar OsgEarthNet.uav[9] utilizationEnergyOverdrawMission 0
scalar OsgEarthNet.uav[9] utilizationEnergyOverdrawMaintenance 0
scalar OsgEarthNet.uav[9] utilizationCountMissions 1
scalar OsgEarthNet.uav[9] utilizationCountManeuversMission 13
scalar OsgEarthNet.uav[9] utilizationCountManeuversMaintenance 2
scalar OsgEarthNet.uav[9] utilizationCountChargeState 1
scalar OsgEarthNet.uav[9] utilizationCountOverdrawnAfterMission 0
scalar OsgEarthNet.uav[9] utilizationCountIdleState 2
scalar OsgEarthNet.uav[9] utilizationFail 0
scalar OsgEarthNet.uav[9] simulationTime 259200
scalar OsgEarthNet.uav[10] utilizationSecMission 760.62515258028
scalar OsgEarthNet.uav[10] utilizationSecMaintenance 291.95923480269
scalar OsgEarthNet.uav[10] utilizationSecCharge 3890
scalar OsgEarthNet.uav[10] utilizationSecIdle 254257.41461262
scalar OsgEarthNet.uav[10] utilizationEnergyMission 3478.3726654053
scalar OsgEarthNet.uav[10] utilizationEnergyMaintenance 1477.4849472046
scalar OsgEarthNet.uav[10] utilizationEnergyCharge 4955.8588867188
scalar OsgEarthNet.uav[10] utilizationEnergyOverdrawMission 0
scalar OsgEarthNet.uav[10] utilizationEnergyOverdrawMaintenance 0
scalar OsgEarthNet.uav[10] utilizationCountMissions 1
scalar OsgEarthNet.uav[10] utilizationCountManeuversMission 12
scalar OsgEarthNet.uav[10] utilizationCountManeuversMaintenance 2
scalar OsgEarthNet.uav[10] utilizationCountChargeState 1
scalar OsgEarthNet.uav[10] utilizationCountOverdrawnAfterMission 0
scalar OsgEarthNet.uav[10] utilizationCountIdleState 2
scalar OsgEarthNet.uav[10] utilizationFail 0
scalar OsgEarthNet.uav[10] simulationTime 259200
scalar OsgEarthNet.uav[11] utilizationSecMission 29510.559942062
scalar OsgEarthNet.uav[11] utilizationSecMaintenance 13465.46236892
scalar OsgEarthNet.uav[11] utilizationSecCharge 159475.52041184
scalar OsgEarthNet.uav[11] utilizationSecIdle 56748.456277181
scalar OsgEarthNet.uav[11] utilizationEnergyMission 136390.06624603
scalar OsgEarthNet.uav[11] utilizationEnergyMaintenance 63941.569934845
scalar OsgEarthNet.uav[11] utilizationEnergyCharge 199709.83691406
scalar OsgEarthNet.uav[11] utilizationEnergyOverdrawMission 0
scalar OsgEarthNet.uav[11] utilizationEnergyOverdrawMaintenance 0
scalar OsgEarthNet.uav[11] utilizationCountMissions 43
scalar OsgEarthNet.uav[11] utilizationCountManeuversMission 467
scalar OsgEarthNet.uav[11] utilizationCountManeuversMaintenance 86
scalar OsgEarthNet.uav[11] utilizationCountChargeState 43
scalar OsgEarthNet.uav[11] utilizationCountOverdrawnAfterMission 0
scalar OsgEarthNet.uav[11] utilizationCountIdleState 43
scalar OsgEarthNet.uav[11] utilizationFail 0
scalar OsgEarthNet.uav[11] simulationTime 259200
scalar OsgEarthNet.uav[12] utilizationSecMission 621.17604176187
scalar OsgEarthNet.uav[12] utilizationSecMaintenance 313.76167006775
scalar OsgEarthNet.uav[12] utilizationSecCharge 3660
scalar OsgEarthNet.uav[12] utilizationSecIdle 254605.06128817
scalar OsgEarthNet.uav[12] utilizationEnergyMission 2977.3649673462
scalar OsgEarthNet.uav[12] utilizationEnergyMaintenance 1532.9709587097
scalar OsgEarthNet.uav[12] utilizationEnergyCharge 4510.3354492188
scalar OsgEarthNet.uav[12] utilizationEnergyOverdrawMission 0
scalar OsgEarthNet.uav[12] utilizationEnergyOverdrawMaintenance 0
scalar OsgEarthNet.uav[12] utilizationCountMissions 1
scalar OsgEarthNet.uav[12] utilizationCountManeuversMission 12
scalar OsgEarthNet.uav[12] utilizationCountManeuversMaintenance 2
scalar OsgEarthNet.uav[12] utilizationCountChargeState 1
scalar OsgEarthNet.uav[12] utilizationCountOverdrawnAfterMission 0
scalar OsgEarthNet.uav[12] utilizationCountIdleState 2
scalar OsgEarthNet.uav[12] utilizationFail 0
scalar OsgEarthNet.uav[12] simulationTime 259200
scalar OsgEarthNet.uav[13] utilizationSecMission 702.6942798579
scalar OsgEarthNet.uav[13] utilizationSecMaintenance 282.29565405678
scalar OsgEarthNet.uav[13] utilizationSecCharge 3650
scalar OsgEarthNet.uav[13] utilizationSecIdle 254565.00906609
scalar OsgEarthNet.uav[13] utilizationEnergyMission 3200.5705108643
scalar OsgEarthNet.uav[13] utilizationEnergyMaintenance 1379.2228813171
scalar OsgEarthNet.uav[13] utilizationEnergyCharge 4579.7958984375
scalar OsgEarthNet.uav[13] utilizationEnergyOverdrawMission 0
scalar OsgEarthNet.uav[13] utilizationEnergyOverdrawMaintenance 0
scalar OsgEarthNet.uav[13] utilizationCountMissions 1
scalar OsgEarthNet.uav[13] utilizationCountManeuversMission 10
scalar OsgEarthNet.uav[13] utilizationCountManeuversMaintenance 2
scalar OsgEarthNet.uav[13] utilizationCountChargeState 1
scalar OsgEarthNet.uav[13] utilizationCountOverdrawnAfterMission 0
scalar OsgEarthNet.uav[13] utilizationCountIdleState 2
scalar OsgEarthNet.uav[13] utilizationFail 0
scalar OsgEarthNet.uav[13] simulationTime 259200
scalar OsgEarthNet.uav[14] utilizationSecMission 12323.523128876
scalar OsgEarthNet.uav[14] utilizationSecMaintenance 5762.6775125137
scalar OsgEarthNet.uav[14] utilizationSecCharge 66970
scalar OsgEarthNet.uav[14] utilizationSecIdle 174143.79835861
scalar OsgEarthNet.uav[14] utilizationEnergyMission 57032.544830322
scalar OsgEarthNet.uav[14] utilizationEnergyMaintenance 27136.75876236
scalar OsgEarthNet.uav[14] utilizationEnergyCharge 83887.092529297
scalar OsgEarthNet.uav[14] utilizationEnergyOverdrawMission 0
scalar OsgEarthNet.uav[14] utilizationEnergyOverdrawMaintenance 0
scalar OsgEarthNet.uav[14] utilizationCountMissions 18
scalar OsgEarthNet.uav[14] utilizationCountManeuversMission 197
scalar OsgEarthNet.uav[14] utilizationCountManeuversMaintenance 36
scalar OsgEarthNet.uav[14] utilizationCountChargeState 18
scalar OsgEarthNet.uav[14] utilizationCountOverdrawnAfterMission 0
scalar OsgEarthNet.uav[14] utilizationCountIdleState 19
scalar OsgEarthNet.uav[14] utilizationFail 0
scalar OsgEarthNet.uav[14] simulationTime 259200
scalar OsgEarthNet.uav[15] utilizationSecMission 694.00169469977
scalar OsgEarthNet.uav[15] utilizationSecMaintenance 282.18572599206
scalar OsgEarthNet.uav[15] utilizationSecCharge 3690
scalar OsgEarthNet.uav[15] utilizationSecIdle 254533.81157931
scalar OsgEarthNet.uav[15] utilizationEnergyMission 3194.6264419556
scalar OsgEarthNet.uav[15] utilizationEnergyMaintenance 1393.6285018921
scalar OsgEarthNet.uav[15] utilizationEnergyCharge 4588.25390625
scalar OsgEarthNet.uav[15] utilizationEnergyOverdrawMission 0
scalar OsgEarthNet.uav[15] utilizationEnergyOverdrawMaintenance 0
scalar OsgEarthNet.uav[15] utilizationCountMissions 1
scalar OsgEarthNet.uav[15] utilizationCountManeuversMission 13
scalar OsgEarthNet.uav[15] utilizationCountManeuversMaintenance 2
scalar OsgEarthNet.uav[15] utilizationCountChargeState 1
scalar OsgEarthNet.uav[15] utilizationCountOverdrawnAfterMission 0
scalar OsgEarthNet.uav[15] utilizationCountIdleState 2
scalar OsgEarthNet.uav[15] utilizationFail 0
scalar OsgEarthNet.uav[15] simulationTime 259200
scalar OsgEarthNet.uav[16] utilizationSecMission 28609.720269758
scalar OsgEarthNet.uav[16] utilizationSecMaintenance 12091.03330412
scalar OsgEarthNet.uav[16] utilizationSecCharge 145625.85329999
scalar OsgEarthNet.uav[16] utilizationSecIdle 72873.392126128
scalar OsgEarthNet.uav[16] utilizationEnergyMission 132322.21334076
scalar OsgEarthNet.uav[16] utilizationEnergyMaintenance 55113.396190643
scalar OsgEarthNet.uav[16] utilizationEnergyCharge 182618.90820312
scalar OsgEarthNet.uav[16] utilizationEnergyOverdrawMission 0
scalar OsgEarthNet.uav[16] utilizationEnergyOverdrawMaintenance 0
scalar OsgEarthNet.uav[16] utilizationCountMissions 40
scalar OsgEarthNet.uav[16] utilizationCountManeuversMission 469
scalar OsgEarthNet.uav[16] utilizationCountManeuversMaintenance 80
scalar OsgEarthNet.uav[16] utilizationCountChargeState 40
scalar OsgEarthNet.uav[16] utilizationCountOverdrawnAfterMission 0
scalar OsgEarthNet.uav[16] utilizationCountIdleState 40
scalar OsgEarthNet.uav[16] utilizationFail 0
scalar OsgEarthNet.uav[16] simulationTime 259200
scalar OsgEarthNet.uav[17] utilizationSecMission 29265.975230133
scalar OsgEarthNet.uav[17] utilizationSecMaintenance 12594.761947554
scalar OsgEarthNet.uav[17] utilizationSecCharge 153671.94671457
scalar OsgEarthNet.uav[17] utilizationSecIdle 63667.315107746
scalar OsgEarthNet.uav[17] utilizationEnergyMission 137260.64875793
scalar OsgEarthNet.uav[17] utilizationEnergyMaintenance 59041.899646759
scalar OsgEarthNet.uav[17] utilizationEnergyCharge 192736.32446289
scalar OsgEarthNet.uav[17] utilizationEnergyOverdrawMission 0
scalar OsgEarthNet.uav[17] utilizationEnergyOverdrawMaintenance 0
scalar OsgEarthNet.uav[17] utilizationCountMissions 42
scalar OsgEarthNet.uav[17] utilizationCountManeuversMission 462
scalar OsgEarthNet.uav[17] utilizationCountManeuversMaintenance 84
scalar OsgEarthNet.uav[17] utilizationCountChargeState 42
scalar OsgEarthNet.uav[17] utilizationCountOverdrawnAfterMission 0
scalar OsgEarthNet.uav[17] utilizationCountIdleState 42
scalar OsgEarthNet.uav[17] utilizationFail 0
scalar OsgEarthNet.uav[17] simulationTime 259200
scalar OsgEarthNet.uav[18] utilizationSecMission 694.00169469977
scalar OsgEarthNet.uav[18] utilizationSecMaintenance 282.18572599206
scalar OsgEarthNet.uav[18] utilizationSecCharge 3650
scalar OsgEarthNet.uav[18] utilizationSecIdle 254573.81157931
scalar OsgEarthNet.uav[18] utilizationEnergyMission 3168.6081390381
scalar OsgEarthNet.uav[18] utilizationEnergyMaintenance 1322.3415145874
scalar OsgEarthNet.uav[18] utilizationEnergyCharge 4490.9521484375
scalar OsgEarthNet.uav[18] utilizationEnergyOverdrawMission 0
scalar OsgEarthNet.uav[18] utilizationEnergyOverdrawMaintenance 0
scalar OsgEarthNet.uav[18] utilizationCountMissions 1
scalar OsgEarthNet.uav[18] utilizationCountManeuversMission 13
scalar OsgEarthNet.uav[18] utilizationCountManeuversMaintenance 2
scalar OsgEarthNet.uav[18] utilizationCountChargeState 1
scalar OsgEarthNet.uav[18] utilizationCountOverdrawnAfterMission 0
scalar OsgEarthNet.uav[18] utilizationCountIdleState 2
scalar OsgEarthNet.uav[18] utilizationFail 0
scalar OsgEarthNet.uav[18] simulationTime 259200
scalar OsgEarthNet.uav[19] utilizationSecMission 26992.8839072
scalar OsgEarthNet.uav[19] utilizationSecMaintenance 14170.356532717
scalar OsgEarthNet.uav[19] utilizationSecCharge 151953.99258615
scalar OsgEarthNet.uav[19] utilizationSecIdle 66082.765973934
scalar OsgEarthNet.uav[19] utilizationEnergyMission 125504.62587357
scalar OsgEarthNet.uav[19] utilizationEnergyMaintenance 65911.153980255
scalar OsgEarthNet.uav[19] utilizationEnergyCharge 191206.01220703
scalar OsgEarthNet.uav[19] utilizationEnergyOverdrawMission 0
scalar OsgEarthNet.uav[19] utilizationEnergyOverdrawMaintenance 0
scalar OsgEarthNet.uav[19] utilizationCountMissions 41
scalar OsgEarthNet.uav[19] utilizationCountManeuversMission 440
scalar OsgEarthNet.uav[19] utilizationCountManeuversMaintenance 82
scalar OsgEarthNet.uav[19] utilizationCountChargeState 41
scalar OsgEarthNet.uav[19] utilizationCountOverdrawnAfterMission 0
scalar OsgEarthNet.uav[19] utilizationCountIdleState 41
scalar OsgEarthNet.uav[19] utilizationFail 0
scalar OsgEarthNet.uav[19] simulationTime 259200
scalar OsgEarthNet.uav[20] utilizationSecMission 684.4732299383
scalar OsgEarthNet.uav[20] utilizationSecMaintenance 298.56834692969
scalar OsgEarthNet.uav[20] utilizationSecCharge 3820
scalar OsgEarthNet.uav[20] utilizationSecIdle 254396.95742313
scalar OsgEarthNet.uav[20] utilizationEnergyMission 3380.6759948731
scalar OsgEarthNet.uav[20] utilizationEnergyMaintenance 1483.2038803101
scalar OsgEarthNet.uav[20] utilizationEnergyCharge 4863.8837890625
scalar OsgEarthNet.uav[20] utilizationEnergyOverdrawMission 0
scalar OsgEarthNet.uav[20] utilizationEnergyOverdrawMaintenance 0
scalar OsgEarthNet.uav[20] utilizationCountMissions 1
scalar OsgEarthNet.uav[20] utilizationCountManeuversMission 11
scalar OsgEarthNet.uav[20] utilizationCountManeuversMaintenance 2
scalar OsgEarthNet.uav[20] utilizationCountChargeState 1
scalar OsgEarthNet.uav[20] utilizationCountOverdrawnAfterMission 0
scalar OsgEarthNet.uav[20] utilizationCountIdleState 2
scalar OsgEarthNet.uav[20] utilizationFail 0
scalar OsgEarthNet.uav[20] simulationTime 259200
scalar OsgEarthNet.uav[21] utilizationSecMission 528.55000878666
scalar OsgEarthNet.uav[21] utilizationSecMaintenance 478.92797493542
scalar OsgEarthNet.uav[21] utilizationSecCharge 3540
scalar OsgEarthNet.uav[21] utilizationSecIdle 254652.52101628
scalar OsgEarthNet.uav[21] utilizationEnergyMission 2317.0804901123
scalar OsgEarthNet.uav[21] utilizationEnergyMaintenance 2089.8910751343
scalar OsgEarthNet.uav[21] utilizationEnergyCharge 4406.9736328125
scalar OsgEarthNet.uav[21] utilizationEnergyOverdrawMission 0
scalar OsgEarthNet.uav[21] utilizationEnergyOverdrawMaintenance 0
scalar OsgEarthNet.uav[21] utilizationCountMissions 1
scalar OsgEarthNet.uav[21] utilizationCountManeuversMission 10
scalar OsgEarthNet.uav[21] utilizationCountManeuversMaintenance 2
scalar OsgEarthNet.uav[21] utilizationCountChargeState 1
scalar OsgEarthNet.uav[21] utilizationCountOverdrawnAfterMission 0
scalar OsgEarthNet.uav[21] utilizationCountIdleState 2
scalar OsgEarthNet.uav[21] utilizationFail 0
scalar OsgEarthNet.uav[21] simulationTime 259200
scalar OsgEarthNet.uav[22] utilizationSecMission 8133.1686616999
scalar OsgEarthNet.uav[22] utilizationSecMaintenance 2566.7521454996
scalar OsgEarthNet.uav[22] utilizationSecCharge 37123.013409775
scalar OsgEarthNet.uav[22] utilizationSecIdle 211377.06478303
scalar OsgEarthNet.uav[22] utilizationEnergyMission 37259.59570694
scalar OsgEarthNet.uav[22] utilizationEnergyMaintenance 11783.9961586
scalar OsgEarthNet.uav[22] utilizationEnergyCharge 46430.868041992
scalar OsgEarthNet.uav[22] utilizationEnergyOverdrawMission 0
scalar OsgEarthNet.uav[22] utilizationEnergyOverdrawMaintenance 0
scalar OsgEarthNet.uav[22] utilizationCountMissions 11
scalar OsgEarthNet.uav[22] utilizationCountManeuversMission 129
scalar OsgEarthNet.uav[22] utilizationCountManeuversMaintenance 22
scalar OsgEarthNet.uav[22] utilizationCountChargeState 11
scalar OsgEarthNet.uav[22] utilizationCountOverdrawnAfterMission 0
scalar OsgEarthNet.uav[22] utilizationCountIdleState 11
scalar OsgEarthNet.uav[22] utilizationFail 0
scalar OsgEarthNet.uav[22] simulationTime 259200
scalar OsgEarthNet.uav[23] utilizationSecMission 836.77707522227
scalar OsgEarthNet.uav[23] utilizationSecMaintenance 217.0347828456
scalar OsgEarthNet.uav[23] utilizationSecCharge 3820
scalar OsgEarthNet.uav[23] utilizationSecIdle 254326.18714193
scalar OsgEarthNet.uav[23] utilizationEnergyMission 3740.4455795288
scalar OsgEarthNet.uav[23] utilizationEnergyMaintenance 1079.8771476746
scalar OsgEarthNet.uav[23] utilizationEnergyCharge 4820.3237304688
scalar OsgEarthNet.uav[23] utilizationEnergyOverdrawMission 0
scalar OsgEarthNet.uav[23] utilizationEnergyOverdrawMaintenance 0
scalar OsgEarthNet.uav[23] utilizationCountMissions 1
scalar OsgEarthNet.uav[23] utilizationCountManeuversMission 13
scalar OsgEarthNet.uav[23] utilizationCountManeuversMaintenance 2
scalar OsgEarthNet.uav[23] utilizationCountChargeState 1
scalar OsgEarthNet.uav[23] utilizationCountOverdrawnAfterMission 0
scalar OsgEarthNet.uav[23] utilizationCountIdleState 2
scalar OsgEarthNet.uav[23] utilizationFail 0
scalar OsgEarthNet.uav[23] simulationTime 259200
scalar OsgEarthNet.uav[24] utilizationSecMission 23750.039812655
scalar OsgEarthNet.uav[24] utilizationSecMaintenance 11711.49696097
scalar OsgEarthNet.uav[24] utilizationSecCharge 130417.27173957
scalar OsgEarthNet.uav[24] utilizationSecIdle 93321.190486804
scalar OsgEarthNet.uav[24] utilizationEnergyMission 111931.64725494
scalar OsgEarthNet.uav[24] utilizationEnergyMaintenance 54230.026260376
scalar OsgEarthNet.uav[24] utilizationEnergyCharge 163308.0246582
scalar OsgEarthNet.uav[24] utilizationEnergyOverdrawMission 0
scalar OsgEarthNet.uav[24] utilizationEnergyOverdrawMaintenance 0
scalar OsgEarthNet.uav[24] utilizationCountMissions 36
scalar OsgEarthNet.uav[24] utilizationCountManeuversMission 405
scalar OsgEarthNet.uav[24] utilizationCountManeuversMaintenance 72
scalar OsgEarthNet.uav[24] utilizationCountChargeState 36
scalar OsgEarthNet.uav[24] utilizationCountOverdrawnAfterMission 0
scalar OsgEarthNet.uav[24] utilizationCountIdleState 36
scalar OsgEarthNet.uav[24] utilizationFail 0
scalar OsgEarthNet.uav[24] simulationTime 259200
scalar OsgEarthNet.uav[25] utilizationSecMission 26946.345050309
scalar OsgEarthNet.uav[25] utilizationSecMaintenance 14526.07885239
scalar OsgEarthNet.uav[25] utilizationSecCharge 155900
scalar OsgEarthNet.uav[25] utilizationSecIdle 61827.575097301
scalar OsgEarthNet.uav[25] utilizationEnergyMission 125331.635849
scalar OsgEarthNet.uav[25] utilizationEnergyMaintenance 69642.639743805
scalar OsgEarthNet.uav[25] utilizationEnergyCharge 194963.48852539
scalar OsgEarthNet.uav[25] utilizationEnergyOverdrawMission 0
scalar OsgEarthNet.uav[25] utilizationEnergyOverdrawMaintenance 0
scalar OsgEarthNet.uav[25] utilizationCountMissions 42
scalar OsgEarthNet.uav[25] utilizationCountManeuversMission 445
scalar OsgEarthNet.uav[25] utilizationCountManeuversMaintenance 84
scalar OsgEarthNet.uav[25] utilizationCountChargeState 42
scalar OsgEarthNet.uav[25] utilizationCountOverdrawnAfterMission 0
scalar OsgEarthNet.uav[25] utilizationCountIdleState 43
scalar OsgEarthNet.uav[25] utilizationFail 0
scalar OsgEarthNet.uav[25] simulationTime 259200
scalar OsgEarthNet.uav[26] utilizationSecMission 760.62515258028
scalar OsgEarthNet.uav[26] utilizationSecMaintenance 291.95923480269
scalar OsgEarthNet.uav[26] utilizationSecCharge 3930
scalar OsgEarthNet.uav[26] utilizationSecIdle 254217.41461262
scalar OsgEarthNet.uav[26] utilizationEnergyMission 3560.775894165
scalar OsgEarthNet.uav[26] utilizationEnergyMaintenance 1471.9005966187
scalar OsgEarthNet.uav[26] utilizationEnergyCharge 5032.67578125
scalar OsgEarthNet.uav[26] utilizationEnergyOverdrawMission 0
scalar OsgEarthNet.uav[26] utilizationEnergyOverdrawMaintenance 0
scalar OsgEarthNet.uav[26] utilizationCountMissions 1
scalar OsgEarthNet.uav[26] utilizationCountManeuversMission 12
scalar OsgEarthNet.uav[26] utilizationCountManeuversMaintenance 2
scalar OsgEarthNet.uav[26] utilizationCountChargeState 1
scalar OsgEarthNet.uav[26] utilizationCountOverdrawnAfterMission 0
scalar OsgEarthNet.uav[26] utilizationCountIdleState 2
scalar OsgEarthNet.uav[26] utilizationFail 0
scalar OsgEarthNet.uav[26] simulationTime 259200
scalar OsgEarthNet.uav[27] utilizationSecMission 29306.602776793
scalar OsgEarthNet.uav[27] utilizationSecMaintenance 12355.043594412
scalar OsgEarthNet.uav[27] utilizationSecCharge 152050
scalar OsgEarthNet.uav[27] utilizationSecIdle 65488.352628794
scalar OsgEarthNet.uav[27] utilizationEnergyMission 135200.0165756
scalar OsgEarthNet.uav[27] utilizationEnergyMaintenance 58868.111045837
scalar OsgEarthNet.uav[27] utilizationEnergyCharge 190122.90576172
scalar OsgEarthNet.uav[27] utilizationEnergyOverdrawMission 0
scalar OsgEarthNet.uav[27] utilizationEnergyOverdrawMaintenance 0
scalar OsgEarthNet.uav[27] utilizationCountMissions 41
scalar OsgEarthNet.uav[27] utilizationCountManeuversMission 482
scalar OsgEarthNet.uav[27] utilizationCountManeuversMaintenance 83
scalar OsgEarthNet.uav[27] utilizationCountChargeState 41
scalar OsgEarthNet.uav[27] utilizationCountOverdrawnAfterMission 0
scalar OsgEarthNet.uav[27] utilizationCountIdleState 42
scalar OsgEarthNet.uav[27] utilizationFail 0
scalar OsgEarthNet.uav[27] simulationTime 259200
scalar OsgEarthNet.uav[28] utilizationSecMission 694.00169469977
scalar OsgEarthNet.uav[28] utilizationSecMaintenance 282.18572599206
scalar OsgEarthNet.uav[28] utilizationSecCharge 3640
scalar OsgEarthNet.uav[28] utilizationSecIdle 254583.81157931
scalar OsgEarthNet.uav[28] utilizationEnergyMission 3182.3591384888
scalar OsgEarthNet.uav[28] utilizationEnergyMaintenance 1330.7226791382
scalar OsgEarthNet.uav[28] utilizationEnergyCharge 4513.0815429688
scalar OsgEarthNet.uav[28] utilizationEnergyOverdrawMission 0
scalar OsgEarthNet.uav[28] utilizationEnergyOverdrawMaintenance 0
scalar OsgEarthNet.uav[28] utilizationCountMissions 1
scalar OsgEarthNet.uav[28] utilizationCountManeuversMission 13
scalar OsgEarthNet.uav[28] utilizationCountManeuversMaintenance 2
scalar OsgEarthNet.uav[28] utilizationCountChargeState 1
scalar OsgEarthNet.uav[28] utilizationCountOverdrawnAfterMission 0
scalar OsgEarthNet.uav[28] utilizationCountIdleState 2
scalar OsgEarthNet.uav[28] utilizationFail 0
scalar OsgEarthNet.uav[28] simulationTime 259200
scalar OsgEarthNet.uav[29] utilizationSecMission 18096.409995113
scalar OsgEarthNet.uav[29] utilizationSecMaintenance 7829.2189264005
scalar OsgEarthNet.uav[29] utilizationSecCharge 96649.099495775
scalar OsgEarthNet.uav[29] utilizationSecIdle 136625.27058271
scalar OsgEarthNet.uav[29] utilizationEnergyMission 84312.144256592
scalar OsgEarthNet.uav[29] utilizationEnergyMaintenance 37502.651191711
scalar OsgEarthNet.uav[29] utilizationEnergyCharge 121298.01147461
scalar OsgEarthNet.uav[29] utilizationEnergyOverdrawMission 0
scalar OsgEarthNet.uav[29] utilizationEnergyOverdrawMaintenance 0
scalar OsgEarthNet.uav[29] utilizationCountMissions 26
scalar OsgEarthNet.uav[29] utilizationCountManeuversMission 292
scalar OsgEarthNet.uav[29] utilizationCountManeuversMaintenance 52
scalar OsgEarthNet.uav[29] utilizationCountChargeState 26
scalar OsgEarthNet.uav[29] utilizationCountOverdrawnAfterMission 0
scalar OsgEarthNet.uav[29] utilizationCountIdleState 26
scalar OsgEarthNet.uav[29] utilizationFail 0
scalar OsgEarthNet.uav[29] simulationTime 259200
scalar OsgEarthNet.uav[30] utilizationSecMission 760.62515258028
scalar OsgEarthNet.uav[30] utilizationSecMaintenance 291.95923480269
scalar OsgEarthNet.uav[30] utilizationSecCharge 3810
scalar OsgEarthNet.uav[30] utilizationSecIdle 254337.41461262
scalar OsgEarthNet.uav[30] utilizationEnergyMission 3446.2328948975
scalar OsgEarthNet.uav[30] utilizationEnergyMaintenance 1354.0619125366
scalar OsgEarthNet.uav[30] utilizationEnergyCharge 4800.2939453125
scalar OsgEarthNet.uav[30] utilizationEnergyOverdrawMission 0
scalar OsgEarthNet.uav[30] utilizationEnergyOverdrawMaintenance 0
scalar OsgEarthNet.uav[30] utilizationCountMissions 1
scalar OsgEarthNet.uav[30] utilizationCountManeuversMission 12
scalar OsgEarthNet.uav[30] utilizationCountManeuversMaintenance 2
scalar OsgEarthNet.uav[30] utilizationCountChargeState 1
scalar OsgEarthNet.uav[30] utilizationCountOverdrawnAfterMission 0
scalar OsgEarthNet.uav[30] utilizationCountIdleState 2
scalar OsgEarthNet.uav[30] utilizationFail 0
scalar OsgEarthNet.uav[30] simulationTime 259200
scalar OsgEarthNet.uav[31] utilizationSecMission 15962.909230506
scalar OsgEarthNet.uav[31] utilizationSecMaintenance 7950.3432782805
scalar OsgEarthNet.uav[31] utilizationSecCharge 87816.72818677
scalar OsgEarthNet.uav[31] utilizationSecIdle 147470.01830444
scalar OsgEarthNet.uav[31] utilizationEnergyMission 73180.957473755
scalar OsgEarthNet.uav[31] utilizationEnergyMaintenance 37582.64547348
scalar OsgEarthNet.uav[31] utilizationEnergyCharge 110962.78564453
scalar OsgEarthNet.uav[31] utilizationEnergyOverdrawMission 0
scalar OsgEarthNet.uav[31] utilizationEnergyOverdrawMaintenance 0
scalar OsgEarthNet.uav[31] utilizationCountMissions 24
scalar OsgEarthNet.uav[31] utilizationCountManeuversMission 258
scalar OsgEarthNet.uav[31] utilizationCountManeuversMaintenance 48
scalar OsgEarthNet.uav[31] utilizationCountChargeState 24
scalar OsgEarthNet.uav[31] utilizationCountOverdrawnAfterMission 0
scalar OsgEarthNet.uav[31] utilizationCountIdleState 24
scalar OsgEarthNet.uav[31] utilizationFail 0
scalar OsgEarthNet.uav[31] simulationTime 259200
scalar OsgEarthNet.uav[32] utilizationSecMission 694.00169469977
scalar OsgEarthNet.uav[32] utilizationSecMaintenance 338.49695459722
scalar OsgEarthNet.uav[32] utilizationSecCharge 3780
scalar OsgEarthNet.uav[32] utilizationSecIdle 254387.5003507
scalar OsgEarthNet.uav[32] utilizationEnergyMission 3305.3898239136
scalar OsgEarthNet.uav[32] utilizationEnergyMaintenance 1450.5642204285
scalar OsgEarthNet.uav[32] utilizationEnergyCharge 4755.9545898438
scalar OsgEarthNet.uav[32] utilizationEnergyOverdrawMission 0
scalar OsgEarthNet.uav[32] utilizationEnergyOverdrawMaintenance 0
scalar OsgEarthNet.uav[32] utilizationCountMissions 1
scalar OsgEarthNet.uav[32] utilizationCountManeuversMission 13
scalar OsgEarthNet.uav[32] utilizationCountManeuversMaintenance 2
scalar OsgEarthNet.uav[32] utilizationCountChargeState 1
scalar OsgEarthNet.uav[32] utilizationCountOverdrawnAfterMission 0
scalar OsgEarthNet.uav[32] utilizationCountIdleState 2
scalar OsgEarthNet.uav[32] utilizationFail 0
scalar OsgEarthNet.uav[32] simulationTime 259200
scalar OsgEarthNet.uav[33] utilizationSecMission 3142.3382239696
scalar OsgEarthNet.uav[33] utilizationSecMaintenance 816.38747627033
scalar OsgEarthNet.uav[33] utilizationSecCharge 14860
scalar OsgEarthNet.uav[33] utilizationSecIdle 240381.27329976
scalar OsgEarthNet.uav[33] utilizationEnergyMission 14835.35295105
scalar OsgEarthNet.uav[33] utilizationEnergyMaintenance 3955.7299461365
scalar OsgEarthNet.uav[33] utilizationEnergyCharge 18613.397460938
scalar OsgEarthNet.uav[33] utilizationEnergyOverdrawMission 0
scalar OsgEarthNet.uav[33] utilizationEnergyOverdrawMaintenance 0
scalar OsgEarthNet.uav[33] utilizationCountMissions 4
scalar OsgEarthNet.uav[33] utilizationCountManeuversMission 48
scalar OsgEarthNet.uav[33] utilizationCountManeuversMaintenance 8
scalar OsgEarthNet.uav[33] utilizationCountChargeState 4
scalar OsgEarthNet.uav[33] utilizationCountOverdrawnAfterMission 0
scalar OsgEarthNet.uav[33] utilizationCountIdleState 5
scalar OsgEarthNet.uav[33] utilizationFail 0
scalar OsgEarthNet.uav[33] simulationTime 259200
scalar OsgEarthNet.uav[34] utilizationSecMission 27158.938026438
scalar OsgEarthNet.uav[34] utilizationSecMaintenance 11943.485365377
scalar OsgEarthNet.uav[34] utilizationSecCharge 143323.71291608
scalar OsgEarthNet.uav[34] utilizationSecIdle 76773.862692108
scalar OsgEarthNet.uav[34] utilizationEnergyMission 125271.10194397
scalar OsgEarthNet.uav[34] utilizationEnergyMaintenance 55711.609378815
scalar OsgEarthNet.uav[34] utilizationEnergyCharge 180047.1940918
scalar OsgEarthNet.uav[34] utilizationEnergyOverdrawMission 0
scalar OsgEarthNet.uav[34] utilizationEnergyOverdrawMaintenance 0
scalar OsgEarthNet.uav[34] utilizationCountMissions 39
scalar OsgEarthNet.uav[34] utilizationCountManeuversMission 453
scalar OsgEarthNet.uav[34] utilizationCountManeuversMaintenance 78
scalar OsgEarthNet.uav[34] utilizationCountChargeState 39
scalar OsgEarthNet.uav[34] utilizationCountOverdrawnAfterMission 0
scalar OsgEarthNet.uav[34] utilizationCountIdleState 39
scalar OsgEarthNet.uav[34] utilizationFail 0
scalar OsgEarthNet.uav[34] simulationTime 259200
scalar OsgEarthNet.uav[35] utilizationSecMission 1527.84022332
scalar OsgEarthNet.uav[35] utilizationSecMaintenance 502.32374210357
scalar OsgEarthNet.uav[35] utilizationSecCharge 7440
scalar OsgEarthNet.uav[35] utilizationSecIdle 249729.83503458
scalar OsgEarthNet.uav[35] utilizationEnergyMission 6777.8849639893
scalar OsgEarthNet.uav[35] utilizationEnergyMaintenance 2450.896522522
scalar OsgEarthNet.uav[35] utilizationEnergyCharge 9289.7905273438
scalar OsgEarthNet.uav[35] utilizationEnergyOverdrawMission 0
scalar OsgEarthNet.uav[35] utilizationEnergyOverdrawMaintenance 0
scalar OsgEarthNet.uav[35] utilizationCountMissions 2
scalar OsgEarthNet.uav[35] utilizationCountManeuversMission 23
scalar OsgEarthNet.uav[35] utilizationCountManeuversMaintenance 4
scalar OsgEarthNet.uav[35] utilizationCountChargeState 2
scalar OsgEarthNet.uav[35] utilizationCountOverdrawnAfterMission 0
scalar OsgEarthNet.uav[35] utilizationCountIdleState 3
scalar OsgEarthNet.uav[35] utilizationFail 0
scalar OsgEarthNet.uav[35] simulationTime 259200
scalar OsgEarthNet.uav[36] utilizationSecMission 623.68863475643
scalar OsgEarthNet.uav[36] utilizationSecMaintenance 394.94199877579
scalar OsgEarthNet.uav[36] utilizationSecCharge 3730
scalar OsgEarthNet.uav[36] utilizationSecIdle 254451.36836647
scalar OsgEarthNet.uav[36] utilizationEnergyMission 2850.3551330566
scalar OsgEarthNet.uav[36] utilizationEnergyMaintenance 1859.3044052124
scalar OsgEarthNet.uav[36] utilizationEnergyCharge 4689.427734375
scalar OsgEarthNet.uav[36] utilizationEnergyOverdrawMission 0
scalar OsgEarthNet.uav[36] utilizationEnergyOverdrawMaintenance 0
scalar OsgEarthNet.uav[36] utilizationCountMissions 1
scalar OsgEarthNet.uav[36] utilizationCountManeuversMission 10
scalar OsgEarthNet.uav[36] utilizationCountManeuversMaintenance 2
scalar OsgEarthNet.uav[36] utilizationCountChargeState 1
scalar OsgEarthNet.uav[36] utilizationCountOverdrawnAfterMission 0
scalar OsgEarthNet.uav[36] utilizationCountIdleState 2
scalar OsgEarthNet.uav[36] utilizationFail 0
scalar OsgEarthNet.uav[36] simulationTime 259200
scalar OsgEarthNet.uav[37] utilizationSecMission 15074.261997821
scalar OsgEarthNet.uav[37] utilizationSecMaintenance 7296.5411119548
scalar OsgEarthNet.uav[37] utilizationSecCharge 80900
scalar OsgEarthNet.uav[37] utilizationSecIdle 155929.19589022
scalar OsgEarthNet.uav[37] utilizationEnergyMission 69436.827678606
scalar OsgEarthNet.uav[37] utilizationEnergyMaintenance 35230.661842346
scalar OsgEarthNet.uav[37] utilizationEnergyCharge 100714.44433594
scalar OsgEarthNet.uav[37] utilizationEnergyOverdrawMission 0
scalar OsgEarthNet.uav[37] utilizationEnergyOverdrawMaintenance 0
scalar OsgEarthNet.uav[37] utilizationCountMissions 22
scalar OsgEarthNet.uav[37] utilizationCountManeuversMission 248
scalar OsgEarthNet.uav[37] utilizationCountManeuversMaintenance 45
scalar OsgEarthNet.uav[37] utilizationCountChargeState 22
scalar OsgEarthNet.uav[37] utilizationCountOverdrawnAfterMission 0
scalar OsgEarthNet.uav[37] utilizationCountIdleState 23
scalar OsgEarthNet.uav[37] utilizationFail 0
scalar OsgEarthNet.uav[37] simulationTime 259200
scalar OsgEarthNet.uav[38] utilizationSecMission 27127.128569456
scalar OsgEarthNet.uav[38] utilizationSecMaintenance 10638.717493873
scalar OsgEarthNet.uav[38] utilizationSecCharge 137727.49962735
scalar OsgEarthNet.uav[38] utilizationSecIdle 83706.653309323
scalar OsgEarthNet.uav[38] utilizationEnergyMission 126477.89060974
scalar OsgEarthNet.uav[38] utilizationEnergyMaintenance 49819.184944153
scalar OsgEarthNet.uav[38] utilizationEnergyCharge 172427.17175293
scalar OsgEarthNet.uav[38] utilizationEnergyOverdrawMission 0
scalar OsgEarthNet.uav[38] utilizationEnergyOverdrawMaintenance 0
scalar OsgEarthNet.uav[38] utilizationCountMissions 38
scalar OsgEarthNet.uav[38] utilizationCountManeuversMission 430
scalar OsgEarthNet.uav[38] utilizationCountManeuversMaintenance 76
scalar OsgEarthNet.uav[38] utilizationCountChargeState 38
scalar OsgEarthNet.uav[38] utilizationCountOverdrawnAfterMission 0
scalar OsgEarthNet.uav[38] utilizationCountIdleState 38
scalar OsgEarthNet.uav[38] utilizationFail 0
scalar OsgEarthNet.uav[38] simulationTime 259200
scalar OsgEarthNet.uav[39] utilizationSecMission 760.62515258028
scalar OsgEarthNet.uav[39] utilizationSecMaintenance 291.95923480269
scalar OsgEarthNet.uav[39] utilizationSecCharge 3740
scalar OsgEarthNet.uav[39] utilizationSecIdle 254407.41461262
scalar OsgEarthNet.uav[39] utilizationEnergyMission 3353.6733856201
scalar OsgEarthNet.uav[39] utilizationEnergyMaintenance 1347.1691818237
scalar OsgEarthNet.uav[39] utilizationEnergyCharge 4700.84375
scalar OsgEarthNet.uav[39] utilizationEnergyOverdrawMission 0
scalar OsgEarthNet.uav[39] utilizationEnergyOverdrawMaintenance 0
scalar OsgEarthNet.uav[39] utilizationCountMissions 1
scalar OsgEarthNet.uav[39] utilizationCountManeuversMission 12
scalar OsgEarthNet.uav[39] utilizationCountManeuversMaintenance 2
scalar OsgEarthNet.uav[39] utilizationCountChargeState 1
scalar OsgEarthNet.uav[39] utilizationCountOverdrawnAfterMission 0
scalar OsgEarthNet.uav[39] utilizationCountIdleState 2
scalar OsgEarthNet.uav[39] utilizationFail 0
scalar OsgEarthNet.uav[39] simulationTime 259200
scalar OsgEarthNet.uav[40] utilizationSecMission 1334.840343768
scalar OsgEarthNet.uav[40] utilizationSecMaintenance 583.07838216182
scalar OsgEarthNet.uav[40] utilizationSecCharge 7250
scalar OsgEarthNet.uav[40] utilizationSecIdle 250032.08027407
scalar OsgEarthNet.uav[40] utilizationEnergyMission 6231.5073699951
scalar OsgEarthNet.uav[40] utilizationEnergyMaintenance 2779.0484352112
scalar OsgEarthNet.uav[40] utilizationEnergyCharge 9010.552734375
scalar OsgEarthNet.uav[40] utilizationEnergyOverdrawMission 0
scalar OsgEarthNet.uav[40] utilizationEnergyOverdrawMaintenance 0
scalar OsgEarthNet.uav[40] utilizationCountMissions 2
scalar OsgEarthNet.uav[40] utilizationCountManeuversMission 22
scalar OsgEarthNet.uav[40] utilizationCountManeuversMaintenance 4
scalar OsgEarthNet.uav[40] utilizationCountChargeState 2
scalar OsgEarthNet.uav[40] utilizationCountOverdrawnAfterMission 0
scalar OsgEarthNet.uav[40] utilizationCountIdleState 3
scalar OsgEarthNet.uav[40] utilizationFail 0
scalar OsgEarthNet.uav[40] simulationTime 259200
scalar OsgEarthNet.uav[41] utilizationSecMission 20331.517622468
scalar OsgEarthNet.uav[41] utilizationSecMaintenance 9449.9833097904
scalar OsgEarthNet.uav[41] utilizationSecCharge 110650
scalar OsgEarthNet.uav[41] utilizationSecIdle 118768.49806774
scalar OsgEarthNet.uav[41] utilizationEnergyMission 93510.668266296
scalar OsgEarthNet.uav[41] utilizationEnergyMaintenance 44587.493812561
scalar OsgEarthNet.uav[41] utilizationEnergyCharge 138160.34179688
scalar OsgEarthNet.uav[41] utilizationEnergyOverdrawMission 0
scalar OsgEarthNet.uav[41] utilizationEnergyOverdrawMaintenance 0
scalar OsgEarthNet.uav[41] utilizationCountMissions 30
scalar OsgEarthNet.uav[41] utilizationCountManeuversMission 337
scalar OsgEarthNet.uav[41] utilizationCountManeuversMaintenance 60
scalar OsgEarthNet.uav[41] utilizationCountChargeState 30
scalar OsgEarthNet.uav[41] utilizationCountOverdrawnAfterMission 0
scalar OsgEarthNet.uav[41] utilizationCountIdleState 31
scalar OsgEarthNet.uav[41] utilizationFail 0
scalar OsgEarthNet.uav[41] simulationTime 259200
scalar OsgEarthNet.uav[42] utilizationSecMission 30732.677945073
scalar OsgEarthNet.uav[42] utilizationSecMaintenance 14476.615813843
scalar OsgEarthNet.uav[42] utilizationSecCharge 165028.70524108
scalar OsgEarthNet.uav[42] utilizationSecIdle 48962
scalar OsgEarthNet.uav[42] utilizationEnergyMission 141939.02138684
scalar OsgEarthNet.uav[42] utilizationEnergyMaintenance 67206.40378952
scalar OsgEarthNet.uav[42] utilizationEnergyCharge 207236.09594727
scalar OsgEarthNet.uav[42] utilizationEnergyOverdrawMission 0
scalar OsgEarthNet.uav[42] utilizationEnergyOverdrawMaintenance 0
scalar OsgEarthNet.uav[42] utilizationCountMissions 45
scalar OsgEarthNet.uav[42] utilizationCountManeuversMission 507
scalar OsgEarthNet.uav[42] utilizationCountManeuversMaintenance 89
scalar OsgEarthNet.uav[42] utilizationCountChargeState 45
scalar OsgEarthNet.uav[42] utilizationCountOverdrawnAfterMission 0
scalar OsgEarthNet.uav[42] utilizationCountIdleState 45
scalar OsgEarthNet.uav[42] utilizationFail 0
scalar OsgEarthNet.uav[42] simulationTime 259200
scalar OsgEarthNet.uav[43] utilizationSecMission 760.62515258028
scalar OsgEarthNet.uav[43] utilizationSecMaintenance 291.95923480269
scalar OsgEarthNet.uav[43] utilizationSecCharge 3920
scalar OsgEarthNet.uav[43] utilizationSecIdle 254227.41461262
scalar OsgEarthNet.uav[43] utilizationEnergyMission 3591.8431930542
scalar OsgEarthNet.uav[43] utilizationEnergyMaintenance 1437.3924789429
scalar OsgEarthNet.uav[43] utilizationEnergyCharge 5029.2373046875
scalar OsgEarthNet.uav[43] utilizationEnergyOverdrawMission 0
scalar OsgEarthNet.uav[43] utilizationEnergyOverdrawMaintenance 0
scalar OsgEarthNet.uav[43] utilizationCountMissions 1
scalar OsgEarthNet.uav[43] utilizationCountManeuversMission 12
scalar OsgEarthNet.uav[43] utilizationCountManeuversMaintenance 2
scalar OsgEarthNet.uav[43] utilizationCountChargeState 1
scalar OsgEarthNet.uav[43] utilizationCountOverdrawnAfterMission 0
scalar OsgEarthNet.uav[43] utilizationCountIdleState 2
scalar OsgEarthNet.uav[43] utilizationFail 0
scalar OsgEarthNet.uav[43] simulationTime 259200
scalar OsgEarthNet.uav[44] utilizationSecMission 22871.823467481
scalar OsgEarthNet.uav[44] utilizationSecMaintenance 9839.5218426593
scalar OsgEarthNet.uav[44] utilizationSecCharge 119632.48690592
scalar OsgEarthNet.uav[44] utilizationSecIdle 106856.16678394
scalar OsgEarthNet.uav[44] utilizationEnergyMission 106303.24347687
scalar OsgEarthNet.uav[44] utilizationEnergyMaintenance 45441.680137634
scalar OsgEarthNet.uav[44] utilizationEnergyCharge 150058.26367188
scalar OsgEarthNet.uav[44] utilizationEnergyOverdrawMission 0
scalar OsgEarthNet.uav[44] utilizationEnergyOverdrawMaintenance 0
scalar OsgEarthNet.uav[44] utilizationCountMissions 33
scalar OsgEarthNet.uav[44] utilizationCountManeuversMission 372
scalar OsgEarthNet.uav[44] utilizationCountManeuversMaintenance 66
scalar OsgEarthNet.uav[44] utilizationCountChargeState 33
scalar OsgEarthNet.uav[44] utilizationCountOverdrawnAfterMission 0
scalar OsgEarthNet.uav[44] utilizationCountIdleState 33
scalar OsgEarthNet.uav[44] utilizationFail 0
scalar OsgEarthNet.uav[44] simulationTime 259200
scalar OsgEarthNet.uav[45] utilizationSecMission 22075.59573857
scalar OsgEarthNet.uav[45] utilizationSecMaintenance 11184.753419439
scalar OsgEarthNet.uav[45] utilizationSecCharge 122990
scalar OsgEarthNet.uav[45] utilizationSecIdle 102949.64984199
scalar OsgEarthNet.uav[45] utilizationEnergyMission 102015.65621948
scalar OsgEarthNet.uav[45] utilizationEnergyMaintenance 52076.214321136
scalar OsgEarthNet.uav[45] utilizationEnergyCharge 153938.87182617
scalar OsgEarthNet.uav[45] utilizationEnergyOverdrawMission 0
scalar OsgEarthNet.uav[45] utilizationEnergyOverdrawMaintenance 0
scalar OsgEarthNet.uav[45] utilizationCountMissions 33
scalar OsgEarthNet.uav[45] utilizationCountManeuversMission 363
scalar OsgEarthNet.uav[45] utilizationCountManeuversMaintenance 66
scalar OsgEarthNet.uav[45] utilizationCountChargeState 33
scalar OsgEarthNet.uav[45] utilizationCountOverdrawnAfterMission 0
scalar OsgEarthNet.uav[45] utilizationCountIdleState 34
scalar OsgEarthNet.uav[45] utilizationFail 0
scalar OsgEarthNet.uav[45] simulationTime 259200
scalar OsgEarthNet.uav[46] utilizationSecMission 14361.54221494
scalar OsgEarthNet.uav[46] utilizationSecMaintenance 4969.4159733652
scalar OsgEarthNet.uav[46] utilizationSecCharge 71140
scalar OsgEarthNet.uav[46] utilizationSecIdle 168729.04081169
scalar OsgEarthNet.uav[46] utilizationEnergyMission 66340.513458252
scalar OsgEarthNet.uav[46] utilizationEnergyMaintenance 23004.07220459
scalar OsgEarthNet.uav[46] utilizationEnergyCharge 89201.104492188
scalar OsgEarthNet.uav[46] utilizationEnergyOverdrawMission 0
scalar OsgEarthNet.uav[46] utilizationEnergyOverdrawMaintenance 0
scalar OsgEarthNet.uav[46] utilizationCountMissions 19
scalar OsgEarthNet.uav[46] utilizationCountManeuversMission 236
scalar OsgEarthNet.uav[46] utilizationCountManeuversMaintenance 38
scalar OsgEarthNet.uav[46] utilizationCountChargeState 19
scalar OsgEarthNet.uav[46] utilizationCountOverdrawnAfterMission 0
scalar OsgEarthNet.uav[46] utilizationCountIdleState 20
scalar OsgEarthNet.uav[46] utilizationFail 0
scalar OsgEarthNet.uav[46] simulationTime 259200
scalar OsgEarthNet.uav[47] utilizationSecMission 29693.905986934
scalar OsgEarthNet.uav[47] utilizationSecMaintenance 11115.037187573
scalar OsgEarthNet.uav[47] utilizationSecCharge 149710
scalar OsgEarthNet.uav[47] utilizationSecIdle 68681.055825492
scalar OsgEarthNet.uav[47] utilizationEnergyMission 136521.22714996
scalar OsgEarthNet.uav[47] utilizationEnergyMaintenance 52150.287270367
scalar OsgEarthNet.uav[47] utilizationEnergyCharge 188059.59082031
scalar OsgEarthNet.uav[47] utilizationEnergyOverdrawMission 0
scalar OsgEarthNet.uav[47] utilizationEnergyOverdrawMaintenance 0
scalar OsgEarthNet.uav[47] utilizationCountMissions 40
scalar OsgEarthNet.uav[47] utilizationCountManeuversMission 475
scalar OsgEarthNet.uav[47] utilizationCountManeuversMaintenance 81
scalar OsgEarthNet.uav[47] utilizationCountChargeState 40
scalar OsgEarthNet.uav[47] utilizationCountOverdrawnAfterMission 0
scalar OsgEarthNet.uav[47] utilizationCountIdleState 41
scalar OsgEarthNet.uav[47] utilizationFail 0
scalar OsgEarthNet.uav[47] simulationTime 259200
scalar OsgEarthNet.uav[48] utilizationSecMission 694.00169469977
scalar OsgEarthNet.uav[48] utilizationSecMaintenance 282.18572599206
scalar OsgEarthNet.uav[48] utilizationSecCharge 3700
scalar OsgEarthNet.uav[48] utilizationSecIdle 254523.81157931
scalar OsgEarthNet.uav[48] utilizationEnergyMission 3289.7336349487
scalar OsgEarthNet.uav[48] utilizationEnergyMaintenance 1297.5392074585
scalar OsgEarthNet.uav[48] utilizationEnergyCharge 4587.271484375
scalar OsgEarthNet.uav[48] utilizationEnergyOverdrawMission 0
scalar OsgEarthNet.uav[48] utilizationEnergyOverdrawMaintenance 0
scalar OsgEarthNet.uav[48] utilizationCountMissions 1
scalar OsgEarthNet.uav[48] utilizationCountManeuversMission 13
scalar OsgEarthNet.uav[48] utilizationCountManeuversMaintenance 2
scalar OsgEarthNet.uav[48] utilizationCountChargeState 1
scalar OsgEarthNet.uav[48] utilizationCountOverdrawnAfterMission 0
scalar OsgEarthNet.uav[48] utilizationCountIdleState 2
scalar OsgEarthNet.uav[48] utilizationFail 0
scalar OsgEarthNet.uav[48] simulationTime 259200
scalar OsgEarthNet.uav[49] utilizationSecMission 507.8647069725
scalar OsgEarthNet.uav[49] utilizationSecMaintenance 484.98978100409
scalar OsgEarthNet.uav[49] utilizationSecCharge 3740
scalar OsgEarthNet.uav[49] utilizationSecIdle 254467.14451202
scalar OsgEarthNet.uav[49] utilizationEnergyMission 2266.421585083
scalar OsgEarthNet.uav[49] utilizationEnergyMaintenance 2312.4572868347
scalar OsgEarthNet.uav[49] utilizationEnergyCharge 4694.869140625
scalar OsgEarthNet.uav[49] utilizationEnergyOverdrawMission 0
scalar OsgEarthNet.uav[49] utilizationEnergyOverdrawMaintenance 0
scalar OsgEarthNet.uav[49] utilizationCountMissions 1
scalar OsgEarthNet.uav[49] utilizationCountManeuversMission 8
scalar OsgEarthNet.uav[49] utilizationCountManeuversMaintenance 2
scalar OsgEarthNet.uav[49] utilizationCountChargeState 1
scalar OsgEarthNet.uav[49] utilizationCountOverdrawnAfterMission 0
scalar OsgEarthNet.uav[49] utilizationCountIdleState 2
scalar OsgEarthNet.uav[49] utilizationFail 0
scalar OsgEarthNet.uav[49] simulationTime 259200
scalar OsgEarthNet.uav[50] utilizationSecMission 750.20472747826
scalar OsgEarthNet.uav[50] utilizationSecMaintenance 261.68051383311
scalar OsgEarthNet.uav[50] utilizationSecCharge 3670
scalar OsgEarthNet.uav[50] utilizationSecIdle 254518.11375869
scalar OsgEarthNet.uav[50] utilizationEnergyMission 3432.3314056396
scalar OsgEarthNet.uav[50] utilizationEnergyMaintenance 1154.0415458679
scalar OsgEarthNet.uav[50] utilizationEnergyCharge 4586.3720703125
scalar OsgEarthNet.uav[50] utilizationEnergyOverdrawMission 0
scalar OsgEarthNet.uav[50] utilizationEnergyOverdrawMaintenance 0
scalar OsgEarthNet.uav[50] utilizationCountMissions 1
scalar OsgEarthNet.uav[50] utilizationCountManeuversMission 11
scalar OsgEarthNet.uav[50] utilizationCountManeuversMaintenance 2
scalar OsgEarthNet.uav[50] utilizationCountChargeState 1
scalar OsgEarthNet.uav[50] utilizationCountOverdrawnAfterMission 0
scalar OsgEarthNet.uav[50] utilizationCountIdleState 2
scalar OsgEarthNet.uav[50] utilizationFail 0
scalar OsgEarthNet.uav[50] simulationTime 259200
scalar OsgEarthNet.uav[51] utilizationSecMission 4868.2872688575
scalar OsgEarthNet.uav[51] utilizationSecMaintenance 2032.0244204979
scalar OsgEarthNet.uav[51] utilizationSecCharge 25680
scalar OsgEarthNet.uav[51] utilizationSecIdle 226619.68731064
scalar OsgEarthNet.uav[51] utilizationEnergyMission 22431.128265381
scalar OsgEarthNet.uav[51] utilizationEnergyMaintenance 9580.3552856445
scalar OsgEarthNet.uav[51] utilizationEnergyCharge 31992.565917969
scalar OsgEarthNet.uav[51] utilizationEnergyOverdrawMission 0
scalar OsgEarthNet.uav[51] utilizationEnergyOverdrawMaintenance 0
scalar OsgEarthNet.uav[51] utilizationCountMissions 7
scalar OsgEarthNet.uav[51] utilizationCountManeuversMission 86
scalar OsgEarthNet.uav[51] utilizationCountManeuversMaintenance 14
scalar OsgEarthNet.uav[51] utilizationCountChargeState 7
scalar OsgEarthNet.uav[51] utilizationCountOverdrawnAfterMission 0
scalar OsgEarthNet.uav[51] utilizationCountIdleState 8
scalar OsgEarthNet.uav[51] utilizationFail 0
scalar OsgEarthNet.uav[51] simulationTime 259200
scalar OsgEarthNet.uav[52] utilizationSecMission 29689.133453734
scalar OsgEarthNet.uav[52] utilizationSecMaintenance 13478.865546266
scalar OsgEarthNet.uav[52] utilizationSecCharge 160070
scalar OsgEarthNet.uav[52] utilizationSecIdle 55962
scalar OsgEarthNet.uav[52] utilizationEnergyMission 137941.76860576
scalar OsgEarthNet.uav[52] utilizationEnergyMaintenance 63004.484488885
scalar OsgEarthNet.uav[52] utilizationEnergyCharge 200184.0078125
scalar OsgEarthNet.uav[52] utilizationEnergyOverdrawMission 0
scalar OsgEarthNet.uav[52] utilizationEnergyOverdrawMaintenance 0
scalar OsgEarthNet.uav[52] utilizationCountMissions 43
scalar OsgEarthNet.uav[52] utilizationCountManeuversMission 497
scalar OsgEarthNet.uav[52] utilizationCountManeuversMaintenance 86
scalar OsgEarthNet.uav[52] utilizationCountChargeState 43
scalar OsgEarthNet.uav[52] utilizationCountOverdrawnAfterMission 0
scalar OsgEarthNet.uav[52] utilizationCountIdleState 44
scalar OsgEarthNet.uav[52] utilizationFail 0
scalar OsgEarthNet.uav[52] simulationTime 259200
scalar OsgEarthNet.uav[53] utilizationSecMission 581.19640448947
scalar OsgEarthNet.uav[53] utilizationSecMaintenance 393.71026136566
scalar OsgEarthNet.uav[53] utilizationSecCharge 3830
scalar OsgEarthNet.uav[53] utilizationSecIdle 254395.09233414
scalar OsgEarthNet.uav[53] utilizationEnergyMission 2811.5427246094
scalar OsgEarthNet.uav[53] utilizationEnergyMaintenance 1968.3977279663
scalar OsgEarthNet.uav[53] utilizationEnergyCharge 4857.2934570312
scalar OsgEarthNet.uav[53] utilizationEnergyOverdrawMission 0
scalar OsgEarthNet.uav[53] utilizationEnergyOverdrawMaintenance 0
scalar OsgEarthNet.uav[53] utilizationCountMissions 1
scalar OsgEarthNet.uav[53] utilizationCountManeuversMission 9
scalar OsgEarthNet.uav[53] utilizationCountManeuversMaintenance 2
scalar OsgEarthNet.uav[53] utilizationCountChargeState 1
scalar OsgEarthNet.uav[53] utilizationCountOverdrawnAfterMission 0
scalar OsgEarthNet.uav[53] utilizationCountIdleState 2
scalar OsgEarthNet.uav[53] utilizationFail 0
scalar OsgEarthNet.uav[53] simulationTime 259200
scalar OsgEarthNet.uav[54] utilizationSecMission 30732.618859414
scalar OsgEarthNet.uav[54] utilizationSecMaintenance 10926.281311019
scalar OsgEarthNet.uav[54] utilizationSecCharge 154360
scalar OsgEarthNet.uav[54] utilizationSecIdle 63181.098829567
scalar OsgEarthNet.uav[54] utilizationEnergyMission 142230.79849243
scalar OsgEarthNet.uav[54] utilizationEnergyMaintenance 51759.698406219
scalar OsgEarthNet.uav[54] utilizationEnergyCharge 194322.67919922
scalar OsgEarthNet.uav[54] utilizationEnergyOverdrawMission 0
scalar OsgEarthNet.uav[54] utilizationEnergyOverdrawMaintenance 0
scalar OsgEarthNet.uav[54] utilizationCountMissions 41
scalar OsgEarthNet.uav[54] utilizationCountManeuversMission 492
scalar OsgEarthNet.uav[54] utilizationCountManeuversMaintenance 82
scalar OsgEarthNet.uav[54] utilizationCountChargeState 41
scalar OsgEarthNet.uav[54] utilizationCountOverdrawnAfterMission 0
scalar OsgEarthNet.uav[54] utilizationCountIdleState 42
scalar OsgEarthNet.uav[54] utilizationFail 0
scalar OsgEarthNet.uav[54] simulationTime 259200
scalar OsgEarthNet.uav[55] utilizationSecMission 694.00169469977
scalar OsgEarthNet.uav[55] utilizationSecMaintenance 338.49695459722
scalar OsgEarthNet.uav[55] utilizationSecCharge 3730
scalar OsgEarthNet.uav[55] utilizationSecIdle 254437.5003507
scalar OsgEarthNet.uav[55] utilizationEnergyMission 3060.4372177124
scalar OsgEarthNet.uav[55] utilizationEnergyMaintenance 1589.1124382019
scalar OsgEarthNet.uav[55] utilizationEnergyCharge 4649.546875
scalar OsgEarthNet.uav[55] utilizationEnergyOverdrawMission 0
scalar OsgEarthNet.uav[55] utilizationEnergyOverdrawMaintenance 0
scalar OsgEarthNet.uav[55] utilizationCountMissions 1
scalar OsgEarthNet.uav[55] utilizationCountManeuversMission 13
scalar OsgEarthNet.uav[55] utilizationCountManeuversMaintenance 2
scalar OsgEarthNet.uav[55] utilizationCountChargeState 1
scalar OsgEarthNet.uav[55] utilizationCountOverdrawnAfterMission 0
scalar OsgEarthNet.uav[55] utilizationCountIdleState 2
scalar OsgEarthNet.uav[55] utilizationFail 0
scalar OsgEarthNet.uav[55] simulationTime 259200
scalar OsgEarthNet.uav[56] utilizationSecMission 29595.517661912
scalar OsgEarthNet.uav[56] utilizationSecMaintenance 14121.855177298
scalar OsgEarthNet.uav[56] utilizationSecCharge 158950
scalar OsgEarthNet.uav[56] utilizationSecIdle 56532.626160789
scalar OsgEarthNet.uav[56] utilizationEnergyMission 135288.49813696
scalar OsgEarthNet.uav[56] utilizationEnergyMaintenance 66896.847431183
scalar OsgEarthNet.uav[56] utilizationEnergyCharge 198514.88354492
scalar OsgEarthNet.uav[56] utilizationEnergyOverdrawMission 0
scalar OsgEarthNet.uav[56] utilizationEnergyOverdrawMaintenance 0
scalar OsgEarthNet.uav[56] utilizationCountMissions 43
scalar OsgEarthNet.uav[56] utilizationCountManeuversMission 484
scalar OsgEarthNet.uav[56] utilizationCountManeuversMaintenance 87
scalar OsgEarthNet.uav[56] utilizationCountChargeState 43
scalar OsgEarthNet.uav[56] utilizationCountOverdrawnAfterMission 0
scalar OsgEarthNet.uav[56] utilizationCountIdleState 44
scalar OsgEarthNet.uav[56] utilizationFail 0
scalar OsgEarthNet.uav[56] simulationTime 259200
scalar OsgEarthNet.uav[57] utilizationSecMission 27127.409322815
scalar OsgEarthNet.uav[57] utilizationSecMaintenance 10612.314800356
scalar OsgEarthNet.uav[57] utilizationSecCharge 138740
scalar OsgEarthNet.uav[57] utilizationSecIdle 82720.274876828
scalar OsgEarthNet.uav[57] utilizationEnergyMission 124777.50976562
scalar OsgEarthNet.uav[57] utilizationEnergyMaintenance 49588.454795837
scalar OsgEarthNet.uav[57] utilizationEnergyCharge 174323.48583984
scalar OsgEarthNet.uav[57] utilizationEnergyOverdrawMission 0
scalar OsgEarthNet.uav[57] utilizationEnergyOverdrawMaintenance 0
scalar OsgEarthNet.uav[57] utilizationCountMissions 37
scalar OsgEarthNet.uav[57] utilizationCountManeuversMission 433
scalar OsgEarthNet.uav[57] utilizationCountManeuversMaintenance 74
scalar OsgEarthNet.uav[57] utilizationCountChargeState 37
scalar OsgEarthNet.uav[57] utilizationCountOverdrawnAfterMission 0
scalar OsgEarthNet.uav[57] utilizationCountIdleState 38
scalar OsgEarthNet.uav[57] utilizationFail 0
scalar OsgEarthNet.uav[57] simulationTime 259200
scalar OsgEarthNet.uav[58] utilizationSecMission 26310.969734539
scalar OsgEarthNet.uav[58] utilizationSecMaintenance 15954.602551776
scalar OsgEarthNet.uav[58] utilizationSecCharge 153586.97644965
scalar OsgEarthNet.uav[58] utilizationSecIdle 63347.450264031
scalar OsgEarthNet.uav[58] utilizationEnergyMission 121002.32844543
scalar OsgEarthNet.uav[58] utilizationEnergyMaintenance 74730.366825104
scalar OsgEarthNet.uav[58] utilizationEnergyCharge 192994.44958496
scalar OsgEarthNet.uav[58] utilizationEnergyOverdrawMission 0
scalar OsgEarthNet.uav[58] utilizationEnergyOverdrawMaintenance 0
scalar OsgEarthNet.uav[58] utilizationCountMissions 42
scalar OsgEarthNet.uav[58] utilizationCountManeuversMission 428
scalar OsgEarthNet.uav[58] utilizationCountManeuversMaintenance 84
scalar OsgEarthNet.uav[58] utilizationCountChargeState 42
scalar OsgEarthNet.uav[58] utilizationCountOverdrawnAfterMission 0
scalar OsgEarthNet.uav[58] utilizationCountIdleState 42
scalar OsgEarthNet.uav[58] utilizationFail 0
scalar OsgEarthNet.uav[58] simulationTime 259200
scalar OsgEarthNet.uav[59] utilizationSecMission 23153.429217696
scalar OsgEarthNet.uav[59] utilizationSecMaintenance 10694.081355611
scalar OsgEarthNet.uav[59] utilizationSecCharge 126950
scalar OsgEarthNet.uav[59] utilizationSecIdle 98402.488426693
scalar OsgEarthNet.uav[59] utilizationEnergyMission 107212.366539
scalar OsgEarthNet.uav[59] utilizationEnergyMaintenance 51036.580245972
scalar OsgEarthNet.uav[59] utilizationEnergyCharge 157281.05981445
scalar OsgEarthNet.uav[59] utilizationEnergyOverdrawMission 0
scalar OsgEarthNet.uav[59] utilizationEnergyOverdrawMaintenance 0
scalar OsgEarthNet.uav[59] utilizationCountMissions 35
scalar OsgEarthNet.uav[59] utilizationCountManeuversMission 377
scalar OsgEarthNet.uav[59] utilizationCountManeuversMaintenance 70
scalar OsgEarthNet.uav[59] utilizationCountChargeState 35
scalar OsgEarthNet.uav[59] utilizationCountOverdrawnAfterMission 0
scalar OsgEarthNet.uav[59] utilizationCountIdleState 36
scalar OsgEarthNet.uav[59] utilizationFail 0
scalar OsgEarthNet.uav[59] simulationTime 259200
scalar OsgEarthNet.uav[60] utilizationSecMission 750.20472747826
scalar OsgEarthNet.uav[60] utilizationSecMaintenance 261.68051383311
scalar OsgEarthNet.uav[60] utilizationSecCharge 3910
scalar OsgEarthNet.uav[60] utilizationSecIdle 254278.11375869
scalar OsgEarthNet.uav[60] utilizationEnergyMission 3732.1797943115
scalar OsgEarthNet.uav[60] utilizationEnergyMaintenance 1267.2404899597
scalar OsgEarthNet.uav[60] utilizationEnergyCharge 4999.419921875
scalar OsgEarthNet.uav[60] utilizationEnergyOverdrawMission 0
scalar OsgEarthNet.uav[60] utilizationEnergyOverdrawMaintenance 0
scalar OsgEarthNet.uav[60] utilizationCountMissions 1
scalar OsgEarthNet.uav[60] utilizationCountManeuversMission 11
scalar OsgEarthNet.uav[60] utilizationCountManeuversMaintenance 2
scalar OsgEarthNet.uav[60] utilizationCountChargeState 1
scalar OsgEarthNet.uav[60] utilizationCountOverdrawnAfterMission 0
scalar OsgEarthNet.uav[60] utilizationCountIdleState 2
scalar OsgEarthNet.uav[60] utilizationFail 0
scalar OsgEarthNet.uav[60] simulationTime 259200
scalar OsgEarthNet.uav[61] utilizationSecMission 23341.143495001
scalar OsgEarthNet.uav[61] utilizationSecMaintenance 12155.165837129
scalar OsgEarthNet.uav[61] utilizationSecCharge 132536.50188278
scalar OsgEarthNet.uav[61] utilizationSecIdle 91167.187785093
scalar OsgEarthNet.uav[61] utilizationEnergyMission 108775.12999725
scalar OsgEarthNet.uav[61] utilizationEnergyMaintenance 57473.567398071
scalar OsgEarthNet.uav[61] utilizationEnergyCharge 165932.9375
scalar OsgEarthNet.uav[61] utilizationEnergyOverdrawMission 0
scalar OsgEarthNet.uav[61] utilizationEnergyOverdrawMaintenance 0
scalar OsgEarthNet.uav[61] utilizationCountMissions 36
scalar OsgEarthNet.uav[61] utilizationCountManeuversMission 393
scalar OsgEarthNet.uav[61] utilizationCountManeuversMaintenance 72
scalar OsgEarthNet.uav[61] utilizationCountChargeState 36
scalar OsgEarthNet.uav[61] utilizationCountOverdrawnAfterMission 0
scalar OsgEarthNet.uav[61] utilizationCountIdleState 36
scalar OsgEarthNet.uav[61] utilizationFail 0
scalar OsgEarthNet.uav[61] simulationTime 259200
scalar OsgEarthNet.uav[62] utilizationSecMission 694.00169469977
scalar OsgEarthNet.uav[62] utilizationSecMaintenance 282.18572599206
scalar OsgEarthNet.uav[62] utilizationSecCharge 3680
scalar OsgEarthNet.uav[62] utilizationSecIdle 254543.81157931
scalar OsgEarthNet.uav[62] utilizationEnergyMission 3357.4879760742
scalar OsgEarthNet.uav[62] utilizationEnergyMaintenance 1200.8370895386
scalar OsgEarthNet.uav[62] utilizationEnergyCharge 4558.3276367188
scalar OsgEarthNet.uav[62] utilizationEnergyOverdrawMission 0
scalar OsgEarthNet.uav[62] utilizationEnergyOverdrawMaintenance 0
scalar OsgEarthNet.uav[62] utilizationCountMissions 1
scalar OsgEarthNet.uav[62] utilizationCountManeuversMission 13
scalar OsgEarthNet.uav[62] utilizationCountManeuversMaintenance 2
scalar OsgEarthNet.uav[62] utilizationCountChargeState 1
scalar OsgEarthNet.uav[62] utilizationCountOverdrawnAfterMission 0
scalar OsgEarthNet.uav[62] utilizationCountIdleState 2
scalar OsgEarthNet.uav[62] utilizationFail 0
scalar OsgEarthNet.uav[62] simulationTime 259200
scalar OsgEarthNet.uav[63] utilizationSecMission 870.88319133083
scalar OsgEarthNet.uav[63] utilizationSecMaintenance 200.56315354943
scalar OsgEarthNet.uav[63] utilizationSecCharge 3780
scalar OsgEarthNet.uav[63] utilizationSecIdle 254348.55265512
scalar OsgEarthNet.uav[63] utilizationEnergyMission 3989.1004714966
scalar OsgEarthNet.uav[63] utilizationEnergyMaintenance 1000.669090271
scalar OsgEarthNet.uav[63] utilizationEnergyCharge 4763.5541992188
scalar OsgEarthNet.uav[63] utilizationEnergyOverdrawMission 0
scalar OsgEarthNet.uav[63] utilizationEnergyOverdrawMaintenance 0
scalar OsgEarthNet.uav[63] utilizationCountMissions 1
scalar OsgEarthNet.uav[63] utilizationCountManeuversMission 13
scalar OsgEarthNet.uav[63] utilizationCountManeuversMaintenance 2
scalar OsgEarthNet.uav[63] utilizationCountChargeState 1
scalar OsgEarthNet.uav[63] utilizationCountOverdrawnAfterMission 0
scalar OsgEarthNet.uav[63] utilizationCountIdleState 2
scalar OsgEarthNet.uav[63] utilizationFail 0
scalar OsgEarthNet.uav[63] simulationTime 259200
scalar OsgEarthNet.uav[64] utilizationSecMission 28942.764780461
scalar OsgEarthNet.uav[64] utilizationSecMaintenance 14052.622330023
scalar OsgEarthNet.uav[64] utilizationSecCharge 157340
scalar OsgEarthNet.uav[64] utilizationSecIdle 58864.611889516
scalar OsgEarthNet.uav[64] utilizationEnergyMission 133017.62670542
scalar OsgEarthNet.uav[64] utilizationEnergyMaintenance 65470.693847656
scalar OsgEarthNet.uav[64] utilizationEnergyCharge 195759.52075195
scalar OsgEarthNet.uav[64] utilizationEnergyOverdrawMission 0
scalar OsgEarthNet.uav[64] utilizationEnergyOverdrawMaintenance 0
scalar OsgEarthNet.uav[64] utilizationCountMissions 43
scalar OsgEarthNet.uav[64] utilizationCountManeuversMission 475
scalar OsgEarthNet.uav[64] utilizationCountManeuversMaintenance 87
scalar OsgEarthNet.uav[64] utilizationCountChargeState 43
scalar OsgEarthNet.uav[64] utilizationCountOverdrawnAfterMission 0
scalar OsgEarthNet.uav[64] utilizationCountIdleState 44
scalar OsgEarthNet.uav[64] utilizationFail 0
scalar OsgEarthNet.uav[64] simulationTime 259200
scalar OsgEarthNet.uav[65] utilizationSecMission 4469.5886473164
scalar OsgEarthNet.uav[65] utilizationSecMaintenance 1686.0306113538
scalar OsgEarthNet.uav[65] utilizationSecCharge 21900
scalar OsgEarthNet.uav[65] utilizationSecIdle 231144.37974133
scalar OsgEarthNet.uav[65] utilizationEnergyMission 19783.241363525
[...]
scalar OsgEarthNet.uav[82] utilizationSecIdle 254321.41646243
scalar OsgEarthNet.uav[82] utilizationEnergyMission 4033.3828125
scalar OsgEarthNet.uav[82] utilizationEnergyMaintenance 682.64934539795
scalar OsgEarthNet.uav[82] utilizationEnergyCharge 4713.7758789062
scalar OsgEarthNet.uav[82] utilizationEnergyOverdrawMission 0
scalar OsgEarthNet.uav[82] utilizationEnergyOverdrawMaintenance 0
scalar OsgEarthNet.uav[82] utilizationCountMissions 1
scalar OsgEarthNet.uav[82] utilizationCountManeuversMission 15
scalar OsgEarthNet.uav[82] utilizationCountManeuversMaintenance 2
scalar OsgEarthNet.uav[82] utilizationCountChargeState 1
scalar OsgEarthNet.uav[82] utilizationCountOverdrawnAfterMission 0
scalar OsgEarthNet.uav[82] utilizationCountIdleState 2
scalar OsgEarthNet.uav[82] utilizationFail 0
scalar OsgEarthNet.uav[82] simulationTime 259200
scalar OsgEarthNet.uav[83] utilizationSecMission 836.77707522227
scalar OsgEarthNet.uav[83] utilizationSecMaintenance 217.0347828456
scalar OsgEarthNet.uav[83] utilizationSecCharge 3800
scalar OsgEarthNet.uav[83] utilizationSecIdle 254346.18714193
scalar OsgEarthNet.uav[83] utilizationEnergyMission 3838.1368560791
scalar OsgEarthNet.uav[83] utilizationEnergyMaintenance 964.18629074097
scalar OsgEarthNet.uav[83] utilizationEnergyCharge 4802.3256835938
scalar OsgEarthNet.uav[83] utilizationEnergyOverdrawMission 0
scalar OsgEarthNet.uav[83] utilizationEnergyOverdrawMaintenance 0
scalar OsgEarthNet.uav[83] utilizationCountMissions 1
scalar OsgEarthNet.uav[83] utilizationCountManeuversMission 13
scalar OsgEarthNet.uav[83] utilizationCountManeuversMaintenance 2
scalar OsgEarthNet.uav[83] utilizationCountChargeState 1
scalar OsgEarthNet.uav[83] utilizationCountOverdrawnAfterMission 0
scalar OsgEarthNet.uav[83] utilizationCountIdleState 2
scalar OsgEarthNet.uav[83] utilizationFail 0
scalar OsgEarthNet.uav[83] simulationTime 259200
scalar OsgEarthNet.uav[84] utilizationSecMission 28411.921793072
scalar OsgEarthNet.uav[84] utilizationSecMaintenance 14351.075490683
scalar OsgEarthNet.uav[84] utilizationSecCharge 156171.62275354
scalar OsgEarthNet.uav[84] utilizationSecIdle 60265.378962708
scalar OsgEarthNet.uav[84] utilizationEnergyMission 131297.76174927
scalar OsgEarthNet.uav[84] utilizationEnergyMaintenance 68275.82673645
scalar OsgEarthNet.uav[84] utilizationEnergyCharge 195865.63763428
scalar OsgEarthNet.uav[84] utilizationEnergyOverdrawMission 0
scalar OsgEarthNet.uav[84] utilizationEnergyOverdrawMaintenance 0
scalar OsgEarthNet.uav[84] utilizationCountMissions 43
scalar OsgEarthNet.uav[84] utilizationCountManeuversMission 468
scalar OsgEarthNet.uav[84] utilizationCountManeuversMaintenance 86
scalar OsgEarthNet.uav[84] utilizationCountChargeState 43
scalar OsgEarthNet.uav[84] utilizationCountOverdrawnAfterMission 0
scalar OsgEarthNet.uav[84] utilizationCountIdleState 43
scalar OsgEarthNet.uav[84] utilizationFail 0
scalar OsgEarthNet.uav[84] simulationTime 259200
scalar OsgEarthNet.uav[85] utilizationSecMission 28432.369454483
scalar OsgEarthNet.uav[85] utilizationSecMaintenance 11916.139134101
scalar OsgEarthNet.uav[85] utilizationSecCharge 150745.2485758
scalar OsgEarthNet.uav[85] utilizationSecIdle 68106.241835621
scalar OsgEarthNet.uav[85] utilizationEnergyMission 133027.10095215
scalar OsgEarthNet.uav[85] utilizationEnergyMaintenance 56178.28080368
scalar OsgEarthNet.uav[85] utilizationEnergyCharge 189540.48925781
scalar OsgEarthNet.uav[85] utilizationEnergyOverdrawMission 0
scalar OsgEarthNet.uav[85] utilizationEnergyOverdrawMaintenance 0
scalar OsgEarthNet.uav[85] utilizationCountMissions 41
scalar OsgEarthNet.uav[85] utilizationCountManeuversMission 469
scalar OsgEarthNet.uav[85] utilizationCountManeuversMaintenance 82
scalar OsgEarthNet.uav[85] utilizationCountChargeState 41
scalar OsgEarthNet.uav[85] utilizationCountOverdrawnAfterMission 0
scalar OsgEarthNet.uav[85] utilizationCountIdleState 41
scalar OsgEarthNet.uav[85] utilizationFail 0
scalar OsgEarthNet.uav[85] simulationTime 259200
scalar OsgEarthNet.uav[86] utilizationSecMission 702.6942798579
scalar OsgEarthNet.uav[86] utilizationSecMaintenance 282.29565405678
scalar OsgEarthNet.uav[86] utilizationSecCharge 3680
scalar OsgEarthNet.uav[86] utilizationSecIdle 254535.00906609
scalar OsgEarthNet.uav[86] utilizationEnergyMission 3308.275390625
scalar OsgEarthNet.uav[86] utilizationEnergyMaintenance 1259.7868766785
scalar OsgEarthNet.uav[86] utilizationEnergyCharge 4568.0649414062
scalar OsgEarthNet.uav[86] utilizationEnergyOverdrawMission 0
scalar OsgEarthNet.uav[86] utilizationEnergyOverdrawMaintenance 0
scalar OsgEarthNet.uav[86] utilizationCountMissions 1
scalar OsgEarthNet.uav[86] utilizationCountManeuversMission 10
scalar OsgEarthNet.uav[86] utilizationCountManeuversMaintenance 2
scalar OsgEarthNet.uav[86] utilizationCountChargeState 1
scalar OsgEarthNet.uav[86] utilizationCountOverdrawnAfterMission 0
scalar OsgEarthNet.uav[86] utilizationCountIdleState 2
scalar OsgEarthNet.uav[86] utilizationFail 0
scalar OsgEarthNet.uav[86] simulationTime 259200
scalar OsgEarthNet.uav[87] utilizationSecMission 28061.250487797
scalar OsgEarthNet.uav[87] utilizationSecMaintenance 14779.736600905
scalar OsgEarthNet.uav[87] utilizationSecCharge 156907.0119113
scalar OsgEarthNet.uav[87] utilizationSecIdle 59452
scalar OsgEarthNet.uav[87] utilizationEnergyMission 128736.4850235
scalar OsgEarthNet.uav[87] utilizationEnergyMaintenance 69779.884433746
scalar OsgEarthNet.uav[87] utilizationEnergyCharge 196829.95458984
scalar OsgEarthNet.uav[87] utilizationEnergyOverdrawMission 0
scalar OsgEarthNet.uav[87] utilizationEnergyOverdrawMaintenance 0
scalar OsgEarthNet.uav[87] utilizationCountMissions 43
scalar OsgEarthNet.uav[87] utilizationCountManeuversMission 471
scalar OsgEarthNet.uav[87] utilizationCountManeuversMaintenance 85
scalar OsgEarthNet.uav[87] utilizationCountChargeState 43
scalar OsgEarthNet.uav[87] utilizationCountOverdrawnAfterMission 0
scalar OsgEarthNet.uav[87] utilizationCountIdleState 43
scalar OsgEarthNet.uav[87] utilizationFail 0
scalar OsgEarthNet.uav[87] simulationTime 259200
scalar OsgEarthNet.uav[88] utilizationSecMission 11040.279160426
scalar OsgEarthNet.uav[88] utilizationSecMaintenance 4218.818752149
scalar OsgEarthNet.uav[88] utilizationSecCharge 55600
scalar OsgEarthNet.uav[88] utilizationSecIdle 188340.90108743
scalar OsgEarthNet.uav[88] utilizationEnergyMission 50017.522926331
scalar OsgEarthNet.uav[88] utilizationEnergyMaintenance 19452.21307373
scalar OsgEarthNet.uav[88] utilizationEnergyCharge 69654.555175781
scalar OsgEarthNet.uav[88] utilizationEnergyOverdrawMission 0
scalar OsgEarthNet.uav[88] utilizationEnergyOverdrawMaintenance 0
scalar OsgEarthNet.uav[88] utilizationCountMissions 15
scalar OsgEarthNet.uav[88] utilizationCountManeuversMission 179
scalar OsgEarthNet.uav[88] utilizationCountManeuversMaintenance 30
scalar OsgEarthNet.uav[88] utilizationCountChargeState 15
scalar OsgEarthNet.uav[88] utilizationCountOverdrawnAfterMission 0
scalar OsgEarthNet.uav[88] utilizationCountIdleState 16
scalar OsgEarthNet.uav[88] utilizationFail 0
scalar OsgEarthNet.uav[88] simulationTime 259200
scalar OsgEarthNet.uav[89] utilizationSecMission 836.77707522227
scalar OsgEarthNet.uav[89] utilizationSecMaintenance 217.0347828456
scalar OsgEarthNet.uav[89] utilizationSecCharge 3780
scalar OsgEarthNet.uav[89] utilizationSecIdle 254366.18714193
scalar OsgEarthNet.uav[89] utilizationEnergyMission 3702.7586212158
scalar OsgEarthNet.uav[89] utilizationEnergyMaintenance 1094.2904472351
scalar OsgEarthNet.uav[89] utilizationEnergyCharge 4797.0512695312
scalar OsgEarthNet.uav[89] utilizationEnergyOverdrawMission 0
scalar OsgEarthNet.uav[89] utilizationEnergyOverdrawMaintenance 0
scalar OsgEarthNet.uav[89] utilizationCountMissions 1
scalar OsgEarthNet.uav[89] utilizationCountManeuversMission 13
scalar OsgEarthNet.uav[89] utilizationCountManeuversMaintenance 2
scalar OsgEarthNet.uav[89] utilizationCountChargeState 1
scalar OsgEarthNet.uav[89] utilizationCountOverdrawnAfterMission 0
scalar OsgEarthNet.uav[89] utilizationCountIdleState 2
scalar OsgEarthNet.uav[89] utilizationFail 0
scalar OsgEarthNet.uav[89] simulationTime 259200
scalar OsgEarthNet.uav[90] utilizationSecMission 760.62515258028
scalar OsgEarthNet.uav[90] utilizationSecMaintenance 291.95923480269
scalar OsgEarthNet.uav[90] utilizationSecCharge 3860
scalar OsgEarthNet.uav[90] utilizationSecIdle 254287.41461262
scalar OsgEarthNet.uav[90] utilizationEnergyMission 3465.9496612549
scalar OsgEarthNet.uav[90] utilizationEnergyMaintenance 1476.9693832397
scalar OsgEarthNet.uav[90] utilizationEnergyCharge 4942.9189453125
scalar OsgEarthNet.uav[90] utilizationEnergyOverdrawMission 0
scalar OsgEarthNet.uav[90] utilizationEnergyOverdrawMaintenance 0
scalar OsgEarthNet.uav[90] utilizationCountMissions 1
scalar OsgEarthNet.uav[90] utilizationCountManeuversMission 12
scalar OsgEarthNet.uav[90] utilizationCountManeuversMaintenance 2
scalar OsgEarthNet.uav[90] utilizationCountChargeState 1
scalar OsgEarthNet.uav[90] utilizationCountOverdrawnAfterMission 0
scalar OsgEarthNet.uav[90] utilizationCountIdleState 2
scalar OsgEarthNet.uav[90] utilizationFail 0
scalar OsgEarthNet.uav[90] simulationTime 259200
scalar OsgEarthNet.uav[91] utilizationSecMission 597.53391521556
scalar OsgEarthNet.uav[91] utilizationSecMaintenance 388.71128889908
scalar OsgEarthNet.uav[91] utilizationSecCharge 3700
scalar OsgEarthNet.uav[91] utilizationSecIdle 254513.75379589
scalar OsgEarthNet.uav[91] utilizationEnergyMission 2797.9066772461
scalar OsgEarthNet.uav[91] utilizationEnergyMaintenance 1844.3003959656
scalar OsgEarthNet.uav[91] utilizationEnergyCharge 4630.802734375
scalar OsgEarthNet.uav[91] utilizationEnergyOverdrawMission 0
scalar OsgEarthNet.uav[91] utilizationEnergyOverdrawMaintenance 0
scalar OsgEarthNet.uav[91] utilizationCountMissions 1
scalar OsgEarthNet.uav[91] utilizationCountManeuversMission 9
scalar OsgEarthNet.uav[91] utilizationCountManeuversMaintenance 2
scalar OsgEarthNet.uav[91] utilizationCountChargeState 1
scalar OsgEarthNet.uav[91] utilizationCountOverdrawnAfterMission 0
scalar OsgEarthNet.uav[91] utilizationCountIdleState 2
scalar OsgEarthNet.uav[91] utilizationFail 0
scalar OsgEarthNet.uav[91] simulationTime 259200
scalar OsgEarthNet.uav[92] utilizationSecMission 19699.892988934
scalar OsgEarthNet.uav[92] utilizationSecMaintenance 9153.4006485244
scalar OsgEarthNet.uav[92] utilizationSecCharge 104510
scalar OsgEarthNet.uav[92] utilizationSecIdle 125836.70536254
scalar OsgEarthNet.uav[92] utilizationEnergyMission 91421.57916442
scalar OsgEarthNet.uav[92] utilizationEnergyMaintenance 42255.606445313
scalar OsgEarthNet.uav[92] utilizationEnergyCharge 130958.31323242
scalar OsgEarthNet.uav[92] utilizationEnergyOverdrawMission 0
scalar OsgEarthNet.uav[92] utilizationEnergyOverdrawMaintenance 0
scalar OsgEarthNet.uav[92] utilizationCountMissions 28
scalar OsgEarthNet.uav[92] utilizationCountManeuversMission 329
scalar OsgEarthNet.uav[92] utilizationCountManeuversMaintenance 57
scalar OsgEarthNet.uav[92] utilizationCountChargeState 28
scalar OsgEarthNet.uav[92] utilizationCountOverdrawnAfterMission 0
scalar OsgEarthNet.uav[92] utilizationCountIdleState 29
scalar OsgEarthNet.uav[92] utilizationFail 0
scalar OsgEarthNet.uav[92] simulationTime 259200
scalar OsgEarthNet.uav[93] utilizationSecMission 750.20472747826
scalar OsgEarthNet.uav[93] utilizationSecMaintenance 261.68051383311
scalar OsgEarthNet.uav[93] utilizationSecCharge 3480
scalar OsgEarthNet.uav[93] utilizationSecIdle 254708.11375869
scalar OsgEarthNet.uav[93] utilizationEnergyMission 3188.377456665
scalar OsgEarthNet.uav[93] utilizationEnergyMaintenance 1118.9970207214
scalar OsgEarthNet.uav[93] utilizationEnergyCharge 4307.3764648438
scalar OsgEarthNet.uav[93] utilizationEnergyOverdrawMission 0
scalar OsgEarthNet.uav[93] utilizationEnergyOverdrawMaintenance 0
scalar OsgEarthNet.uav[93] utilizationCountMissions 1
scalar OsgEarthNet.uav[93] utilizationCountManeuversMission 11
scalar OsgEarthNet.uav[93] utilizationCountManeuversMaintenance 2
scalar OsgEarthNet.uav[93] utilizationCountChargeState 1
scalar OsgEarthNet.uav[93] utilizationCountOverdrawnAfterMission 0
scalar OsgEarthNet.uav[93] utilizationCountIdleState 2
scalar OsgEarthNet.uav[93] utilizationFail 0
scalar OsgEarthNet.uav[93] simulationTime 259200
scalar OsgEarthNet.uav[94] utilizationSecMission 26712.948247335
scalar OsgEarthNet.uav[94] utilizationSecMaintenance 12715.950952284
scalar OsgEarthNet.uav[94] utilizationSecCharge 145437.914717
scalar OsgEarthNet.uav[94] utilizationSecIdle 74333.185083383
scalar OsgEarthNet.uav[94] utilizationEnergyMission 123455.4511528
scalar OsgEarthNet.uav[94] utilizationEnergyMaintenance 60127.358428955
scalar OsgEarthNet.uav[94] utilizationEnergyCharge 182034.38256836
scalar OsgEarthNet.uav[94] utilizationEnergyOverdrawMission 0
scalar OsgEarthNet.uav[94] utilizationEnergyOverdrawMaintenance 0
scalar OsgEarthNet.uav[94] utilizationCountMissions 40
scalar OsgEarthNet.uav[94] utilizationCountManeuversMission 438
scalar OsgEarthNet.uav[94] utilizationCountManeuversMaintenance 80
scalar OsgEarthNet.uav[94] utilizationCountChargeState 40
scalar OsgEarthNet.uav[94] utilizationCountOverdrawnAfterMission 0
scalar OsgEarthNet.uav[94] utilizationCountIdleState 40
scalar OsgEarthNet.uav[94] utilizationFail 0
scalar OsgEarthNet.uav[94] simulationTime 259200
scalar OsgEarthNet.uav[95] utilizationSecMission 25511.282563209
scalar OsgEarthNet.uav[95] utilizationSecMaintenance 10676.542893789
scalar OsgEarthNet.uav[95] utilizationSecCharge 131380.77505862
scalar OsgEarthNet.uav[95] utilizationSecIdle 91631.398484386
scalar OsgEarthNet.uav[95] utilizationEnergyMission 118221.87145233
scalar OsgEarthNet.uav[95] utilizationEnergyMaintenance 48663.730644226
scalar OsgEarthNet.uav[95] utilizationEnergyCharge 166392.41113281
scalar OsgEarthNet.uav[95] utilizationEnergyOverdrawMission 0
scalar OsgEarthNet.uav[95] utilizationEnergyOverdrawMaintenance 0
scalar OsgEarthNet.uav[95] utilizationCountMissions 35
scalar OsgEarthNet.uav[95] utilizationCountManeuversMission 417
scalar OsgEarthNet.uav[95] utilizationCountManeuversMaintenance 70
scalar OsgEarthNet.uav[95] utilizationCountChargeState 35
scalar OsgEarthNet.uav[95] utilizationCountOverdrawnAfterMission 0
scalar OsgEarthNet.uav[95] utilizationCountIdleState 35
scalar OsgEarthNet.uav[95] utilizationFail 0
scalar OsgEarthNet.uav[95] simulationTime 259200
scalar OsgEarthNet.uav[96] utilizationSecMission 27477.977255707
scalar OsgEarthNet.uav[96] utilizationSecMaintenance 12184.405704223
scalar OsgEarthNet.uav[96] utilizationSecCharge 146195.47621833
scalar OsgEarthNet.uav[96] utilizationSecIdle 73342.139821739
scalar OsgEarthNet.uav[96] utilizationEnergyMission 127645.76454926
scalar OsgEarthNet.uav[96] utilizationEnergyMaintenance 57768.461620331
scalar OsgEarthNet.uav[96] utilizationEnergyCharge 183755.18798828
scalar OsgEarthNet.uav[96] utilizationEnergyOverdrawMission 0
scalar OsgEarthNet.uav[96] utilizationEnergyOverdrawMaintenance 0
scalar OsgEarthNet.uav[96] utilizationCountMissions 40
scalar OsgEarthNet.uav[96] utilizationCountManeuversMission 440
scalar OsgEarthNet.uav[96] utilizationCountManeuversMaintenance 80
scalar OsgEarthNet.uav[96] utilizationCountChargeState 40
scalar OsgEarthNet.uav[96] utilizationCountOverdrawnAfterMission 0
scalar OsgEarthNet.uav[96] utilizationCountIdleState 40
scalar OsgEarthNet.uav[96] utilizationFail 0
scalar OsgEarthNet.uav[96] simulationTime 259200
scalar OsgEarthNet.uav[97] utilizationSecMission 22987.771515847
scalar OsgEarthNet.uav[97] utilizationSecMaintenance 9818.942255574
scalar OsgEarthNet.uav[97] utilizationSecCharge 122390
scalar OsgEarthNet.uav[97] utilizationSecIdle 104003.28522858
scalar OsgEarthNet.uav[97] utilizationEnergyMission 106655.66187286
scalar OsgEarthNet.uav[97] utilizationEnergyMaintenance 46902.164203644
scalar OsgEarthNet.uav[97] utilizationEnergyCharge 153214.43603516
scalar OsgEarthNet.uav[97] utilizationEnergyOverdrawMission 0
scalar OsgEarthNet.uav[97] utilizationEnergyOverdrawMaintenance 0
scalar OsgEarthNet.uav[97] utilizationCountMissions 33
scalar OsgEarthNet.uav[97] utilizationCountManeuversMission 362
scalar OsgEarthNet.uav[97] utilizationCountManeuversMaintenance 66
scalar OsgEarthNet.uav[97] utilizationCountChargeState 33
scalar OsgEarthNet.uav[97] utilizationCountOverdrawnAfterMission 0
scalar OsgEarthNet.uav[97] utilizationCountIdleState 34
scalar OsgEarthNet.uav[97] utilizationFail 0
scalar OsgEarthNet.uav[97] simulationTime 259200
scalar OsgEarthNet.uav[98] utilizationSecMission 2296.9569940326
scalar OsgEarthNet.uav[98] utilizationSecMaintenance 843.75519937349
scalar OsgEarthNet.uav[98] utilizationSecCharge 11400
scalar OsgEarthNet.uav[98] utilizationSecIdle 244659.28680659
scalar OsgEarthNet.uav[98] utilizationEnergyMission 10104.599937439
scalar OsgEarthNet.uav[98] utilizationEnergyMaintenance 3898.2118225098
scalar OsgEarthNet.uav[98] utilizationEnergyCharge 14312.245605469
scalar OsgEarthNet.uav[98] utilizationEnergyOverdrawMission 0
scalar OsgEarthNet.uav[98] utilizationEnergyOverdrawMaintenance 0
scalar OsgEarthNet.uav[98] utilizationCountMissions 3
scalar OsgEarthNet.uav[98] utilizationCountManeuversMission 38
scalar OsgEarthNet.uav[98] utilizationCountManeuversMaintenance 6
scalar OsgEarthNet.uav[98] utilizationCountChargeState 3
scalar OsgEarthNet.uav[98] utilizationCountOverdrawnAfterMission 0
scalar OsgEarthNet.uav[98] utilizationCountIdleState 4
scalar OsgEarthNet.uav[98] utilizationFail 0
scalar OsgEarthNet.uav[98] simulationTime 259200
scalar OsgEarthNet.uav[99] utilizationSecMission 4093.6048997958
scalar OsgEarthNet.uav[99] utilizationSecMaintenance 2097.0874985237
scalar OsgEarthNet.uav[99] utilizationSecCharge 23130
scalar OsgEarthNet.uav[99] utilizationSecIdle 229879.30660168
scalar OsgEarthNet.uav[99] utilizationEnergyMission 18784.782783508
scalar OsgEarthNet.uav[99] utilizationEnergyMaintenance 10229.500831604
scalar OsgEarthNet.uav[99] utilizationEnergyCharge 29285.879394531
scalar OsgEarthNet.uav[99] utilizationEnergyOverdrawMission 0
scalar OsgEarthNet.uav[99] utilizationEnergyOverdrawMaintenance 0
scalar OsgEarthNet.uav[99] utilizationCountMissions 6
scalar OsgEarthNet.uav[99] utilizationCountManeuversMission 65
scalar OsgEarthNet.uav[99] utilizationCountManeuversMaintenance 12
scalar OsgEarthNet.uav[99] utilizationCountChargeState 6
scalar OsgEarthNet.uav[99] utilizationCountOverdrawnAfterMission 0
scalar OsgEarthNet.uav[99] utilizationCountIdleState 7
scalar OsgEarthNet.uav[99] utilizationFail 0
scalar OsgEarthNet.uav[99] simulationTime 259200
scalar OsgEarthNet.cs[0] usedPower 504414.68020219
scalar OsgEarthNet.cs[0] chargedPower 504414.68020219
scalar OsgEarthNet.cs[0] chargedMobileNodes 108
scalar OsgEarthNet.cs[0] reservations 110
scalar OsgEarthNet.cs[1] usedPower 1078337.1062058
scalar OsgEarthNet.cs[1] chargedPower 1078337.1062058
scalar OsgEarthNet.cs[1] chargedMobileNodes 228
scalar OsgEarthNet.cs[1] reservations 232
scalar OsgEarthNet.cs[2] usedPower 2777891.1094235
scalar OsgEarthNet.cs[2] chargedPower 2777891.1094235
scalar OsgEarthNet.cs[2] chargedMobileNodes 588
scalar OsgEarthNet.cs[2] reservations 593
scalar OsgEarthNet.cs[3] usedPower 634660.93594123
scalar OsgEarthNet.cs[3] chargedPower 634660.93594123
scalar OsgEarthNet.cs[3] chargedMobileNodes 139
scalar OsgEarthNet.cs[3] reservations 144
scalar OsgEarthNet.cs[4] usedPower 702813.23412477
scalar OsgEarthNet.cs[4] chargedPower 702813.23412477
scalar OsgEarthNet.cs[4] chargedMobileNodes 154
scalar OsgEarthNet.cs[4] reservations 157
scalar OsgEarthNet.cs[5] usedPower 554278.15319321
scalar OsgEarthNet.cs[5] chargedPower 554278.15319321
scalar OsgEarthNet.cs[5] chargedMobileNodes 116
scalar OsgEarthNet.cs[5] reservations 117
scalar OsgEarthNet.cs[6] usedPower 2363589.3586558
scalar OsgEarthNet.cs[6] chargedPower 2363589.3586558
scalar OsgEarthNet.cs[6] chargedMobileNodes 505
scalar OsgEarthNet.cs[6] reservations 513

