version 2
run Szenario_Hotel_Gabelbach-70-20180709-02:22:40-18484
attr configname Szenario_Hotel_Gabelbach
attr datetime 20180709-02:22:40
attr experiment Szenario_Hotel_Gabelbach
attr inifile omnetpp.ini
attr iterationvars $replM=2
attr iterationvarsf replM=2-
attr measurement $replM=2
attr network OsgEarthNet
attr processid 18484
attr repetition 22
attr replication #22
attr resultdir results
attr runnumber 70
attr seedset 70
itervar replM 2
param *.osgEarthScene.scene "\"Szenario_Hotel_Gabelbach.earth\""
param *.playgroundLatitude 50.6830269
param *.playgroundLongitude 10.8538055
param *.playgroundWidth 3500m
param *.playgroundHeight 3500m
param *.numUAVs 100
param *.cs[0].posX 3537m
param *.cs[0].posY 965m
param *.cs[0].posZ 538m
param *.cs[1].posX 312m
param *.cs[1].posY 1262m
param *.cs[1].posZ 539m
param *.cs[2].posX 2185m
param *.cs[2].posY 3026m
param *.cs[2].posZ 777m
param *.cs[3].posX 10m
param *.cs[3].posY 2200m
param *.cs[3].posZ 560m
param *.cs[4].posX 750m
param *.cs[4].posY 200m
param *.cs[4].posZ 540m
param *.cs[5].posX 2450m
param *.cs[5].posY 180m
param *.cs[5].posZ 524m
param *.cs[6].posX 3140m
param *.cs[6].posY 1790m
param *.cs[6].posZ 606m
param *.numCSs 7
param *.uav[*].replacementMethod 2
param *.*.timeStep 10s
param *.uav[*].commandPreviewCommandCount 20
param *.missionControl.missionFiles "\"missions\\\\Szenario_WB_Hotel_Gabelbach_Mission_Hotel.waypoints,missions\\\\Szenario_WB_Hotel_Gabelbach_Mission_Kickelhahn.waypoints,missions\\\\Szenario_WB_Hotel_Gabelbach_Mission_Ilmenau_Sportplatz.waypoints,missions\\\\Szenario_WB_Hotel_Gabelbach_Mission_Manebach_Mitte.waypoints,missions\\\\Szenario_WB_Hotel_Gabelbach_Mission_Manebach_Sued.waypoints\""
param *.missionControl.missionFiles "\"missions\\\\Szenario_WB_Hotel_Gabelbach_Mission_Hotel.waypoints,missions\\\\Szenario_WB_Hotel_Gabelbach_Mission_Kickelhahn.waypoints,missions\\\\Szenario_WB_Hotel_Gabelbach_Mission_Ilmenau_Sportplatz.waypoints,missions\\\\Szenario_WB_Hotel_Gabelbach_Mission_Manebach_Mitte.waypoints,missions\\\\Szenario_WB_Hotel_Gabelbach_Mission_Manebach_Sued.waypoints,missions\\\\Szenario_WB_Hotel_Gabelbach_Hover_HoheSchlaufe.waypoints,missions\\\\Szenario_WB_Hotel_Gabelbach_Hover_Kickelhahn.waypoints,missions\\\\Szenario_WB_Hotel_Gabelbach_Hover_Gabelbachskopf.waypoints,missions\\\\Szenario_WB_Hotel_Gabelbach_Hover_Dachskopf.waypoints\""
param *.uav[0].startX 3537m
param *.uav[0].startY 965m
param *.uav[0].startZ 539m
param *.uav[1].startX 312m
param *.uav[1].startY 1262m
param *.uav[1].startZ 540m
param *.uav[2].startX 2185m
param *.uav[2].startY 3026m
param *.uav[2].startZ 778m
param *.uav[3].startX 3537m
param *.uav[3].startY 965m
param *.uav[3].startZ 539m
param *.uav[4].startX 312m
param *.uav[4].startY 1262m
param *.uav[4].startZ 540m
param *.uav[5].startX 2185m
param *.uav[5].startY 3026m
param *.uav[5].startZ 778m
param *.uav[6].startX 3537m
param *.uav[6].startY 965m
param *.uav[6].startZ 539m
param *.uav[7].startX 312m
param *.uav[7].startY 1262m
param *.uav[7].startZ 540m
param *.uav[8].startX 2185m
param *.uav[8].startY 3026m
param *.uav[8].startZ 778m
param *.uav[9].startX 3537m
param *.uav[9].startY 965m
param *.uav[9].startZ 539m
param *.uav[10].startX 3537m
param *.uav[10].startY 965m
param *.uav[10].startZ 539m
param *.uav[11].startX 312m
param *.uav[11].startY 1262m
param *.uav[11].startZ 540m
param *.uav[12].startX 2185m
param *.uav[12].startY 3026m
param *.uav[12].startZ 778m
param *.uav[13].startX 3537m
param *.uav[13].startY 965m
param *.uav[13].startZ 539m
param *.uav[14].startX 312m
param *.uav[14].startY 1262m
param *.uav[14].startZ 540m
param *.uav[15].startX 2185m
param *.uav[15].startY 3026m
param *.uav[15].startZ 778m
param *.uav[16].startX 3537m
param *.uav[16].startY 965m
param *.uav[16].startZ 539m
param *.uav[17].startX 312m
param *.uav[17].startY 1262m
param *.uav[17].startZ 540m
param *.uav[18].startX 2185m
param *.uav[18].startY 3026m
param *.uav[18].startZ 778m
param *.uav[19].startX 3537m
param *.uav[19].startY 965m
param *.uav[19].startZ 539m
param *.uav[20].startX 3537m
param *.uav[20].startY 965m
param *.uav[20].startZ 539m
param *.uav[21].startX 312m
param *.uav[21].startY 1262m
param *.uav[21].startZ 540m
param *.uav[22].startX 2185m
param *.uav[22].startY 3026m
param *.uav[22].startZ 778m
param *.uav[23].startX 3537m
param *.uav[23].startY 965m
param *.uav[23].startZ 539m
param *.uav[24].startX 312m
param *.uav[24].startY 1262m
param *.uav[24].startZ 540m
param *.uav[25].startX 2185m
param *.uav[25].startY 3026m
param *.uav[25].startZ 778m
param *.uav[26].startX 3537m
param *.uav[26].startY 965m
param *.uav[26].startZ 539m
param *.uav[27].startX 312m
param *.uav[27].startY 1262m
param *.uav[27].startZ 540m
param *.uav[28].startX 2185m
param *.uav[28].startY 3026m
param *.uav[28].startZ 778m
param *.uav[29].startX 3537m
param *.uav[29].startY 965m
param *.uav[29].startZ 539m
param *.uav[30].startX 3537m
param *.uav[30].startY 965m
param *.uav[30].startZ 539m
param *.uav[31].startX 312m
param *.uav[31].startY 1262m
param *.uav[31].startZ 540m
param *.uav[32].startX 2185m
param *.uav[32].startY 3026m
param *.uav[32].startZ 778m
param *.uav[33].startX 3537m
param *.uav[33].startY 965m
param *.uav[33].startZ 539m
param *.uav[34].startX 312m
param *.uav[34].startY 1262m
param *.uav[34].startZ 540m
param *.uav[35].startX 2185m
param *.uav[35].startY 3026m
param *.uav[35].startZ 778m
param *.uav[36].startX 3537m
param *.uav[36].startY 965m
param *.uav[36].startZ 539m
param *.uav[37].startX 312m
param *.uav[37].startY 1262m
param *.uav[37].startZ 540m
param *.uav[38].startX 2185m
param *.uav[38].startY 3026m
param *.uav[38].startZ 778m
param *.uav[39].startX 3537m
param *.uav[39].startY 965m
param *.uav[39].startZ 539m
param *.uav[40].startX 3537m
param *.uav[40].startY 965m
param *.uav[40].startZ 539m
param *.uav[41].startX 312m
param *.uav[41].startY 1262m
param *.uav[41].startZ 540m
param *.uav[42].startX 2185m
param *.uav[42].startY 3026m
param *.uav[42].startZ 778m
param *.uav[43].startX 3537m
param *.uav[43].startY 965m
param *.uav[43].startZ 539m
param *.uav[44].startX 312m
param *.uav[44].startY 1262m
param *.uav[44].startZ 540m
param *.uav[45].startX 2185m
param *.uav[45].startY 3026m
param *.uav[45].startZ 778m
param *.uav[46].startX 3537m
param *.uav[46].startY 965m
param *.uav[46].startZ 539m
param *.uav[47].startX 312m
param *.uav[47].startY 1262m
param *.uav[47].startZ 540m
param *.uav[48].startX 2185m
param *.uav[48].startY 3026m
param *.uav[48].startZ 778m
param *.uav[49].startX 3537m
param *.uav[49].startY 965m
param *.uav[49].startZ 539m
param *.uav[50].startX 3537m
param *.uav[50].startY 965m
param *.uav[50].startZ 539m
param *.uav[51].startX 312m
param *.uav[51].startY 1262m
param *.uav[51].startZ 540m
param *.uav[52].startX 2185m
param *.uav[52].startY 3026m
param *.uav[52].startZ 778m
param *.uav[53].startX 3537m
param *.uav[53].startY 965m
param *.uav[53].startZ 539m
param *.uav[54].startX 312m
param *.uav[54].startY 1262m
param *.uav[54].startZ 540m
param *.uav[55].startX 2185m
param *.uav[55].startY 3026m
param *.uav[55].startZ 778m
param *.uav[56].startX 3537m
param *.uav[56].startY 965m
param *.uav[56].startZ 539m
param *.uav[57].startX 312m
param *.uav[57].startY 1262m
param *.uav[57].startZ 540m
param *.uav[58].startX 2185m
param *.uav[58].startY 3026m
param *.uav[58].startZ 778m
param *.uav[59].startX 3537m
param *.uav[59].startY 965m
param *.uav[59].startZ 539m
param *.uav[60].startX 3537m
param *.uav[60].startY 965m
param *.uav[60].startZ 539m
param *.uav[61].startX 312m
param *.uav[61].startY 1262m
param *.uav[61].startZ 540m
param *.uav[62].startX 2185m
param *.uav[62].startY 3026m
param *.uav[62].startZ 778m
param *.uav[63].startX 3537m
param *.uav[63].startY 965m
param *.uav[63].startZ 539m
param *.uav[64].startX 312m
param *.uav[64].startY 1262m
param *.uav[64].startZ 540m
param *.uav[65].startX 2185m
param *.uav[65].startY 3026m
param *.uav[65].startZ 778m
param *.uav[66].startX 3537m
param *.uav[66].startY 965m
param *.uav[66].startZ 539m
param *.uav[67].startX 312m
param *.uav[67].startY 1262m
param *.uav[67].startZ 540m
param *.uav[68].startX 2185m
param *.uav[68].startY 3026m
param *.uav[68].startZ 778m
param *.uav[69].startX 3537m
param *.uav[69].startY 965m
param *.uav[69].startZ 539m
param *.uav[70].startX 3537m
param *.uav[70].startY 965m
param *.uav[70].startZ 539m
param *.uav[71].startX 312m
param *.uav[71].startY 1262m
param *.uav[71].startZ 540m
param *.uav[72].startX 2185m
param *.uav[72].startY 3026m
param *.uav[72].startZ 778m
param *.uav[73].startX 3537m
param *.uav[73].startY 965m
param *.uav[73].startZ 539m
param *.uav[74].startX 312m
param *.uav[74].startY 1262m
param *.uav[74].startZ 540m
param *.uav[75].startX 2185m
param *.uav[75].startY 3026m
param *.uav[75].startZ 778m
param *.uav[76].startX 3537m
param *.uav[76].startY 965m
param *.uav[76].startZ 539m
param *.uav[77].startX 312m
param *.uav[77].startY 1262m
param *.uav[77].startZ 540m
param *.uav[78].startX 2185m
param *.uav[78].startY 3026m
param *.uav[78].startZ 778m
param *.uav[79].startX 3537m
param *.uav[79].startY 965m
param *.uav[79].startZ 539m
param *.uav[80].startX 3537m
param *.uav[80].startY 965m
param *.uav[80].startZ 539m
param *.uav[81].startX 312m
param *.uav[81].startY 1262m
param *.uav[81].startZ 540m
param *.uav[82].startX 2185m
param *.uav[82].startY 3026m
param *.uav[82].startZ 778m
param *.uav[83].startX 3537m
param *.uav[83].startY 965m
param *.uav[83].startZ 539m
param *.uav[84].startX 312m
param *.uav[84].startY 1262m
param *.uav[84].startZ 540m
param *.uav[85].startX 2185m
param *.uav[85].startY 3026m
param *.uav[85].startZ 778m
param *.uav[86].startX 3537m
param *.uav[86].startY 965m
param *.uav[86].startZ 539m
param *.uav[87].startX 312m
param *.uav[87].startY 1262m
param *.uav[87].startZ 540m
param *.uav[88].startX 2185m
param *.uav[88].startY 3026m
param *.uav[88].startZ 778m
param *.uav[89].startX 3537m
param *.uav[89].startY 965m
param *.uav[89].startZ 539m
param *.uav[90].startX 3537m
param *.uav[90].startY 965m
param *.uav[90].startZ 539m
param *.uav[91].startX 312m
param *.uav[91].startY 1262m
param *.uav[91].startZ 540m
param *.uav[92].startX 2185m
param *.uav[92].startY 3026m
param *.uav[92].startZ 778m
param *.uav[93].startX 3537m
param *.uav[93].startY 965m
param *.uav[93].startZ 539m
param *.uav[94].startX 312m
param *.uav[94].startY 1262m
param *.uav[94].startZ 540m
param *.uav[95].startX 2185m
param *.uav[95].startY 3026m
param *.uav[95].startZ 778m
param *.uav[96].startX 3537m
param *.uav[96].startY 965m
param *.uav[96].startZ 539m
param *.uav[97].startX 312m
param *.uav[97].startY 1262m
param *.uav[97].startZ 540m
param *.uav[98].startX 2185m
param *.uav[98].startY 3026m
param *.uav[98].startZ 778m
param *.uav[99].startX 3537m
param *.uav[99].startY 965m
param *.uav[99].startZ 539m
param *.osgEarthScene.scene "\"boston.earth\""
param *.playgroundLatitude 42.3558
param *.playgroundLongitude -71.0677
param *.playgroundWidth 400m
param *.playgroundHeight 200m
param *.channelController.connectionColor "\"#0000FF40\""
param *.channelController.showConnections false
param *.uav[*].modelURL "\"quadrocopter.small.obj.15.scale.0,0,90.rot\""
param *.uav[*].labelColor "\"#FF7C00CC\""
param *.uav[*].label2Color "\"#FF7C00EE\""
param *.uav[*].batteryCapacity 5200mAh
param *.uav[*].batteryRemaining uav[index].batteryCapacity
param *.uav[*].predictionQuantile 0.95
param *.uav[*].replacementMethod 2
param *.uav[*].weightedSumWeight 0.5
param *.cs[*].modelURL "\"chargingstation_v1.osgt.2.scale.0,0,0.rot.0,0,-15e-1.trans\""
param *.cs[*].spotsWaiting 999
param *.cs[*].spotsCharging 999
param *.cs[*].chargeEffectivenessPercentage 100
param *.cs[*].nonLinearPhaseStartPercentage 85
param *.cs[*].chargeCurrent 6.0A
param *.cs[*].prioritizeFastCharge true
param *.missionControl.replacementSearchMethod 0
param *.*.timeStep 9s

scalar OsgEarthNet.uav[0] utilizationSecMission 30686.085235337
scalar OsgEarthNet.uav[0] utilizationSecMaintenance 15191.429476277
scalar OsgEarthNet.uav[0] utilizationSecCharge 169510
scalar OsgEarthNet.uav[0] utilizationSecIdle 43812.484288386
scalar OsgEarthNet.uav[0] utilizationEnergyMission 141293.81826982
scalar OsgEarthNet.uav[0] utilizationEnergyMaintenance 70238.503883362
scalar OsgEarthNet.uav[0] utilizationEnergyCharge 212046.96508789
scalar OsgEarthNet.uav[0] utilizationEnergyOverdrawMission 0
scalar OsgEarthNet.uav[0] utilizationEnergyOverdrawMaintenance 0
scalar OsgEarthNet.uav[0] utilizationCountMissions 46
scalar OsgEarthNet.uav[0] utilizationCountManeuversMission 495
scalar OsgEarthNet.uav[0] utilizationCountManeuversMaintenance 91
scalar OsgEarthNet.uav[0] utilizationCountChargeState 46
scalar OsgEarthNet.uav[0] utilizationCountOverdrawnAfterMission 0
scalar OsgEarthNet.uav[0] utilizationCountIdleState 47
scalar OsgEarthNet.uav[0] utilizationFail 0
scalar OsgEarthNet.uav[0] simulationTime 259200
scalar OsgEarthNet.uav[1] utilizationSecMission 27216.278217732
scalar OsgEarthNet.uav[1] utilizationSecMaintenance 12673.999080772
scalar OsgEarthNet.uav[1] utilizationSecCharge 143672.9453901
scalar OsgEarthNet.uav[1] utilizationSecIdle 75636.776311391
scalar OsgEarthNet.uav[1] utilizationEnergyMission 125895.96372223
scalar OsgEarthNet.uav[1] utilizationEnergyMaintenance 58617.576034546
scalar OsgEarthNet.uav[1] utilizationEnergyCharge 179714.21096802
scalar OsgEarthNet.uav[1] utilizationEnergyOverdrawMission 0
scalar OsgEarthNet.uav[1] utilizationEnergyOverdrawMaintenance 0
scalar OsgEarthNet.uav[1] utilizationCountMissions 40
scalar OsgEarthNet.uav[1] utilizationCountManeuversMission 458
scalar OsgEarthNet.uav[1] utilizationCountManeuversMaintenance 80
scalar OsgEarthNet.uav[1] utilizationCountChargeState 40
scalar OsgEarthNet.uav[1] utilizationCountOverdrawnAfterMission 0
scalar OsgEarthNet.uav[1] utilizationCountIdleState 40
scalar OsgEarthNet.uav[1] utilizationFail 0
scalar OsgEarthNet.uav[1] simulationTime 259200
scalar OsgEarthNet.uav[2] utilizationSecMission 887.1741082606
scalar OsgEarthNet.uav[2] utilizationSecMaintenance 181.20511066264
scalar OsgEarthNet.uav[2] utilizationSecCharge 3900
scalar OsgEarthNet.uav[2] utilizationSecIdle 254231.61978108
scalar OsgEarthNet.uav[2] utilizationEnergyMission 4053.379699707
scalar OsgEarthNet.uav[2] utilizationEnergyMaintenance 985.95594406128
scalar OsgEarthNet.uav[2] utilizationEnergyCharge 4975.6528320312
scalar OsgEarthNet.uav[2] utilizationEnergyOverdrawMission 0
scalar OsgEarthNet.uav[2] utilizationEnergyOverdrawMaintenance 0
scalar OsgEarthNet.uav[2] utilizationCountMissions 1
scalar OsgEarthNet.uav[2] utilizationCountManeuversMission 14
scalar OsgEarthNet.uav[2] utilizationCountManeuversMaintenance 2
scalar OsgEarthNet.uav[2] utilizationCountChargeState 1
scalar OsgEarthNet.uav[2] utilizationCountOverdrawnAfterMission 0
scalar OsgEarthNet.uav[2] utilizationCountIdleState 2
scalar OsgEarthNet.uav[2] utilizationFail 0
scalar OsgEarthNet.uav[2] simulationTime 259200
scalar OsgEarthNet.uav[3] utilizationSecMission 760.62515258028
scalar OsgEarthNet.uav[3] utilizationSecMaintenance 223.6438949726
scalar OsgEarthNet.uav[3] utilizationSecCharge 3590
scalar OsgEarthNet.uav[3] utilizationSecIdle 254625.72995245
scalar OsgEarthNet.uav[3] utilizationEnergyMission 3457.9474334717
scalar OsgEarthNet.uav[3] utilizationEnergyMaintenance 1021.1531181335
scalar OsgEarthNet.uav[3] utilizationEnergyCharge 4479.0981445312
scalar OsgEarthNet.uav[3] utilizationEnergyOverdrawMission 0
scalar OsgEarthNet.uav[3] utilizationEnergyOverdrawMaintenance 0
scalar OsgEarthNet.uav[3] utilizationCountMissions 1
scalar OsgEarthNet.uav[3] utilizationCountManeuversMission 12
scalar OsgEarthNet.uav[3] utilizationCountManeuversMaintenance 2
scalar OsgEarthNet.uav[3] utilizationCountChargeState 1
scalar OsgEarthNet.uav[3] utilizationCountOverdrawnAfterMission 0
scalar OsgEarthNet.uav[3] utilizationCountIdleState 2
scalar OsgEarthNet.uav[3] utilizationFail 0
scalar OsgEarthNet.uav[3] simulationTime 259200
scalar OsgEarthNet.uav[4] utilizationSecMission 20418.548896504
scalar OsgEarthNet.uav[4] utilizationSecMaintenance 11402.665686975
scalar OsgEarthNet.uav[4] utilizationSecCharge 115320
scalar OsgEarthNet.uav[4] utilizationSecIdle 112058.78441652
scalar OsgEarthNet.uav[4] utilizationEnergyMission 95925.000640869
scalar OsgEarthNet.uav[4] utilizationEnergyMaintenance 53343.696159858
scalar OsgEarthNet.uav[4] utilizationEnergyCharge 144887.28808594
scalar OsgEarthNet.uav[4] utilizationEnergyOverdrawMission 0
scalar OsgEarthNet.uav[4] utilizationEnergyOverdrawMaintenance 0
scalar OsgEarthNet.uav[4] utilizationCountMissions 32
scalar OsgEarthNet.uav[4] utilizationCountManeuversMission 346
scalar OsgEarthNet.uav[4] utilizationCountManeuversMaintenance 64
scalar OsgEarthNet.uav[4] utilizationCountChargeState 31
scalar OsgEarthNet.uav[4] utilizationCountOverdrawnAfterMission 0
scalar OsgEarthNet.uav[4] utilizationCountIdleState 32
scalar OsgEarthNet.uav[4] utilizationFail 0
scalar OsgEarthNet.uav[4] simulationTime 259200
scalar OsgEarthNet.uav[5] utilizationSecMission 13578.351094363
scalar OsgEarthNet.uav[5] utilizationSecMaintenance 6409.3259114617
scalar OsgEarthNet.uav[5] utilizationSecCharge 74310
scalar OsgEarthNet.uav[5] utilizationSecIdle 164902.32199418
scalar OsgEarthNet.uav[5] utilizationEnergyMission 62906.404891968
scalar OsgEarthNet.uav[5] utilizationEnergyMaintenance 30177.796066284
scalar OsgEarthNet.uav[5] utilizationEnergyCharge 93100.014160156
scalar OsgEarthNet.uav[5] utilizationEnergyOverdrawMission 0
scalar OsgEarthNet.uav[5] utilizationEnergyOverdrawMaintenance 0
scalar OsgEarthNet.uav[5] utilizationCountMissions 20
scalar OsgEarthNet.uav[5] utilizationCountManeuversMission 234
scalar OsgEarthNet.uav[5] utilizationCountManeuversMaintenance 40
scalar OsgEarthNet.uav[5] utilizationCountChargeState 20
scalar OsgEarthNet.uav[5] utilizationCountOverdrawnAfterMission 0
scalar OsgEarthNet.uav[5] utilizationCountIdleState 21
scalar OsgEarthNet.uav[5] utilizationFail 0
scalar OsgEarthNet.uav[5] simulationTime 259200
scalar OsgEarthNet.uav[6] utilizationSecMission 760.62515258028
scalar OsgEarthNet.uav[6] utilizationSecMaintenance 291.95923480269
scalar OsgEarthNet.uav[6] utilizationSecCharge 3970
scalar OsgEarthNet.uav[6] utilizationSecIdle 254177.41461262
scalar OsgEarthNet.uav[6] utilizationEnergyMission 3650.3208770752
scalar OsgEarthNet.uav[6] utilizationEnergyMaintenance 1445.7842025757
scalar OsgEarthNet.uav[6] utilizationEnergyCharge 5096.1049804688
scalar OsgEarthNet.uav[6] utilizationEnergyOverdrawMission 0
scalar OsgEarthNet.uav[6] utilizationEnergyOverdrawMaintenance 0
scalar OsgEarthNet.uav[6] utilizationCountMissions 1
scalar OsgEarthNet.uav[6] utilizationCountManeuversMission 12
scalar OsgEarthNet.uav[6] utilizationCountManeuversMaintenance 2
scalar OsgEarthNet.uav[6] utilizationCountChargeState 1
scalar OsgEarthNet.uav[6] utilizationCountOverdrawnAfterMission 0
scalar OsgEarthNet.uav[6] utilizationCountIdleState 2
scalar OsgEarthNet.uav[6] utilizationFail 0
scalar OsgEarthNet.uav[6] simulationTime 259200
scalar OsgEarthNet.uav[7] utilizationSecMission 28423.79417457
scalar OsgEarthNet.uav[7] utilizationSecMaintenance 14776.758364685
scalar OsgEarthNet.uav[7] utilizationSecCharge 158502.76565286
scalar OsgEarthNet.uav[7] utilizationSecIdle 57496.680807888
scalar OsgEarthNet.uav[7] utilizationEnergyMission 131055.86885834
scalar OsgEarthNet.uav[7] utilizationEnergyMaintenance 68537.96723938
scalar OsgEarthNet.uav[7] utilizationEnergyCharge 198469.48657227
scalar OsgEarthNet.uav[7] utilizationEnergyOverdrawMission 0
scalar OsgEarthNet.uav[7] utilizationEnergyOverdrawMaintenance 0
scalar OsgEarthNet.uav[7] utilizationCountMissions 44
scalar OsgEarthNet.uav[7] utilizationCountManeuversMission 466
scalar OsgEarthNet.uav[7] utilizationCountManeuversMaintenance 88
scalar OsgEarthNet.uav[7] utilizationCountChargeState 44
scalar OsgEarthNet.uav[7] utilizationCountOverdrawnAfterMission 0
scalar OsgEarthNet.uav[7] utilizationCountIdleState 44
scalar OsgEarthNet.uav[7] utilizationFail 0
scalar OsgEarthNet.uav[7] simulationTime 259200
scalar OsgEarthNet.uav[8] utilizationSecMission 887.1741082606
scalar OsgEarthNet.uav[8] utilizationSecMaintenance 181.20511066264
scalar OsgEarthNet.uav[8] utilizationSecCharge 3790
scalar OsgEarthNet.uav[8] utilizationSecIdle 254341.61978108
scalar OsgEarthNet.uav[8] utilizationEnergyMission 3840.4199523926
scalar OsgEarthNet.uav[8] utilizationEnergyMaintenance 806.65470504761
scalar OsgEarthNet.uav[8] utilizationEnergyCharge 4787.6918945312
scalar OsgEarthNet.uav[8] utilizationEnergyOverdrawMission 0
scalar OsgEarthNet.uav[8] utilizationEnergyOverdrawMaintenance 0
scalar OsgEarthNet.uav[8] utilizationCountMissions 1
scalar OsgEarthNet.uav[8] utilizationCountManeuversMission 14
scalar OsgEarthNet.uav[8] utilizationCountManeuversMaintenance 2
scalar OsgEarthNet.uav[8] utilizationCountChargeState 1
scalar OsgEarthNet.uav[8] utilizationCountOverdrawnAfterMission 0
scalar OsgEarthNet.uav[8] utilizationCountIdleState 2
scalar OsgEarthNet.uav[8] utilizationFail 0
scalar OsgEarthNet.uav[8] simulationTime 259200
scalar OsgEarthNet.uav[9] utilizationSecMission 226.72646264981
scalar OsgEarthNet.uav[9] utilizationSecMaintenance 407.30662570353
scalar OsgEarthNet.uav[9] utilizationSecCharge 2780
scalar OsgEarthNet.uav[9] utilizationSecIdle 255785.96591165
scalar OsgEarthNet.uav[9] utilizationEnergyMission 1056.4124603271
scalar OsgEarthNet.uav[9] utilizationEnergyMaintenance 1957.7547836304
scalar OsgEarthNet.uav[9] utilizationEnergyCharge 3014.1713867188
scalar OsgEarthNet.uav[9] utilizationEnergyOverdrawMission 0
scalar OsgEarthNet.uav[9] utilizationEnergyOverdrawMaintenance 0
scalar OsgEarthNet.uav[9] utilizationCountMissions 1
scalar OsgEarthNet.uav[9] utilizationCountManeuversMission 4
scalar OsgEarthNet.uav[9] utilizationCountManeuversMaintenance 2
scalar OsgEarthNet.uav[9] utilizationCountChargeState 1
scalar OsgEarthNet.uav[9] utilizationCountOverdrawnAfterMission 0
scalar OsgEarthNet.uav[9] utilizationCountIdleState 2
scalar OsgEarthNet.uav[9] utilizationFail 0
scalar OsgEarthNet.uav[9] simulationTime 259200
scalar OsgEarthNet.uav[10] utilizationSecMission 836.77707522227
scalar OsgEarthNet.uav[10] utilizationSecMaintenance 217.0347828456
scalar OsgEarthNet.uav[10] utilizationSecCharge 3970
scalar OsgEarthNet.uav[10] utilizationSecIdle 254176.18714193
scalar OsgEarthNet.uav[10] utilizationEnergyMission 3951.9194869995
scalar OsgEarthNet.uav[10] utilizationEnergyMaintenance 1113.668712616
scalar OsgEarthNet.uav[10] utilizationEnergyCharge 5065.5888671875
scalar OsgEarthNet.uav[10] utilizationEnergyOverdrawMission 0
scalar OsgEarthNet.uav[10] utilizationEnergyOverdrawMaintenance 0
scalar OsgEarthNet.uav[10] utilizationCountMissions 1
scalar OsgEarthNet.uav[10] utilizationCountManeuversMission 13
scalar OsgEarthNet.uav[10] utilizationCountManeuversMaintenance 2
scalar OsgEarthNet.uav[10] utilizationCountChargeState 1
scalar OsgEarthNet.uav[10] utilizationCountOverdrawnAfterMission 0
scalar OsgEarthNet.uav[10] utilizationCountIdleState 2
scalar OsgEarthNet.uav[10] utilizationFail 0
scalar OsgEarthNet.uav[10] simulationTime 259200
scalar OsgEarthNet.uav[11] utilizationSecMission 1362.6258294695
scalar OsgEarthNet.uav[11] utilizationSecMaintenance 758.05841300544
scalar OsgEarthNet.uav[11] utilizationSecCharge 7660
scalar OsgEarthNet.uav[11] utilizationSecIdle 249419.31475753
scalar OsgEarthNet.uav[11] utilizationEnergyMission 6288.7129516602
scalar OsgEarthNet.uav[11] utilizationEnergyMaintenance 3617.7535743713
scalar OsgEarthNet.uav[11] utilizationEnergyCharge 9732.9365234375
scalar OsgEarthNet.uav[11] utilizationEnergyOverdrawMission 0
scalar OsgEarthNet.uav[11] utilizationEnergyOverdrawMaintenance 0
scalar OsgEarthNet.uav[11] utilizationCountMissions 2
scalar OsgEarthNet.uav[11] utilizationCountManeuversMission 21
scalar OsgEarthNet.uav[11] utilizationCountManeuversMaintenance 4
scalar OsgEarthNet.uav[11] utilizationCountChargeState 2
scalar OsgEarthNet.uav[11] utilizationCountOverdrawnAfterMission 0
scalar OsgEarthNet.uav[11] utilizationCountIdleState 3
scalar OsgEarthNet.uav[11] utilizationFail 0
scalar OsgEarthNet.uav[11] simulationTime 259200
scalar OsgEarthNet.uav[12] utilizationSecMission 694.00169469977
scalar OsgEarthNet.uav[12] utilizationSecMaintenance 282.18572599206
scalar OsgEarthNet.uav[12] utilizationSecCharge 3760
scalar OsgEarthNet.uav[12] utilizationSecIdle 254463.81157931
scalar OsgEarthNet.uav[12] utilizationEnergyMission 3392.1711196899
scalar OsgEarthNet.uav[12] utilizationEnergyMaintenance 1338.2690658569
scalar OsgEarthNet.uav[12] utilizationEnergyCharge 4730.4370117188
scalar OsgEarthNet.uav[12] utilizationEnergyOverdrawMission 0
scalar OsgEarthNet.uav[12] utilizationEnergyOverdrawMaintenance 0
scalar OsgEarthNet.uav[12] utilizationCountMissions 1
scalar OsgEarthNet.uav[12] utilizationCountManeuversMission 13
scalar OsgEarthNet.uav[12] utilizationCountManeuversMaintenance 2
scalar OsgEarthNet.uav[12] utilizationCountChargeState 1
scalar OsgEarthNet.uav[12] utilizationCountOverdrawnAfterMission 0
scalar OsgEarthNet.uav[12] utilizationCountIdleState 2
scalar OsgEarthNet.uav[12] utilizationFail 0
scalar OsgEarthNet.uav[12] simulationTime 259200
scalar OsgEarthNet.uav[13] utilizationSecMission 750.20472747826
scalar OsgEarthNet.uav[13] utilizationSecMaintenance 335.16822070369
scalar OsgEarthNet.uav[13] utilizationSecCharge 3870
scalar OsgEarthNet.uav[13] utilizationSecIdle 254244.62605182
scalar OsgEarthNet.uav[13] utilizationEnergyMission 3322.2075653076
scalar OsgEarthNet.uav[13] utilizationEnergyMaintenance 1604.5646476746
scalar OsgEarthNet.uav[13] utilizationEnergyCharge 4926.7670898438
scalar OsgEarthNet.uav[13] utilizationEnergyOverdrawMission 0
scalar OsgEarthNet.uav[13] utilizationEnergyOverdrawMaintenance 0
scalar OsgEarthNet.uav[13] utilizationCountMissions 1
scalar OsgEarthNet.uav[13] utilizationCountManeuversMission 11
scalar OsgEarthNet.uav[13] utilizationCountManeuversMaintenance 2
scalar OsgEarthNet.uav[13] utilizationCountChargeState 1
scalar OsgEarthNet.uav[13] utilizationCountOverdrawnAfterMission 0
scalar OsgEarthNet.uav[13] utilizationCountIdleState 2
scalar OsgEarthNet.uav[13] utilizationFail 0
scalar OsgEarthNet.uav[13] simulationTime 259200
scalar OsgEarthNet.uav[14] utilizationSecMission 25421.991621056
scalar OsgEarthNet.uav[14] utilizationSecMaintenance 12814.685321221
scalar OsgEarthNet.uav[14] utilizationSecCharge 140763.20755274
scalar OsgEarthNet.uav[14] utilizationSecIdle 80200.114504981
scalar OsgEarthNet.uav[14] utilizationEnergyMission 117142.21941376
scalar OsgEarthNet.uav[14] utilizationEnergyMaintenance 60924.441329956
scalar OsgEarthNet.uav[14] utilizationEnergyCharge 176126.50585938
scalar OsgEarthNet.uav[14] utilizationEnergyOverdrawMission 0
scalar OsgEarthNet.uav[14] utilizationEnergyOverdrawMaintenance 0
scalar OsgEarthNet.uav[14] utilizationCountMissions 39
scalar OsgEarthNet.uav[14] utilizationCountManeuversMission 422
scalar OsgEarthNet.uav[14] utilizationCountManeuversMaintenance 78
scalar OsgEarthNet.uav[14] utilizationCountChargeState 39
scalar OsgEarthNet.uav[14] utilizationCountOverdrawnAfterMission 0
scalar OsgEarthNet.uav[14] utilizationCountIdleState 39
scalar OsgEarthNet.uav[14] utilizationFail 0
scalar OsgEarthNet.uav[14] simulationTime 259200
scalar OsgEarthNet.uav[15] utilizationSecMission 1500.4094549565
scalar OsgEarthNet.uav[15] utilizationSecMaintenance 535.22591305833
scalar OsgEarthNet.uav[15] utilizationSecCharge 7560
scalar OsgEarthNet.uav[15] utilizationSecIdle 249604.36363199
scalar OsgEarthNet.uav[15] utilizationEnergyMission 6993.8797912598
scalar OsgEarthNet.uav[15] utilizationEnergyMaintenance 2555.8519515991
scalar OsgEarthNet.uav[15] utilizationEnergyCharge 9549.7319335938
scalar OsgEarthNet.uav[15] utilizationEnergyOverdrawMission 0
scalar OsgEarthNet.uav[15] utilizationEnergyOverdrawMaintenance 0
scalar OsgEarthNet.uav[15] utilizationCountMissions 2
scalar OsgEarthNet.uav[15] utilizationCountManeuversMission 22
scalar OsgEarthNet.uav[15] utilizationCountManeuversMaintenance 4
scalar OsgEarthNet.uav[15] utilizationCountChargeState 2
scalar OsgEarthNet.uav[15] utilizationCountOverdrawnAfterMission 0
scalar OsgEarthNet.uav[15] utilizationCountIdleState 3
scalar OsgEarthNet.uav[15] utilizationFail 0
scalar OsgEarthNet.uav[15] simulationTime 259200
scalar OsgEarthNet.uav[16] utilizationSecMission 760.62515258028
scalar OsgEarthNet.uav[16] utilizationSecMaintenance 223.6438949726
scalar OsgEarthNet.uav[16] utilizationSecCharge 3720
scalar OsgEarthNet.uav[16] utilizationSecIdle 254495.72995245
scalar OsgEarthNet.uav[16] utilizationEnergyMission 3579.7852096558
scalar OsgEarthNet.uav[16] utilizationEnergyMaintenance 1043.2654838562
scalar OsgEarthNet.uav[16] utilizationEnergyCharge 4623.048828125
scalar OsgEarthNet.uav[16] utilizationEnergyOverdrawMission 0
scalar OsgEarthNet.uav[16] utilizationEnergyOverdrawMaintenance 0
scalar OsgEarthNet.uav[16] utilizationCountMissions 1
scalar OsgEarthNet.uav[16] utilizationCountManeuversMission 12
scalar OsgEarthNet.uav[16] utilizationCountManeuversMaintenance 2
scalar OsgEarthNet.uav[16] utilizationCountChargeState 1
scalar OsgEarthNet.uav[16] utilizationCountOverdrawnAfterMission 0
scalar OsgEarthNet.uav[16] utilizationCountIdleState 2
scalar OsgEarthNet.uav[16] utilizationFail 0
scalar OsgEarthNet.uav[16] simulationTime 259200
scalar OsgEarthNet.uav[17] utilizationSecMission 25942.086087206
scalar OsgEarthNet.uav[17] utilizationSecMaintenance 13327.173357231
scalar OsgEarthNet.uav[17] utilizationSecCharge 144457.92185388
scalar OsgEarthNet.uav[17] utilizationSecIdle 75472.817701679
scalar OsgEarthNet.uav[17] utilizationEnergyMission 119291.27677155
scalar OsgEarthNet.uav[17] utilizationEnergyMaintenance 61792.526165009
scalar OsgEarthNet.uav[17] utilizationEnergyCharge 180856.24365234
scalar OsgEarthNet.uav[17] utilizationEnergyOverdrawMission 0
scalar OsgEarthNet.uav[17] utilizationEnergyOverdrawMaintenance 0
scalar OsgEarthNet.uav[17] utilizationCountMissions 40
scalar OsgEarthNet.uav[17] utilizationCountManeuversMission 430
scalar OsgEarthNet.uav[17] utilizationCountManeuversMaintenance 80
scalar OsgEarthNet.uav[17] utilizationCountChargeState 40
scalar OsgEarthNet.uav[17] utilizationCountOverdrawnAfterMission 0
scalar OsgEarthNet.uav[17] utilizationCountIdleState 40
scalar OsgEarthNet.uav[17] utilizationFail 0
scalar OsgEarthNet.uav[17] simulationTime 259200
scalar OsgEarthNet.uav[18] utilizationSecMission 929.66633852757
scalar OsgEarthNet.uav[18] utilizationSecMaintenance 183.39004742748
scalar OsgEarthNet.uav[18] utilizationSecCharge 3840
scalar OsgEarthNet.uav[18] utilizationSecIdle 254246.94261404
scalar OsgEarthNet.uav[18] utilizationEnergyMission 4090.5963134766
scalar OsgEarthNet.uav[18] utilizationEnergyMaintenance 742.06887054443
scalar OsgEarthNet.uav[18] utilizationEnergyCharge 4831.580078125
scalar OsgEarthNet.uav[18] utilizationEnergyOverdrawMission 0
scalar OsgEarthNet.uav[18] utilizationEnergyOverdrawMaintenance 0
scalar OsgEarthNet.uav[18] utilizationCountMissions 1
scalar OsgEarthNet.uav[18] utilizationCountManeuversMission 15
scalar OsgEarthNet.uav[18] utilizationCountManeuversMaintenance 2
scalar OsgEarthNet.uav[18] utilizationCountChargeState 1
scalar OsgEarthNet.uav[18] utilizationCountOverdrawnAfterMission 0
scalar OsgEarthNet.uav[18] utilizationCountIdleState 2
scalar OsgEarthNet.uav[18] utilizationFail 0
scalar OsgEarthNet.uav[18] simulationTime 259200
scalar OsgEarthNet.uav[19] utilizationSecMission 33270.888929339
scalar OsgEarthNet.uav[19] utilizationSecMaintenance 11693.097236151
scalar OsgEarthNet.uav[19] utilizationSecCharge 167240
scalar OsgEarthNet.uav[19] utilizationSecIdle 46996.01283451
scalar OsgEarthNet.uav[19] utilizationEnergyMission 154766.11372375
scalar OsgEarthNet.uav[19] utilizationEnergyMaintenance 54810.899181366
scalar OsgEarthNet.uav[19] utilizationEnergyCharge 209825.53955078
scalar OsgEarthNet.uav[19] utilizationEnergyOverdrawMission 0
scalar OsgEarthNet.uav[19] utilizationEnergyOverdrawMaintenance 0
scalar OsgEarthNet.uav[19] utilizationCountMissions 45
scalar OsgEarthNet.uav[19] utilizationCountManeuversMission 533
scalar OsgEarthNet.uav[19] utilizationCountManeuversMaintenance 90
scalar OsgEarthNet.uav[19] utilizationCountChargeState 45
scalar OsgEarthNet.uav[19] utilizationCountOverdrawnAfterMission 0
scalar OsgEarthNet.uav[19] utilizationCountIdleState 46
scalar OsgEarthNet.uav[19] utilizationFail 0
scalar OsgEarthNet.uav[19] simulationTime 259200
scalar OsgEarthNet.uav[20] utilizationSecMission 684.4732299383
scalar OsgEarthNet.uav[20] utilizationSecMaintenance 298.56834692969
scalar OsgEarthNet.uav[20] utilizationSecCharge 3760
scalar OsgEarthNet.uav[20] utilizationSecIdle 254456.95742313
scalar OsgEarthNet.uav[20] utilizationEnergyMission 3141.9376754761
scalar OsgEarthNet.uav[20] utilizationEnergyMaintenance 1550.1899032593
scalar OsgEarthNet.uav[20] utilizationEnergyCharge 4692.1259765625
scalar OsgEarthNet.uav[20] utilizationEnergyOverdrawMission 0
scalar OsgEarthNet.uav[20] utilizationEnergyOverdrawMaintenance 0
scalar OsgEarthNet.uav[20] utilizationCountMissions 1
scalar OsgEarthNet.uav[20] utilizationCountManeuversMission 11
scalar OsgEarthNet.uav[20] utilizationCountManeuversMaintenance 2
scalar OsgEarthNet.uav[20] utilizationCountChargeState 1
scalar OsgEarthNet.uav[20] utilizationCountOverdrawnAfterMission 0
scalar OsgEarthNet.uav[20] utilizationCountIdleState 2
scalar OsgEarthNet.uav[20] utilizationFail 0
scalar OsgEarthNet.uav[20] simulationTime 259200
scalar OsgEarthNet.uav[21] utilizationSecMission 29125.90014287
scalar OsgEarthNet.uav[21] utilizationSecMaintenance 15541.92652416
scalar OsgEarthNet.uav[21] utilizationSecCharge 165621.11652901
scalar OsgEarthNet.uav[21] utilizationSecIdle 48911.055803961
scalar OsgEarthNet.uav[21] utilizationEnergyMission 135353.44814301
scalar OsgEarthNet.uav[21] utilizationEnergyMaintenance 73891.437355042
scalar OsgEarthNet.uav[21] utilizationEnergyCharge 208498.0703125
scalar OsgEarthNet.uav[21] utilizationEnergyOverdrawMission 0
scalar OsgEarthNet.uav[21] utilizationEnergyOverdrawMaintenance 0
scalar OsgEarthNet.uav[21] utilizationCountMissions 45
scalar OsgEarthNet.uav[21] utilizationCountManeuversMission 488
scalar OsgEarthNet.uav[21] utilizationCountManeuversMaintenance 90
scalar OsgEarthNet.uav[21] utilizationCountChargeState 45
scalar OsgEarthNet.uav[21] utilizationCountOverdrawnAfterMission 0
scalar OsgEarthNet.uav[21] utilizationCountIdleState 45
scalar OsgEarthNet.uav[21] utilizationFail 0
scalar OsgEarthNet.uav[21] simulationTime 259200
scalar OsgEarthNet.uav[22] utilizationSecMission 4519.5894850375
scalar OsgEarthNet.uav[22] utilizationSecMaintenance 1568.8131321281
scalar OsgEarthNet.uav[22] utilizationSecCharge 22640
scalar OsgEarthNet.uav[22] utilizationSecIdle 230471.59638283
scalar OsgEarthNet.uav[22] utilizationEnergyMission 21022.800300598
scalar OsgEarthNet.uav[22] utilizationEnergyMaintenance 7415.1277351379
scalar OsgEarthNet.uav[22] utilizationEnergyCharge 28423.737304688
scalar OsgEarthNet.uav[22] utilizationEnergyOverdrawMission 0
scalar OsgEarthNet.uav[22] utilizationEnergyOverdrawMaintenance 0
scalar OsgEarthNet.uav[22] utilizationCountMissions 6
scalar OsgEarthNet.uav[22] utilizationCountManeuversMission 71
scalar OsgEarthNet.uav[22] utilizationCountManeuversMaintenance 12
scalar OsgEarthNet.uav[22] utilizationCountChargeState 6
scalar OsgEarthNet.uav[22] utilizationCountOverdrawnAfterMission 0
scalar OsgEarthNet.uav[22] utilizationCountIdleState 7
scalar OsgEarthNet.uav[22] utilizationFail 0
scalar OsgEarthNet.uav[22] simulationTime 259200
scalar OsgEarthNet.uav[23] utilizationSecMission 750.20472747826
scalar OsgEarthNet.uav[23] utilizationSecMaintenance 335.16822070369
scalar OsgEarthNet.uav[23] utilizationSecCharge 3860
scalar OsgEarthNet.uav[23] utilizationSecIdle 254254.62605182
scalar OsgEarthNet.uav[23] utilizationEnergyMission 3353.5705108643
scalar OsgEarthNet.uav[23] utilizationEnergyMaintenance 1556.3176994324
scalar OsgEarthNet.uav[23] utilizationEnergyCharge 4909.89453125
scalar OsgEarthNet.uav[23] utilizationEnergyOverdrawMission 0
scalar OsgEarthNet.uav[23] utilizationEnergyOverdrawMaintenance 0
scalar OsgEarthNet.uav[23] utilizationCountMissions 1
scalar OsgEarthNet.uav[23] utilizationCountManeuversMission 11
scalar OsgEarthNet.uav[23] utilizationCountManeuversMaintenance 2
scalar OsgEarthNet.uav[23] utilizationCountChargeState 1
scalar OsgEarthNet.uav[23] utilizationCountOverdrawnAfterMission 0
scalar OsgEarthNet.uav[23] utilizationCountIdleState 2
scalar OsgEarthNet.uav[23] utilizationFail 0
scalar OsgEarthNet.uav[23] simulationTime 259200
scalar OsgEarthNet.uav[24] utilizationSecMission 30506.125524099
scalar OsgEarthNet.uav[24] utilizationSecMaintenance 13584.004206293
scalar OsgEarthNet.uav[24] utilizationSecCharge 165180
scalar OsgEarthNet.uav[24] utilizationSecIdle 49929.869269608
scalar OsgEarthNet.uav[24] utilizationEnergyMission 141881.14006042
scalar OsgEarthNet.uav[24] utilizationEnergyMaintenance 64425.810829163
scalar OsgEarthNet.uav[24] utilizationEnergyCharge 206559.84643555
scalar OsgEarthNet.uav[24] utilizationEnergyOverdrawMission 0
scalar OsgEarthNet.uav[24] utilizationEnergyOverdrawMaintenance 0
scalar OsgEarthNet.uav[24] utilizationCountMissions 45
scalar OsgEarthNet.uav[24] utilizationCountManeuversMission 502
scalar OsgEarthNet.uav[24] utilizationCountManeuversMaintenance 90
scalar OsgEarthNet.uav[24] utilizationCountChargeState 45
scalar OsgEarthNet.uav[24] utilizationCountOverdrawnAfterMission 0
scalar OsgEarthNet.uav[24] utilizationCountIdleState 46
scalar OsgEarthNet.uav[24] utilizationFail 0
scalar OsgEarthNet.uav[24] simulationTime 259200
scalar OsgEarthNet.uav[25] utilizationSecMission 24319.473726011
scalar OsgEarthNet.uav[25] utilizationSecMaintenance 12458.038962913
scalar OsgEarthNet.uav[25] utilizationSecCharge 134573.63815128
scalar OsgEarthNet.uav[25] utilizationSecIdle 87848.848159794
scalar OsgEarthNet.uav[25] utilizationEnergyMission 113875.98381805
scalar OsgEarthNet.uav[25] utilizationEnergyMaintenance 58029.742023468
scalar OsgEarthNet.uav[25] utilizationEnergyCharge 167219.25265503
scalar OsgEarthNet.uav[25] utilizationEnergyOverdrawMission 0
scalar OsgEarthNet.uav[25] utilizationEnergyOverdrawMaintenance 0
scalar OsgEarthNet.uav[25] utilizationCountMissions 38
scalar OsgEarthNet.uav[25] utilizationCountManeuversMission 410
scalar OsgEarthNet.uav[25] utilizationCountManeuversMaintenance 76
scalar OsgEarthNet.uav[25] utilizationCountChargeState 38
scalar OsgEarthNet.uav[25] utilizationCountOverdrawnAfterMission 0
scalar OsgEarthNet.uav[25] utilizationCountIdleState 38
scalar OsgEarthNet.uav[25] utilizationFail 0
scalar OsgEarthNet.uav[25] simulationTime 259200
scalar OsgEarthNet.uav[26] utilizationSecMission 684.4732299383
scalar OsgEarthNet.uav[26] utilizationSecMaintenance 298.56834692969
scalar OsgEarthNet.uav[26] utilizationSecCharge 3730
scalar OsgEarthNet.uav[26] utilizationSecIdle 254486.95742313
scalar OsgEarthNet.uav[26] utilizationEnergyMission 3165.7075500488
scalar OsgEarthNet.uav[26] utilizationEnergyMaintenance 1540.9733200073
scalar OsgEarthNet.uav[26] utilizationEnergyCharge 4706.6782226562
scalar OsgEarthNet.uav[26] utilizationEnergyOverdrawMission 0
scalar OsgEarthNet.uav[26] utilizationEnergyOverdrawMaintenance 0
scalar OsgEarthNet.uav[26] utilizationCountMissions 1
scalar OsgEarthNet.uav[26] utilizationCountManeuversMission 11
scalar OsgEarthNet.uav[26] utilizationCountManeuversMaintenance 2
scalar OsgEarthNet.uav[26] utilizationCountChargeState 1
scalar OsgEarthNet.uav[26] utilizationCountOverdrawnAfterMission 0
scalar OsgEarthNet.uav[26] utilizationCountIdleState 2
scalar OsgEarthNet.uav[26] utilizationFail 0
scalar OsgEarthNet.uav[26] simulationTime 259200
scalar OsgEarthNet.uav[27] utilizationSecMission 528.55000878666
scalar OsgEarthNet.uav[27] utilizationSecMaintenance 478.92797493542
scalar OsgEarthNet.uav[27] utilizationSecCharge 3690
scalar OsgEarthNet.uav[27] utilizationSecIdle 254502.52101628
scalar OsgEarthNet.uav[27] utilizationEnergyMission 2504.7988128662
scalar OsgEarthNet.uav[27] utilizationEnergyMaintenance 2105.5088729858
scalar OsgEarthNet.uav[27] utilizationEnergyCharge 4610.3051757812
scalar OsgEarthNet.uav[27] utilizationEnergyOverdrawMission 0
scalar OsgEarthNet.uav[27] utilizationEnergyOverdrawMaintenance 0
scalar OsgEarthNet.uav[27] utilizationCountMissions 1
scalar OsgEarthNet.uav[27] utilizationCountManeuversMission 10
scalar OsgEarthNet.uav[27] utilizationCountManeuversMaintenance 2
scalar OsgEarthNet.uav[27] utilizationCountChargeState 1
scalar OsgEarthNet.uav[27] utilizationCountOverdrawnAfterMission 0
scalar OsgEarthNet.uav[27] utilizationCountIdleState 2
scalar OsgEarthNet.uav[27] utilizationFail 0
scalar OsgEarthNet.uav[27] simulationTime 259200
scalar OsgEarthNet.uav[28] utilizationSecMission 621.17604176187
scalar OsgEarthNet.uav[28] utilizationSecMaintenance 313.76167006775
scalar OsgEarthNet.uav[28] utilizationSecCharge 3750
scalar OsgEarthNet.uav[28] utilizationSecIdle 254515.06128817
scalar OsgEarthNet.uav[28] utilizationEnergyMission 3043.260635376
scalar OsgEarthNet.uav[28] utilizationEnergyMaintenance 1644.6962394714
scalar OsgEarthNet.uav[28] utilizationEnergyCharge 4687.955078125
scalar OsgEarthNet.uav[28] utilizationEnergyOverdrawMission 0
scalar OsgEarthNet.uav[28] utilizationEnergyOverdrawMaintenance 0
scalar OsgEarthNet.uav[28] utilizationCountMissions 1
scalar OsgEarthNet.uav[28] utilizationCountManeuversMission 12
scalar OsgEarthNet.uav[28] utilizationCountManeuversMaintenance 2
scalar OsgEarthNet.uav[28] utilizationCountChargeState 1
scalar OsgEarthNet.uav[28] utilizationCountOverdrawnAfterMission 0
scalar OsgEarthNet.uav[28] utilizationCountIdleState 2
scalar OsgEarthNet.uav[28] utilizationFail 0
scalar OsgEarthNet.uav[28] simulationTime 259200
scalar OsgEarthNet.uav[29] utilizationSecMission 760.62515258028
scalar OsgEarthNet.uav[29] utilizationSecMaintenance 291.95923480269
scalar OsgEarthNet.uav[29] utilizationSecCharge 3820
scalar OsgEarthNet.uav[29] utilizationSecIdle 254327.41461262
scalar OsgEarthNet.uav[29] utilizationEnergyMission 3360.1477203369
scalar OsgEarthNet.uav[29] utilizationEnergyMaintenance 1476.881187439
scalar OsgEarthNet.uav[29] utilizationEnergyCharge 4837.0283203125
scalar OsgEarthNet.uav[29] utilizationEnergyOverdrawMission 0
scalar OsgEarthNet.uav[29] utilizationEnergyOverdrawMaintenance 0
scalar OsgEarthNet.uav[29] utilizationCountMissions 1
scalar OsgEarthNet.uav[29] utilizationCountManeuversMission 12
scalar OsgEarthNet.uav[29] utilizationCountManeuversMaintenance 2
scalar OsgEarthNet.uav[29] utilizationCountChargeState 1
scalar OsgEarthNet.uav[29] utilizationCountOverdrawnAfterMission 0
scalar OsgEarthNet.uav[29] utilizationCountIdleState 2
scalar OsgEarthNet.uav[29] utilizationFail 0
scalar OsgEarthNet.uav[29] simulationTime 259200
scalar OsgEarthNet.uav[30] utilizationSecMission 684.4732299383
scalar OsgEarthNet.uav[30] utilizationSecMaintenance 298.56834692969
scalar OsgEarthNet.uav[30] utilizationSecCharge 3720
scalar OsgEarthNet.uav[30] utilizationSecIdle 254496.95742313
scalar OsgEarthNet.uav[30] utilizationEnergyMission 3152.1485748291
scalar OsgEarthNet.uav[30] utilizationEnergyMaintenance 1489.7051010132
scalar OsgEarthNet.uav[30] utilizationEnergyCharge 4641.8505859375
scalar OsgEarthNet.uav[30] utilizationEnergyOverdrawMission 0
scalar OsgEarthNet.uav[30] utilizationEnergyOverdrawMaintenance 0
scalar OsgEarthNet.uav[30] utilizationCountMissions 1
scalar OsgEarthNet.uav[30] utilizationCountManeuversMission 11
scalar OsgEarthNet.uav[30] utilizationCountManeuversMaintenance 2
scalar OsgEarthNet.uav[30] utilizationCountChargeState 1
scalar OsgEarthNet.uav[30] utilizationCountOverdrawnAfterMission 0
scalar OsgEarthNet.uav[30] utilizationCountIdleState 2
scalar OsgEarthNet.uav[30] utilizationFail 0
scalar OsgEarthNet.uav[30] simulationTime 259200
scalar OsgEarthNet.uav[31] utilizationSecMission 25815.326938095
scalar OsgEarthNet.uav[31] utilizationSecMaintenance 13539.793075697
scalar OsgEarthNet.uav[31] utilizationSecCharge 143714.09997311
scalar OsgEarthNet.uav[31] utilizationSecIdle 76130.779013101
scalar OsgEarthNet.uav[31] utilizationEnergyMission 118157.42892456
scalar OsgEarthNet.uav[31] utilizationEnergyMaintenance 63515.049057007
scalar OsgEarthNet.uav[31] utilizationEnergyCharge 179854.72558594
scalar OsgEarthNet.uav[31] utilizationEnergyOverdrawMission 0
scalar OsgEarthNet.uav[31] utilizationEnergyOverdrawMaintenance 0
scalar OsgEarthNet.uav[31] utilizationCountMissions 40
scalar OsgEarthNet.uav[31] utilizationCountManeuversMission 420
scalar OsgEarthNet.uav[31] utilizationCountManeuversMaintenance 80
scalar OsgEarthNet.uav[31] utilizationCountChargeState 40
scalar OsgEarthNet.uav[31] utilizationCountOverdrawnAfterMission 0
scalar OsgEarthNet.uav[31] utilizationCountIdleState 40
scalar OsgEarthNet.uav[31] utilizationFail 0
scalar OsgEarthNet.uav[31] simulationTime 259200
scalar OsgEarthNet.uav[32] utilizationSecMission 18211.762824644
scalar OsgEarthNet.uav[32] utilizationSecMaintenance 10406.948591636
scalar OsgEarthNet.uav[32] utilizationSecCharge 103368.7543785
scalar OsgEarthNet.uav[32] utilizationSecIdle 127212.53320522
scalar OsgEarthNet.uav[32] utilizationEnergyMission 84613.305435181
scalar OsgEarthNet.uav[32] utilizationEnergyMaintenance 48220.673732758
scalar OsgEarthNet.uav[32] utilizationEnergyCharge 129289.05151367
scalar OsgEarthNet.uav[32] utilizationEnergyOverdrawMission 0
scalar OsgEarthNet.uav[32] utilizationEnergyOverdrawMaintenance 0
scalar OsgEarthNet.uav[32] utilizationCountMissions 29
scalar OsgEarthNet.uav[32] utilizationCountManeuversMission 295
scalar OsgEarthNet.uav[32] utilizationCountManeuversMaintenance 58
scalar OsgEarthNet.uav[32] utilizationCountChargeState 29
scalar OsgEarthNet.uav[32] utilizationCountOverdrawnAfterMission 0
scalar OsgEarthNet.uav[32] utilizationCountIdleState 29
scalar OsgEarthNet.uav[32] utilizationFail 0
scalar OsgEarthNet.uav[32] simulationTime 259200
scalar OsgEarthNet.uav[33] utilizationSecMission 29527.435319936
scalar OsgEarthNet.uav[33] utilizationSecMaintenance 14312.060784425
scalar OsgEarthNet.uav[33] utilizationSecCharge 160818.98923469
scalar OsgEarthNet.uav[33] utilizationSecIdle 54541.51366095
scalar OsgEarthNet.uav[33] utilizationEnergyMission 136563.28741455
scalar OsgEarthNet.uav[33] utilizationEnergyMaintenance 66603.670452118
scalar OsgEarthNet.uav[33] utilizationEnergyCharge 202156.71728516
scalar OsgEarthNet.uav[33] utilizationEnergyOverdrawMission 0
scalar OsgEarthNet.uav[33] utilizationEnergyOverdrawMaintenance 0
scalar OsgEarthNet.uav[33] utilizationCountMissions 44
scalar OsgEarthNet.uav[33] utilizationCountManeuversMission 469
scalar OsgEarthNet.uav[33] utilizationCountManeuversMaintenance 88
scalar OsgEarthNet.uav[33] utilizationCountChargeState 44
scalar OsgEarthNet.uav[33] utilizationCountOverdrawnAfterMission 0
scalar OsgEarthNet.uav[33] utilizationCountIdleState 44
scalar OsgEarthNet.uav[33] utilizationFail 0
scalar OsgEarthNet.uav[33] simulationTime 259200
scalar OsgEarthNet.uav[34] utilizationSecMission 26658.385470537
scalar OsgEarthNet.uav[34] utilizationSecMaintenance 15065.175036436
scalar OsgEarthNet.uav[34] utilizationSecCharge 151330.91759465
scalar OsgEarthNet.uav[34] utilizationSecIdle 66145.520898377
scalar OsgEarthNet.uav[34] utilizationEnergyMission 123399.75834656
scalar OsgEarthNet.uav[34] utilizationEnergyMaintenance 70723.671497345
scalar OsgEarthNet.uav[34] utilizationEnergyCharge 189555.02319336
scalar OsgEarthNet.uav[34] utilizationEnergyOverdrawMission 0
scalar OsgEarthNet.uav[34] utilizationEnergyOverdrawMaintenance 0
scalar OsgEarthNet.uav[34] utilizationCountMissions 42
scalar OsgEarthNet.uav[34] utilizationCountManeuversMission 429
scalar OsgEarthNet.uav[34] utilizationCountManeuversMaintenance 84
scalar OsgEarthNet.uav[34] utilizationCountChargeState 42
scalar OsgEarthNet.uav[34] utilizationCountOverdrawnAfterMission 0
scalar OsgEarthNet.uav[34] utilizationCountIdleState 42
scalar OsgEarthNet.uav[34] utilizationFail 0
scalar OsgEarthNet.uav[34] simulationTime 259200
scalar OsgEarthNet.uav[35] utilizationSecMission 694.00169469977
scalar OsgEarthNet.uav[35] utilizationSecMaintenance 282.18572599206
scalar OsgEarthNet.uav[35] utilizationSecCharge 3650
scalar OsgEarthNet.uav[35] utilizationSecIdle 254573.81157931
scalar OsgEarthNet.uav[35] utilizationEnergyMission 3324.8663864136
scalar OsgEarthNet.uav[35] utilizationEnergyMaintenance 1234.4478378296
scalar OsgEarthNet.uav[35] utilizationEnergyCharge 4559.3139648438
scalar OsgEarthNet.uav[35] utilizationEnergyOverdrawMission 0
scalar OsgEarthNet.uav[35] utilizationEnergyOverdrawMaintenance 0
scalar OsgEarthNet.uav[35] utilizationCountMissions 1
scalar OsgEarthNet.uav[35] utilizationCountManeuversMission 13
scalar OsgEarthNet.uav[35] utilizationCountManeuversMaintenance 2
scalar OsgEarthNet.uav[35] utilizationCountChargeState 1
scalar OsgEarthNet.uav[35] utilizationCountOverdrawnAfterMission 0
scalar OsgEarthNet.uav[35] utilizationCountIdleState 2
scalar OsgEarthNet.uav[35] utilizationFail 0
scalar OsgEarthNet.uav[35] simulationTime 259200
scalar OsgEarthNet.uav[36] utilizationSecMission 836.77707522227
scalar OsgEarthNet.uav[36] utilizationSecMaintenance 217.0347828456
scalar OsgEarthNet.uav[36] utilizationSecCharge 3710
scalar OsgEarthNet.uav[36] utilizationSecIdle 254436.18714193
scalar OsgEarthNet.uav[36] utilizationEnergyMission 3600.5505981445
scalar OsgEarthNet.uav[36] utilizationEnergyMaintenance 1097.299571991
scalar OsgEarthNet.uav[36] utilizationEnergyCharge 4697.8505859375
scalar OsgEarthNet.uav[36] utilizationEnergyOverdrawMission 0
scalar OsgEarthNet.uav[36] utilizationEnergyOverdrawMaintenance 0
scalar OsgEarthNet.uav[36] utilizationCountMissions 1
scalar OsgEarthNet.uav[36] utilizationCountManeuversMission 13
scalar OsgEarthNet.uav[36] utilizationCountManeuversMaintenance 2
scalar OsgEarthNet.uav[36] utilizationCountChargeState 1
scalar OsgEarthNet.uav[36] utilizationCountOverdrawnAfterMission 0
scalar OsgEarthNet.uav[36] utilizationCountIdleState 2
scalar OsgEarthNet.uav[36] utilizationFail 0
scalar OsgEarthNet.uav[36] simulationTime 259200
scalar OsgEarthNet.uav[37] utilizationSecMission 29613.658786475
scalar OsgEarthNet.uav[37] utilizationSecMaintenance 16419.147940496
scalar OsgEarthNet.uav[37] utilizationSecCharge 168455.19227303
scalar OsgEarthNet.uav[37] utilizationSecIdle 44712
scalar OsgEarthNet.uav[37] utilizationEnergyMission 137462.13655853
scalar OsgEarthNet.uav[37] utilizationEnergyMaintenance 76453.01524353
scalar OsgEarthNet.uav[37] utilizationEnergyCharge 210011.38256836
scalar OsgEarthNet.uav[37] utilizationEnergyOverdrawMission 0
scalar OsgEarthNet.uav[37] utilizationEnergyOverdrawMaintenance 0
scalar OsgEarthNet.uav[37] utilizationCountMissions 47
scalar OsgEarthNet.uav[37] utilizationCountManeuversMission 504
scalar OsgEarthNet.uav[37] utilizationCountManeuversMaintenance 93
scalar OsgEarthNet.uav[37] utilizationCountChargeState 47
scalar OsgEarthNet.uav[37] utilizationCountOverdrawnAfterMission 0
scalar OsgEarthNet.uav[37] utilizationCountIdleState 47
scalar OsgEarthNet.uav[37] utilizationFail 0
scalar OsgEarthNet.uav[37] simulationTime 259200
scalar OsgEarthNet.uav[38] utilizationSecMission 694.00169469977
scalar OsgEarthNet.uav[38] utilizationSecMaintenance 282.18572599206
scalar OsgEarthNet.uav[38] utilizationSecCharge 3680
scalar OsgEarthNet.uav[38] utilizationSecIdle 254543.81157931
scalar OsgEarthNet.uav[38] utilizationEnergyMission 3231.7513885498
scalar OsgEarthNet.uav[38] utilizationEnergyMaintenance 1389.1624984741
scalar OsgEarthNet.uav[38] utilizationEnergyCharge 4620.9165039062
scalar OsgEarthNet.uav[38] utilizationEnergyOverdrawMission 0
scalar OsgEarthNet.uav[38] utilizationEnergyOverdrawMaintenance 0
scalar OsgEarthNet.uav[38] utilizationCountMissions 1
scalar OsgEarthNet.uav[38] utilizationCountManeuversMission 13
scalar OsgEarthNet.uav[38] utilizationCountManeuversMaintenance 2
scalar OsgEarthNet.uav[38] utilizationCountChargeState 1
scalar OsgEarthNet.uav[38] utilizationCountOverdrawnAfterMission 0
scalar OsgEarthNet.uav[38] utilizationCountIdleState 2
scalar OsgEarthNet.uav[38] utilizationFail 0
scalar OsgEarthNet.uav[38] simulationTime 259200
scalar OsgEarthNet.uav[39] utilizationSecMission 28897.760420201
scalar OsgEarthNet.uav[39] utilizationSecMaintenance 14152.921466311
scalar OsgEarthNet.uav[39] utilizationSecCharge 158570
scalar OsgEarthNet.uav[39] utilizationSecIdle 57579.317113489
scalar OsgEarthNet.uav[39] utilizationEnergyMission 132769.40099277
scalar OsgEarthNet.uav[39] utilizationEnergyMaintenance 67341.482288361
scalar OsgEarthNet.uav[39] utilizationEnergyCharge 198021.58447266
scalar OsgEarthNet.uav[39] utilizationEnergyOverdrawMission 0
scalar OsgEarthNet.uav[39] utilizationEnergyOverdrawMaintenance 0
scalar OsgEarthNet.uav[39] utilizationCountMissions 43
scalar OsgEarthNet.uav[39] utilizationCountManeuversMission 483
scalar OsgEarthNet.uav[39] utilizationCountManeuversMaintenance 87
scalar OsgEarthNet.uav[39] utilizationCountChargeState 43
scalar OsgEarthNet.uav[39] utilizationCountOverdrawnAfterMission 0
scalar OsgEarthNet.uav[39] utilizationCountIdleState 44
scalar OsgEarthNet.uav[39] utilizationFail 0
scalar OsgEarthNet.uav[39] simulationTime 259200
scalar OsgEarthNet.uav[40] utilizationSecMission 760.62515258028
scalar OsgEarthNet.uav[40] utilizationSecMaintenance 223.6438949726
scalar OsgEarthNet.uav[40] utilizationSecCharge 3670
scalar OsgEarthNet.uav[40] utilizationSecIdle 254545.72995245
scalar OsgEarthNet.uav[40] utilizationEnergyMission 3497.152923584
scalar OsgEarthNet.uav[40] utilizationEnergyMaintenance 1071.0615653992
scalar OsgEarthNet.uav[40] utilizationEnergyCharge 4568.216796875
scalar OsgEarthNet.uav[40] utilizationEnergyOverdrawMission 0
scalar OsgEarthNet.uav[40] utilizationEnergyOverdrawMaintenance 0
scalar OsgEarthNet.uav[40] utilizationCountMissions 1
scalar OsgEarthNet.uav[40] utilizationCountManeuversMission 12
scalar OsgEarthNet.uav[40] utilizationCountManeuversMaintenance 2
scalar OsgEarthNet.uav[40] utilizationCountChargeState 1
scalar OsgEarthNet.uav[40] utilizationCountOverdrawnAfterMission 0
scalar OsgEarthNet.uav[40] utilizationCountIdleState 2
scalar OsgEarthNet.uav[40] utilizationFail 0
scalar OsgEarthNet.uav[40] simulationTime 259200
scalar OsgEarthNet.uav[41] utilizationSecMission 17941.665916397
scalar OsgEarthNet.uav[41] utilizationSecMaintenance 9293.4464635527
scalar OsgEarthNet.uav[41] utilizationSecCharge 99620
scalar OsgEarthNet.uav[41] utilizationSecIdle 132344.88662005
scalar OsgEarthNet.uav[41] utilizationEnergyMission 82664.67686103
scalar OsgEarthNet.uav[41] utilizationEnergyMaintenance 43507.901576996
scalar OsgEarthNet.uav[41] utilizationEnergyCharge 124580.74389648
scalar OsgEarthNet.uav[41] utilizationEnergyOverdrawMission 0
scalar OsgEarthNet.uav[41] utilizationEnergyOverdrawMaintenance 0
scalar OsgEarthNet.uav[41] utilizationCountMissions 27
scalar OsgEarthNet.uav[41] utilizationCountManeuversMission 293
scalar OsgEarthNet.uav[41] utilizationCountManeuversMaintenance 55
scalar OsgEarthNet.uav[41] utilizationCountChargeState 27
scalar OsgEarthNet.uav[41] utilizationCountOverdrawnAfterMission 0
scalar OsgEarthNet.uav[41] utilizationCountIdleState 28
scalar OsgEarthNet.uav[41] utilizationFail 0
scalar OsgEarthNet.uav[41] simulationTime 259200
scalar OsgEarthNet.uav[42] utilizationSecMission 29364.778663357
scalar OsgEarthNet.uav[42] utilizationSecMaintenance 11355.058991532
scalar OsgEarthNet.uav[42] utilizationSecCharge 150343.45598257
scalar OsgEarthNet.uav[42] utilizationSecIdle 68136.705362542
scalar OsgEarthNet.uav[42] utilizationEnergyMission 135452.20497894
scalar OsgEarthNet.uav[42] utilizationEnergyMaintenance 53622.052394867
scalar OsgEarthNet.uav[42] utilizationEnergyCharge 188902.78564453
scalar OsgEarthNet.uav[42] utilizationEnergyOverdrawMission 0
scalar OsgEarthNet.uav[42] utilizationEnergyOverdrawMaintenance 0
scalar OsgEarthNet.uav[42] utilizationCountMissions 41
scalar OsgEarthNet.uav[42] utilizationCountManeuversMission 468
scalar OsgEarthNet.uav[42] utilizationCountManeuversMaintenance 82
scalar OsgEarthNet.uav[42] utilizationCountChargeState 41
scalar OsgEarthNet.uav[42] utilizationCountOverdrawnAfterMission 0
scalar OsgEarthNet.uav[42] utilizationCountIdleState 41
scalar OsgEarthNet.uav[42] utilizationFail 0
scalar OsgEarthNet.uav[42] simulationTime 259200
scalar OsgEarthNet.uav[43] utilizationSecMission 750.20472747826
scalar OsgEarthNet.uav[43] utilizationSecMaintenance 335.16822070369
scalar OsgEarthNet.uav[43] utilizationSecCharge 3910
scalar OsgEarthNet.uav[43] utilizationSecIdle 254204.62605182
scalar OsgEarthNet.uav[43] utilizationEnergyMission 3278.3790588379
scalar OsgEarthNet.uav[43] utilizationEnergyMaintenance 1664.6886100769
scalar OsgEarthNet.uav[43] utilizationEnergyCharge 4943.0698242188
scalar OsgEarthNet.uav[43] utilizationEnergyOverdrawMission 0
scalar OsgEarthNet.uav[43] utilizationEnergyOverdrawMaintenance 0
scalar OsgEarthNet.uav[43] utilizationCountMissions 1
scalar OsgEarthNet.uav[43] utilizationCountManeuversMission 11
scalar OsgEarthNet.uav[43] utilizationCountManeuversMaintenance 2
scalar OsgEarthNet.uav[43] utilizationCountChargeState 1
scalar OsgEarthNet.uav[43] utilizationCountOverdrawnAfterMission 0
scalar OsgEarthNet.uav[43] utilizationCountIdleState 2
scalar OsgEarthNet.uav[43] utilizationFail 0
scalar OsgEarthNet.uav[43] simulationTime 259200
scalar OsgEarthNet.uav[44] utilizationSecMission 28669.568421842
scalar OsgEarthNet.uav[44] utilizationSecMaintenance 12581.706104379
scalar OsgEarthNet.uav[44] utilizationSecCharge 152635.9508641
scalar OsgEarthNet.uav[44] utilizationSecIdle 65312.773609681
scalar OsgEarthNet.uav[44] utilizationEnergyMission 133278.41803741
scalar OsgEarthNet.uav[44] utilizationEnergyMaintenance 59734.586925507
scalar OsgEarthNet.uav[44] utilizationEnergyCharge 192992.56347656
scalar OsgEarthNet.uav[44] utilizationEnergyOverdrawMission 0
scalar OsgEarthNet.uav[44] utilizationEnergyOverdrawMaintenance 0
scalar OsgEarthNet.uav[44] utilizationCountMissions 41
scalar OsgEarthNet.uav[44] utilizationCountManeuversMission 475
scalar OsgEarthNet.uav[44] utilizationCountManeuversMaintenance 82
scalar OsgEarthNet.uav[44] utilizationCountChargeState 41
scalar OsgEarthNet.uav[44] utilizationCountOverdrawnAfterMission 0
scalar OsgEarthNet.uav[44] utilizationCountIdleState 41
scalar OsgEarthNet.uav[44] utilizationFail 0
scalar OsgEarthNet.uav[44] simulationTime 259200
scalar OsgEarthNet.uav[45] utilizationSecMission 694.00169469977
scalar OsgEarthNet.uav[45] utilizationSecMaintenance 282.18572599206
scalar OsgEarthNet.uav[45] utilizationSecCharge 3750
scalar OsgEarthNet.uav[45] utilizationSecIdle 254473.81157931
scalar OsgEarthNet.uav[45] utilizationEnergyMission 3407.6619415283
scalar OsgEarthNet.uav[45] utilizationEnergyMaintenance 1378.0285873413
scalar OsgEarthNet.uav[45] utilizationEnergyCharge 4729.67578125
scalar OsgEarthNet.uav[45] utilizationEnergyOverdrawMission 0
scalar OsgEarthNet.uav[45] utilizationEnergyOverdrawMaintenance 0
scalar OsgEarthNet.uav[45] utilizationCountMissions 1
scalar OsgEarthNet.uav[45] utilizationCountManeuversMission 13
scalar OsgEarthNet.uav[45] utilizationCountManeuversMaintenance 2
scalar OsgEarthNet.uav[45] utilizationCountChargeState 1
scalar OsgEarthNet.uav[45] utilizationCountOverdrawnAfterMission 0
scalar OsgEarthNet.uav[45] utilizationCountIdleState 2
scalar OsgEarthNet.uav[45] utilizationFail 0
scalar OsgEarthNet.uav[45] simulationTime 259200
scalar OsgEarthNet.uav[46] utilizationSecMission 28595.452888055
scalar OsgEarthNet.uav[46] utilizationSecMaintenance 14724.740764686
scalar OsgEarthNet.uav[46] utilizationSecCharge 159817.80534726
scalar OsgEarthNet.uav[46] utilizationSecIdle 56062
scalar OsgEarthNet.uav[46] utilizationEnergyMission 130770.76061338
scalar OsgEarthNet.uav[46] utilizationEnergyMaintenance 69555.404495239
scalar OsgEarthNet.uav[46] utilizationEnergyCharge 200139.16650391
scalar OsgEarthNet.uav[46] utilizationEnergyOverdrawMission 0
scalar OsgEarthNet.uav[46] utilizationEnergyOverdrawMaintenance 0
scalar OsgEarthNet.uav[46] utilizationCountMissions 44
scalar OsgEarthNet.uav[46] utilizationCountManeuversMission 467
scalar OsgEarthNet.uav[46] utilizationCountManeuversMaintenance 87
scalar OsgEarthNet.uav[46] utilizationCountChargeState 44
scalar OsgEarthNet.uav[46] utilizationCountOverdrawnAfterMission 0
scalar OsgEarthNet.uav[46] utilizationCountIdleState 44
scalar OsgEarthNet.uav[46] utilizationFail 0
scalar OsgEarthNet.uav[46] simulationTime 259200
scalar OsgEarthNet.uav[47] utilizationSecMission 23839.395989699
scalar OsgEarthNet.uav[47] utilizationSecMaintenance 11983.013193552
scalar OsgEarthNet.uav[47] utilizationSecCharge 131940
scalar OsgEarthNet.uav[47] utilizationSecIdle 91437.589816749
scalar OsgEarthNet.uav[47] utilizationEnergyMission 110248.72746166
scalar OsgEarthNet.uav[47] utilizationEnergyMaintenance 56071.137001038
scalar OsgEarthNet.uav[47] utilizationEnergyCharge 164609.92480469
scalar OsgEarthNet.uav[47] utilizationEnergyOverdrawMission 0
scalar OsgEarthNet.uav[47] utilizationEnergyOverdrawMaintenance 0
scalar OsgEarthNet.uav[47] utilizationCountMissions 36
scalar OsgEarthNet.uav[47] utilizationCountManeuversMission 375
scalar OsgEarthNet.uav[47] utilizationCountManeuversMaintenance 73
scalar OsgEarthNet.uav[47] utilizationCountChargeState 36
scalar OsgEarthNet.uav[47] utilizationCountOverdrawnAfterMission 0
scalar OsgEarthNet.uav[47] utilizationCountIdleState 37
scalar OsgEarthNet.uav[47] utilizationFail 0
scalar OsgEarthNet.uav[47] simulationTime 259200
scalar OsgEarthNet.uav[48] utilizationSecMission 32006.434240799
scalar OsgEarthNet.uav[48] utilizationSecMaintenance 13291.564759201
scalar OsgEarthNet.uav[48] utilizationSecCharge 165570
scalar OsgEarthNet.uav[48] utilizationSecIdle 48332
scalar OsgEarthNet.uav[48] utilizationEnergyMission 146848.17531008
scalar OsgEarthNet.uav[48] utilizationEnergyMaintenance 62250.816570282
scalar OsgEarthNet.uav[48] utilizationEnergyCharge 206784.59130859
scalar OsgEarthNet.uav[48] utilizationEnergyOverdrawMission 0
scalar OsgEarthNet.uav[48] utilizationEnergyOverdrawMaintenance 0
scalar OsgEarthNet.uav[48] utilizationCountMissions 45
scalar OsgEarthNet.uav[48] utilizationCountManeuversMission 517
scalar OsgEarthNet.uav[48] utilizationCountManeuversMaintenance 90
scalar OsgEarthNet.uav[48] utilizationCountChargeState 45
scalar OsgEarthNet.uav[48] utilizationCountOverdrawnAfterMission 0
scalar OsgEarthNet.uav[48] utilizationCountIdleState 46
scalar OsgEarthNet.uav[48] utilizationFail 0
scalar OsgEarthNet.uav[48] simulationTime 259200
scalar OsgEarthNet.uav[49] utilizationSecMission 760.62515258028
scalar OsgEarthNet.uav[49] utilizationSecMaintenance 223.6438949726
scalar OsgEarthNet.uav[49] utilizationSecCharge 3730
scalar OsgEarthNet.uav[49] utilizationSecIdle 254485.72995245
scalar OsgEarthNet.uav[49] utilizationEnergyMission 3556.4258422852
scalar OsgEarthNet.uav[49] utilizationEnergyMaintenance 1089.0240287781
scalar OsgEarthNet.uav[49] utilizationEnergyCharge 4645.4516601562
scalar OsgEarthNet.uav[49] utilizationEnergyOverdrawMission 0
scalar OsgEarthNet.uav[49] utilizationEnergyOverdrawMaintenance 0
scalar OsgEarthNet.uav[49] utilizationCountMissions 1
scalar OsgEarthNet.uav[49] utilizationCountManeuversMission 12
scalar OsgEarthNet.uav[49] utilizationCountManeuversMaintenance 2
scalar OsgEarthNet.uav[49] utilizationCountChargeState 1
scalar OsgEarthNet.uav[49] utilizationCountOverdrawnAfterMission 0
scalar OsgEarthNet.uav[49] utilizationCountIdleState 2
scalar OsgEarthNet.uav[49] utilizationFail 0
scalar OsgEarthNet.uav[49] simulationTime 259200
scalar OsgEarthNet.uav[50] utilizationSecMission 2647.4303024974
scalar OsgEarthNet.uav[50] utilizationSecMaintenance 1244.6797664441
scalar OsgEarthNet.uav[50] utilizationSecCharge 14390
scalar OsgEarthNet.uav[50] utilizationSecIdle 240917.88893106
scalar OsgEarthNet.uav[50] utilizationEnergyMission 12063.402305603
scalar OsgEarthNet.uav[50] utilizationEnergyMaintenance 5762.6584434509
scalar OsgEarthNet.uav[50] utilizationEnergyCharge 17826.065429688
scalar OsgEarthNet.uav[50] utilizationEnergyOverdrawMission 0
scalar OsgEarthNet.uav[50] utilizationEnergyOverdrawMaintenance 0
scalar OsgEarthNet.uav[50] utilizationCountMissions 4
scalar OsgEarthNet.uav[50] utilizationCountManeuversMission 43
scalar OsgEarthNet.uav[50] utilizationCountManeuversMaintenance 8
scalar OsgEarthNet.uav[50] utilizationCountChargeState 4
scalar OsgEarthNet.uav[50] utilizationCountOverdrawnAfterMission 0
scalar OsgEarthNet.uav[50] utilizationCountIdleState 5
scalar OsgEarthNet.uav[50] utilizationFail 0
scalar OsgEarthNet.uav[50] simulationTime 259200
scalar OsgEarthNet.uav[51] utilizationSecMission 30199.499482518
scalar OsgEarthNet.uav[51] utilizationSecMaintenance 13843.766345405
scalar OsgEarthNet.uav[51] utilizationSecCharge 164090
scalar OsgEarthNet.uav[51] utilizationSecIdle 51066.733172078
scalar OsgEarthNet.uav[51] utilizationEnergyMission 140368.68125916
scalar OsgEarthNet.uav[51] utilizationEnergyMaintenance 65448.576004028
scalar OsgEarthNet.uav[51] utilizationEnergyCharge 206129.28564453
scalar OsgEarthNet.uav[51] utilizationEnergyOverdrawMission 0
scalar OsgEarthNet.uav[51] utilizationEnergyOverdrawMaintenance 0
scalar OsgEarthNet.uav[51] utilizationCountMissions 44
scalar OsgEarthNet.uav[51] utilizationCountManeuversMission 493
scalar OsgEarthNet.uav[51] utilizationCountManeuversMaintenance 88
scalar OsgEarthNet.uav[51] utilizationCountChargeState 44
scalar OsgEarthNet.uav[51] utilizationCountOverdrawnAfterMission 0
scalar OsgEarthNet.uav[51] utilizationCountIdleState 45
scalar OsgEarthNet.uav[51] utilizationFail 0
scalar OsgEarthNet.uav[51] simulationTime 259200
scalar OsgEarthNet.uav[52] utilizationSecMission 18397.778217432
scalar OsgEarthNet.uav[52] utilizationSecMaintenance 9651.6016256093
scalar OsgEarthNet.uav[52] utilizationSecCharge 103490
scalar OsgEarthNet.uav[52] utilizationSecIdle 127660.61915696
scalar OsgEarthNet.uav[52] utilizationEnergyMission 84097.65057373
scalar OsgEarthNet.uav[52] utilizationEnergyMaintenance 44829.4400177
scalar OsgEarthNet.uav[52] utilizationEnergyCharge 129295.71337891
scalar OsgEarthNet.uav[52] utilizationEnergyOverdrawMission 0
scalar OsgEarthNet.uav[52] utilizationEnergyOverdrawMaintenance 0
scalar OsgEarthNet.uav[52] utilizationCountMissions 28
scalar OsgEarthNet.uav[52] utilizationCountManeuversMission 305
scalar OsgEarthNet.uav[52] utilizationCountManeuversMaintenance 56
scalar OsgEarthNet.uav[52] utilizationCountChargeState 28
scalar OsgEarthNet.uav[52] utilizationCountOverdrawnAfterMission 0
scalar OsgEarthNet.uav[52] utilizationCountIdleState 29
scalar OsgEarthNet.uav[52] utilizationFail 0
scalar OsgEarthNet.uav[52] simulationTime 259200
scalar OsgEarthNet.uav[53] utilizationSecMission 760.62515258028
scalar OsgEarthNet.uav[53] utilizationSecMaintenance 291.95923480269
scalar OsgEarthNet.uav[53] utilizationSecCharge 3870
scalar OsgEarthNet.uav[53] utilizationSecIdle 254277.41461262
scalar OsgEarthNet.uav[53] utilizationEnergyMission 3647.2095718384
scalar OsgEarthNet.uav[53] utilizationEnergyMaintenance 1271.8094711304
scalar OsgEarthNet.uav[53] utilizationEnergyCharge 4919.0146484375
scalar OsgEarthNet.uav[53] utilizationEnergyOverdrawMission 0
scalar OsgEarthNet.uav[53] utilizationEnergyOverdrawMaintenance 0
scalar OsgEarthNet.uav[53] utilizationCountMissions 1
scalar OsgEarthNet.uav[53] utilizationCountManeuversMission 12
scalar OsgEarthNet.uav[53] utilizationCountManeuversMaintenance 2
scalar OsgEarthNet.uav[53] utilizationCountChargeState 1
scalar OsgEarthNet.uav[53] utilizationCountOverdrawnAfterMission 0
scalar OsgEarthNet.uav[53] utilizationCountIdleState 2
scalar OsgEarthNet.uav[53] utilizationFail 0
scalar OsgEarthNet.uav[53] simulationTime 259200
scalar OsgEarthNet.uav[54] utilizationSecMission 29251.027181157
scalar OsgEarthNet.uav[54] utilizationSecMaintenance 14479.66336586
scalar OsgEarthNet.uav[54] utilizationSecCharge 162450
scalar OsgEarthNet.uav[54] utilizationSecIdle 53019.308452982
scalar OsgEarthNet.uav[54] utilizationEnergyMission 134781.9500885
scalar OsgEarthNet.uav[54] utilizationEnergyMaintenance 67922.63286972
scalar OsgEarthNet.uav[54] utilizationEnergyCharge 203101.31884766
scalar OsgEarthNet.uav[54] utilizationEnergyOverdrawMission 0
scalar OsgEarthNet.uav[54] utilizationEnergyOverdrawMaintenance 0
scalar OsgEarthNet.uav[54] utilizationCountMissions 44
scalar OsgEarthNet.uav[54] utilizationCountManeuversMission 478
scalar OsgEarthNet.uav[54] utilizationCountManeuversMaintenance 88
scalar OsgEarthNet.uav[54] utilizationCountChargeState 44
scalar OsgEarthNet.uav[54] utilizationCountOverdrawnAfterMission 0
scalar OsgEarthNet.uav[54] utilizationCountIdleState 45
scalar OsgEarthNet.uav[54] utilizationFail 0
scalar OsgEarthNet.uav[54] simulationTime 259200
scalar OsgEarthNet.uav[55] utilizationSecMission 750.20472747826
scalar OsgEarthNet.uav[55] utilizationSecMaintenance 300.8347882699
scalar OsgEarthNet.uav[55] utilizationSecCharge 3890
scalar OsgEarthNet.uav[55] utilizationSecIdle 254258.95948425
scalar OsgEarthNet.uav[55] utilizationEnergyMission 3588.1526641846
scalar OsgEarthNet.uav[55] utilizationEnergyMaintenance 1347.8278923035
scalar OsgEarthNet.uav[55] utilizationEnergyCharge 4935.9770507812
scalar OsgEarthNet.uav[55] utilizationEnergyOverdrawMission 0
scalar OsgEarthNet.uav[55] utilizationEnergyOverdrawMaintenance 0
scalar OsgEarthNet.uav[55] utilizationCountMissions 1
scalar OsgEarthNet.uav[55] utilizationCountManeuversMission 11
scalar OsgEarthNet.uav[55] utilizationCountManeuversMaintenance 2
scalar OsgEarthNet.uav[55] utilizationCountChargeState 1
scalar OsgEarthNet.uav[55] utilizationCountOverdrawnAfterMission 0
scalar OsgEarthNet.uav[55] utilizationCountIdleState 2
scalar OsgEarthNet.uav[55] utilizationFail 0
scalar OsgEarthNet.uav[55] simulationTime 259200
scalar OsgEarthNet.uav[56] utilizationSecMission 760.62515258028
scalar OsgEarthNet.uav[56] utilizationSecMaintenance 291.95923480269
scalar OsgEarthNet.uav[56] utilizationSecCharge 3860
scalar OsgEarthNet.uav[56] utilizationSecIdle 254287.41461262
scalar OsgEarthNet.uav[56] utilizationEnergyMission 3567.4006652832
scalar OsgEarthNet.uav[56] utilizationEnergyMaintenance 1302.0631637573
scalar OsgEarthNet.uav[56] utilizationEnergyCharge 4869.4633789062
scalar OsgEarthNet.uav[56] utilizationEnergyOverdrawMission 0
scalar OsgEarthNet.uav[56] utilizationEnergyOverdrawMaintenance 0
scalar OsgEarthNet.uav[56] utilizationCountMissions 1
scalar OsgEarthNet.uav[56] utilizationCountManeuversMission 12
scalar OsgEarthNet.uav[56] utilizationCountManeuversMaintenance 2
scalar OsgEarthNet.uav[56] utilizationCountChargeState 1
scalar OsgEarthNet.uav[56] utilizationCountOverdrawnAfterMission 0
scalar OsgEarthNet.uav[56] utilizationCountIdleState 2
scalar OsgEarthNet.uav[56] utilizationFail 0
scalar OsgEarthNet.uav[56] simulationTime 259200
scalar OsgEarthNet.uav[57] utilizationSecMission 28789.208206852
scalar OsgEarthNet.uav[57] utilizationSecMaintenance 12698.607369796
scalar OsgEarthNet.uav[57] utilizationSecCharge 152990
scalar OsgEarthNet.uav[57] utilizationSecIdle 64722.183423353
scalar OsgEarthNet.uav[57] utilizationEnergyMission 133945.71306743
scalar OsgEarthNet.uav[57] utilizationEnergyMaintenance 59387.172985077
scalar OsgEarthNet.uav[57] utilizationEnergyCharge 192576.55029297
scalar OsgEarthNet.uav[57] utilizationEnergyOverdrawMission 0
scalar OsgEarthNet.uav[57] utilizationEnergyOverdrawMaintenance 0
scalar OsgEarthNet.uav[57] utilizationCountMissions 41
scalar OsgEarthNet.uav[57] utilizationCountManeuversMission 460
scalar OsgEarthNet.uav[57] utilizationCountManeuversMaintenance 83
scalar OsgEarthNet.uav[57] utilizationCountChargeState 41
scalar OsgEarthNet.uav[57] utilizationCountOverdrawnAfterMission 0
scalar OsgEarthNet.uav[57] utilizationCountIdleState 42
scalar OsgEarthNet.uav[57] utilizationFail 0
scalar OsgEarthNet.uav[57] simulationTime 259200
scalar OsgEarthNet.uav[58] utilizationSecMission 2004.9532649022
scalar OsgEarthNet.uav[58] utilizationSecMaintenance 949.68657609638
scalar OsgEarthNet.uav[58] utilizationSecCharge 10960
scalar OsgEarthNet.uav[58] utilizationSecIdle 245285.359159
scalar OsgEarthNet.uav[58] utilizationEnergyMission 9195.6587371826
scalar OsgEarthNet.uav[58] utilizationEnergyMaintenance 4438.3783302307
scalar OsgEarthNet.uav[58] utilizationEnergyCharge 13634.03515625
scalar OsgEarthNet.uav[58] utilizationEnergyOverdrawMission 0
scalar OsgEarthNet.uav[58] utilizationEnergyOverdrawMaintenance 0
scalar OsgEarthNet.uav[58] utilizationCountMissions 3
scalar OsgEarthNet.uav[58] utilizationCountManeuversMission 34
scalar OsgEarthNet.uav[58] utilizationCountManeuversMaintenance 6
scalar OsgEarthNet.uav[58] utilizationCountChargeState 3
scalar OsgEarthNet.uav[58] utilizationCountOverdrawnAfterMission 0
scalar OsgEarthNet.uav[58] utilizationCountIdleState 4
scalar OsgEarthNet.uav[58] utilizationFail 0
scalar OsgEarthNet.uav[58] simulationTime 259200
scalar OsgEarthNet.uav[59] utilizationSecMission 684.4732299383
scalar OsgEarthNet.uav[59] utilizationSecMaintenance 298.56834692969
scalar OsgEarthNet.uav[59] utilizationSecCharge 3860
scalar OsgEarthNet.uav[59] utilizationSecIdle 254356.95742313
scalar OsgEarthNet.uav[59] utilizationEnergyMission 3376.8179626465
scalar OsgEarthNet.uav[59] utilizationEnergyMaintenance 1511.3593673706
scalar OsgEarthNet.uav[59] utilizationEnergyCharge 4888.1787109375
scalar OsgEarthNet.uav[59] utilizationEnergyOverdrawMission 0
scalar OsgEarthNet.uav[59] utilizationEnergyOverdrawMaintenance 0
scalar OsgEarthNet.uav[59] utilizationCountMissions 1
scalar OsgEarthNet.uav[59] utilizationCountManeuversMission 11
scalar OsgEarthNet.uav[59] utilizationCountManeuversMaintenance 2
scalar OsgEarthNet.uav[59] utilizationCountChargeState 1
scalar OsgEarthNet.uav[59] utilizationCountOverdrawnAfterMission 0
scalar OsgEarthNet.uav[59] utilizationCountIdleState 2
scalar OsgEarthNet.uav[59] utilizationFail 0
scalar OsgEarthNet.uav[59] simulationTime 259200
scalar OsgEarthNet.uav[60] utilizationSecMission 760.62515258028
scalar OsgEarthNet.uav[60] utilizationSecMaintenance 291.95923480269
scalar OsgEarthNet.uav[60] utilizationSecCharge 3720
scalar OsgEarthNet.uav[60] utilizationSecIdle 254427.41461262
scalar OsgEarthNet.uav[60] utilizationEnergyMission 3331.4943466187
scalar OsgEarthNet.uav[60] utilizationEnergyMaintenance 1376.3252792358
scalar OsgEarthNet.uav[60] utilizationEnergyCharge 4707.8193359375
scalar OsgEarthNet.uav[60] utilizationEnergyOverdrawMission 0
scalar OsgEarthNet.uav[60] utilizationEnergyOverdrawMaintenance 0
scalar OsgEarthNet.uav[60] utilizationCountMissions 1
scalar OsgEarthNet.uav[60] utilizationCountManeuversMission 12
scalar OsgEarthNet.uav[60] utilizationCountManeuversMaintenance 2
scalar OsgEarthNet.uav[60] utilizationCountChargeState 1
scalar OsgEarthNet.uav[60] utilizationCountOverdrawnAfterMission 0
scalar OsgEarthNet.uav[60] utilizationCountIdleState 2
scalar OsgEarthNet.uav[60] utilizationFail 0
scalar OsgEarthNet.uav[60] simulationTime 259200
scalar OsgEarthNet.uav[61] utilizationSecMission 581.2023559588
scalar OsgEarthNet.uav[61] utilizationSecMaintenance 387.12609113476
scalar OsgEarthNet.uav[61] utilizationSecCharge 3660
scalar OsgEarthNet.uav[61] utilizationSecIdle 254571.67055291
scalar OsgEarthNet.uav[61] utilizationEnergyMission 2799.208694458
scalar OsgEarthNet.uav[61] utilizationEnergyMaintenance 1771.6009941101
scalar OsgEarthNet.uav[61] utilizationEnergyCharge 4570.8120117188
scalar OsgEarthNet.uav[61] utilizationEnergyOverdrawMission 0
scalar OsgEarthNet.uav[61] utilizationEnergyOverdrawMaintenance 0
scalar OsgEarthNet.uav[61] utilizationCountMissions 1
scalar OsgEarthNet.uav[61] utilizationCountManeuversMission 8
scalar OsgEarthNet.uav[61] utilizationCountManeuversMaintenance 2
scalar OsgEarthNet.uav[61] utilizationCountChargeState 1
scalar OsgEarthNet.uav[61] utilizationCountOverdrawnAfterMission 0
scalar OsgEarthNet.uav[61] utilizationCountIdleState 2
scalar OsgEarthNet.uav[61] utilizationFail 0
scalar OsgEarthNet.uav[61] simulationTime 259200
scalar OsgEarthNet.uav[62] utilizationSecMission 698.84532193436
scalar OsgEarthNet.uav[62] utilizationSecMaintenance 251.76601760685
scalar OsgEarthNet.uav[62] utilizationSecCharge 3640
scalar OsgEarthNet.uav[62] utilizationSecIdle 254609.38766046
scalar OsgEarthNet.uav[62] utilizationEnergyMission 3191.5267944336
scalar OsgEarthNet.uav[62] utilizationEnergyMaintenance 1327.8468742371
scalar OsgEarthNet.uav[62] utilizationEnergyCharge 4519.3720703125
scalar OsgEarthNet.uav[62] utilizationEnergyOverdrawMission 0
scalar OsgEarthNet.uav[62] utilizationEnergyOverdrawMaintenance 0
scalar OsgEarthNet.uav[62] utilizationCountMissions 1
scalar OsgEarthNet.uav[62] utilizationCountManeuversMission 10
scalar OsgEarthNet.uav[62] utilizationCountManeuversMaintenance 2
scalar OsgEarthNet.uav[62] utilizationCountChargeState 1
scalar OsgEarthNet.uav[62] utilizationCountOverdrawnAfterMission 0
scalar OsgEarthNet.uav[62] utilizationCountIdleState 2
scalar OsgEarthNet.uav[62] utilizationFail 0
scalar OsgEarthNet.uav[62] simulationTime 259200
scalar OsgEarthNet.uav[63] utilizationSecMission 760.62515258028
scalar OsgEarthNet.uav[63] utilizationSecMaintenance 291.95923480269
scalar OsgEarthNet.uav[63] utilizationSecCharge 3830
scalar OsgEarthNet.uav[63] utilizationSecIdle 254317.41461262
scalar OsgEarthNet.uav[63] utilizationEnergyMission 3521.7782745361
scalar OsgEarthNet.uav[63] utilizationEnergyMaintenance 1324.0523300171
scalar OsgEarthNet.uav[63] utilizationEnergyCharge 4845.833984375
scalar OsgEarthNet.uav[63] utilizationEnergyOverdrawMission 0
scalar OsgEarthNet.uav[63] utilizationEnergyOverdrawMaintenance 0
scalar OsgEarthNet.uav[63] utilizationCountMissions 1
scalar OsgEarthNet.uav[63] utilizationCountManeuversMission 12
scalar OsgEarthNet.uav[63] utilizationCountManeuversMaintenance 2
scalar OsgEarthNet.uav[63] utilizationCountChargeState 1
scalar OsgEarthNet.uav[63] utilizationCountOverdrawnAfterMission 0
scalar OsgEarthNet.uav[63] utilizationCountIdleState 2
scalar OsgEarthNet.uav[63] utilizationFail 0
scalar OsgEarthNet.uav[63] simulationTime 259200
scalar OsgEarthNet.uav[64] utilizationSecMission 28607.124104686
scalar OsgEarthNet.uav[64] utilizationSecMaintenance 13151.39739894
scalar OsgEarthNet.uav[64] utilizationSecCharge 154749.39029509
scalar OsgEarthNet.uav[64] utilizationSecIdle 62692.087201284
scalar OsgEarthNet.uav[64] utilizationEnergyMission 131604.46434021
scalar OsgEarthNet.uav[64] utilizationEnergyMaintenance 62162.715965271
scalar OsgEarthNet.uav[64] utilizationEnergyCharge 193550.07202148
scalar OsgEarthNet.uav[64] utilizationEnergyOverdrawMission 0
scalar OsgEarthNet.uav[64] utilizationEnergyOverdrawMaintenance 0
scalar OsgEarthNet.uav[64] utilizationCountMissions 42
scalar OsgEarthNet.uav[64] utilizationCountManeuversMission 460
scalar OsgEarthNet.uav[64] utilizationCountManeuversMaintenance 84
scalar OsgEarthNet.uav[64] utilizationCountChargeState 42
scalar OsgEarthNet.uav[64] utilizationCountOverdrawnAfterMission 0
scalar OsgEarthNet.uav[64] utilizationCountIdleState 42
scalar OsgEarthNet.uav[64] utilizationFail 0
scalar OsgEarthNet.uav[64] simulationTime 259200
scalar OsgEarthNet.uav[65] utilizationSecMission 31129.704469787
scalar OsgEarthNet.uav[65] utilizationSecMaintenance 12929.248066209
scalar OsgEarthNet.uav[65] utilizationSecCharge 161161.87135359
scalar OsgEarthNet.uav[65] utilizationSecIdle 53979.175110411
scalar OsgEarthNet.uav[65] utilizationEnergyMission 143475.63326645
scalar OsgEarthNet.uav[65] utilizationEnergyMaintenance 59499.775848389
[...]
scalar OsgEarthNet.uav[82] utilizationEnergyMission 134076.46094513
scalar OsgEarthNet.uav[82] utilizationEnergyMaintenance 67145.843822479
scalar OsgEarthNet.uav[82] utilizationEnergyCharge 198295.39331055
scalar OsgEarthNet.uav[82] utilizationEnergyOverdrawMission 0
scalar OsgEarthNet.uav[82] utilizationEnergyOverdrawMaintenance 0
scalar OsgEarthNet.uav[82] utilizationCountMissions 44
scalar OsgEarthNet.uav[82] utilizationCountManeuversMission 465
scalar OsgEarthNet.uav[82] utilizationCountManeuversMaintenance 88
scalar OsgEarthNet.uav[82] utilizationCountChargeState 44
scalar OsgEarthNet.uav[82] utilizationCountOverdrawnAfterMission 0
scalar OsgEarthNet.uav[82] utilizationCountIdleState 44
scalar OsgEarthNet.uav[82] utilizationFail 0
scalar OsgEarthNet.uav[82] simulationTime 259200
scalar OsgEarthNet.uav[83] utilizationSecMission 836.77707522227
scalar OsgEarthNet.uav[83] utilizationSecMaintenance 217.0347828456
scalar OsgEarthNet.uav[83] utilizationSecCharge 3820
scalar OsgEarthNet.uav[83] utilizationSecIdle 254326.18714193
scalar OsgEarthNet.uav[83] utilizationEnergyMission 3784.0483474731
scalar OsgEarthNet.uav[83] utilizationEnergyMaintenance 1013.0939750671
scalar OsgEarthNet.uav[83] utilizationEnergyCharge 4797.14453125
scalar OsgEarthNet.uav[83] utilizationEnergyOverdrawMission 0
scalar OsgEarthNet.uav[83] utilizationEnergyOverdrawMaintenance 0
scalar OsgEarthNet.uav[83] utilizationCountMissions 1
scalar OsgEarthNet.uav[83] utilizationCountManeuversMission 13
scalar OsgEarthNet.uav[83] utilizationCountManeuversMaintenance 2
scalar OsgEarthNet.uav[83] utilizationCountChargeState 1
scalar OsgEarthNet.uav[83] utilizationCountOverdrawnAfterMission 0
scalar OsgEarthNet.uav[83] utilizationCountIdleState 2
scalar OsgEarthNet.uav[83] utilizationFail 0
scalar OsgEarthNet.uav[83] simulationTime 259200
scalar OsgEarthNet.uav[84] utilizationSecMission 26580.052624414
scalar OsgEarthNet.uav[84] utilizationSecMaintenance 14527.253254244
scalar OsgEarthNet.uav[84] utilizationSecCharge 151142.67483843
scalar OsgEarthNet.uav[84] utilizationSecIdle 66950.018282913
scalar OsgEarthNet.uav[84] utilizationEnergyMission 123841.97120667
scalar OsgEarthNet.uav[84] utilizationEnergyMaintenance 68464.54208374
scalar OsgEarthNet.uav[84] utilizationEnergyCharge 188811.04077148
scalar OsgEarthNet.uav[84] utilizationEnergyOverdrawMission 0
scalar OsgEarthNet.uav[84] utilizationEnergyOverdrawMaintenance 0
scalar OsgEarthNet.uav[84] utilizationCountMissions 42
scalar OsgEarthNet.uav[84] utilizationCountManeuversMission 424
scalar OsgEarthNet.uav[84] utilizationCountManeuversMaintenance 84
scalar OsgEarthNet.uav[84] utilizationCountChargeState 42
scalar OsgEarthNet.uav[84] utilizationCountOverdrawnAfterMission 0
scalar OsgEarthNet.uav[84] utilizationCountIdleState 42
scalar OsgEarthNet.uav[84] utilizationFail 0
scalar OsgEarthNet.uav[84] simulationTime 259200
scalar OsgEarthNet.uav[85] utilizationSecMission 750.20472747826
scalar OsgEarthNet.uav[85] utilizationSecMaintenance 300.8347882699
scalar OsgEarthNet.uav[85] utilizationSecCharge 3650
scalar OsgEarthNet.uav[85] utilizationSecIdle 254498.95948425
scalar OsgEarthNet.uav[85] utilizationEnergyMission 3268.1007080078
scalar OsgEarthNet.uav[85] utilizationEnergyMaintenance 1260.0207023621
scalar OsgEarthNet.uav[85] utilizationEnergyCharge 4528.12109375
scalar OsgEarthNet.uav[85] utilizationEnergyOverdrawMission 0
scalar OsgEarthNet.uav[85] utilizationEnergyOverdrawMaintenance 0
scalar OsgEarthNet.uav[85] utilizationCountMissions 1
scalar OsgEarthNet.uav[85] utilizationCountManeuversMission 11
scalar OsgEarthNet.uav[85] utilizationCountManeuversMaintenance 2
scalar OsgEarthNet.uav[85] utilizationCountChargeState 1
scalar OsgEarthNet.uav[85] utilizationCountOverdrawnAfterMission 0
scalar OsgEarthNet.uav[85] utilizationCountIdleState 2
scalar OsgEarthNet.uav[85] utilizationFail 0
scalar OsgEarthNet.uav[85] simulationTime 259200
scalar OsgEarthNet.uav[86] utilizationSecMission 623.68863475643
scalar OsgEarthNet.uav[86] utilizationSecMaintenance 394.94199877579
scalar OsgEarthNet.uav[86] utilizationSecCharge 3780
scalar OsgEarthNet.uav[86] utilizationSecIdle 254401.36836647
scalar OsgEarthNet.uav[86] utilizationEnergyMission 2783.4736175537
scalar OsgEarthNet.uav[86] utilizationEnergyMaintenance 1803.313835144
scalar OsgEarthNet.uav[86] utilizationEnergyCharge 4778.3427734375
scalar OsgEarthNet.uav[86] utilizationEnergyOverdrawMission 0
scalar OsgEarthNet.uav[86] utilizationEnergyOverdrawMaintenance 0
scalar OsgEarthNet.uav[86] utilizationCountMissions 1
scalar OsgEarthNet.uav[86] utilizationCountManeuversMission 10
scalar OsgEarthNet.uav[86] utilizationCountManeuversMaintenance 2
scalar OsgEarthNet.uav[86] utilizationCountChargeState 1
scalar OsgEarthNet.uav[86] utilizationCountOverdrawnAfterMission 0
scalar OsgEarthNet.uav[86] utilizationCountIdleState 2
scalar OsgEarthNet.uav[86] utilizationFail 0
scalar OsgEarthNet.uav[86] simulationTime 259200
scalar OsgEarthNet.uav[87] utilizationSecMission 31260.021152349
scalar OsgEarthNet.uav[87] utilizationSecMaintenance 14644.691056824
scalar OsgEarthNet.uav[87] utilizationSecCharge 169466.93418356
scalar OsgEarthNet.uav[87] utilizationSecIdle 43828.352607263
scalar OsgEarthNet.uav[87] utilizationEnergyMission 144332.92092133
scalar OsgEarthNet.uav[87] utilizationEnergyMaintenance 68900.99810791
scalar OsgEarthNet.uav[87] utilizationEnergyCharge 212407.30273438
scalar OsgEarthNet.uav[87] utilizationEnergyOverdrawMission 0
scalar OsgEarthNet.uav[87] utilizationEnergyOverdrawMaintenance 0
scalar OsgEarthNet.uav[87] utilizationCountMissions 46
scalar OsgEarthNet.uav[87] utilizationCountManeuversMission 501
scalar OsgEarthNet.uav[87] utilizationCountManeuversMaintenance 92
scalar OsgEarthNet.uav[87] utilizationCountChargeState 46
scalar OsgEarthNet.uav[87] utilizationCountOverdrawnAfterMission 0
scalar OsgEarthNet.uav[87] utilizationCountIdleState 46
scalar OsgEarthNet.uav[87] utilizationFail 0
scalar OsgEarthNet.uav[87] simulationTime 259200
scalar OsgEarthNet.uav[88] utilizationSecMission 750.20472747826
scalar OsgEarthNet.uav[88] utilizationSecMaintenance 300.8347882699
scalar OsgEarthNet.uav[88] utilizationSecCharge 3730
scalar OsgEarthNet.uav[88] utilizationSecIdle 254418.95948425
scalar OsgEarthNet.uav[88] utilizationEnergyMission 3267.5599517822
scalar OsgEarthNet.uav[88] utilizationEnergyMaintenance 1370.454662323
scalar OsgEarthNet.uav[88] utilizationEnergyCharge 4638.0170898438
scalar OsgEarthNet.uav[88] utilizationEnergyOverdrawMission 0
scalar OsgEarthNet.uav[88] utilizationEnergyOverdrawMaintenance 0
scalar OsgEarthNet.uav[88] utilizationCountMissions 1
scalar OsgEarthNet.uav[88] utilizationCountManeuversMission 11
scalar OsgEarthNet.uav[88] utilizationCountManeuversMaintenance 2
scalar OsgEarthNet.uav[88] utilizationCountChargeState 1
scalar OsgEarthNet.uav[88] utilizationCountOverdrawnAfterMission 0
scalar OsgEarthNet.uav[88] utilizationCountIdleState 2
scalar OsgEarthNet.uav[88] utilizationFail 0
scalar OsgEarthNet.uav[88] simulationTime 259200
scalar OsgEarthNet.uav[89] utilizationSecMission 750.20472747826
scalar OsgEarthNet.uav[89] utilizationSecMaintenance 335.16822070369
scalar OsgEarthNet.uav[89] utilizationSecCharge 3720
scalar OsgEarthNet.uav[89] utilizationSecIdle 254394.62605182
scalar OsgEarthNet.uav[89] utilizationEnergyMission 3140.1335144043
scalar OsgEarthNet.uav[89] utilizationEnergyMaintenance 1564.1524772644
scalar OsgEarthNet.uav[89] utilizationEnergyCharge 4704.2827148438
scalar OsgEarthNet.uav[89] utilizationEnergyOverdrawMission 0
scalar OsgEarthNet.uav[89] utilizationEnergyOverdrawMaintenance 0
scalar OsgEarthNet.uav[89] utilizationCountMissions 1
scalar OsgEarthNet.uav[89] utilizationCountManeuversMission 11
scalar OsgEarthNet.uav[89] utilizationCountManeuversMaintenance 2
scalar OsgEarthNet.uav[89] utilizationCountChargeState 1
scalar OsgEarthNet.uav[89] utilizationCountOverdrawnAfterMission 0
scalar OsgEarthNet.uav[89] utilizationCountIdleState 2
scalar OsgEarthNet.uav[89] utilizationFail 0
scalar OsgEarthNet.uav[89] simulationTime 259200
scalar OsgEarthNet.uav[90] utilizationSecMission 836.77707522227
scalar OsgEarthNet.uav[90] utilizationSecMaintenance 217.0347828456
scalar OsgEarthNet.uav[90] utilizationSecCharge 3860
scalar OsgEarthNet.uav[90] utilizationSecIdle 254286.18714193
scalar OsgEarthNet.uav[90] utilizationEnergyMission 3842.4132385254
scalar OsgEarthNet.uav[90] utilizationEnergyMaintenance 1057.965587616
scalar OsgEarthNet.uav[90] utilizationEnergyCharge 4900.37890625
scalar OsgEarthNet.uav[90] utilizationEnergyOverdrawMission 0
scalar OsgEarthNet.uav[90] utilizationEnergyOverdrawMaintenance 0
scalar OsgEarthNet.uav[90] utilizationCountMissions 1
scalar OsgEarthNet.uav[90] utilizationCountManeuversMission 13
scalar OsgEarthNet.uav[90] utilizationCountManeuversMaintenance 2
scalar OsgEarthNet.uav[90] utilizationCountChargeState 1
scalar OsgEarthNet.uav[90] utilizationCountOverdrawnAfterMission 0
scalar OsgEarthNet.uav[90] utilizationCountIdleState 2
scalar OsgEarthNet.uav[90] utilizationFail 0
scalar OsgEarthNet.uav[90] simulationTime 259200
scalar OsgEarthNet.uav[91] utilizationSecMission 28557.686277942
scalar OsgEarthNet.uav[91] utilizationSecMaintenance 14359.943040513
scalar OsgEarthNet.uav[91] utilizationSecCharge 159325.05459533
scalar OsgEarthNet.uav[91] utilizationSecIdle 56957.315086215
scalar OsgEarthNet.uav[91] utilizationEnergyMission 132111.88199997
scalar OsgEarthNet.uav[91] utilizationEnergyMaintenance 67995.392116547
scalar OsgEarthNet.uav[91] utilizationEnergyCharge 199445.82373047
scalar OsgEarthNet.uav[91] utilizationEnergyOverdrawMission 0
scalar OsgEarthNet.uav[91] utilizationEnergyOverdrawMaintenance 0
scalar OsgEarthNet.uav[91] utilizationCountMissions 44
scalar OsgEarthNet.uav[91] utilizationCountManeuversMission 458
scalar OsgEarthNet.uav[91] utilizationCountManeuversMaintenance 88
scalar OsgEarthNet.uav[91] utilizationCountChargeState 44
scalar OsgEarthNet.uav[91] utilizationCountOverdrawnAfterMission 0
scalar OsgEarthNet.uav[91] utilizationCountIdleState 44
scalar OsgEarthNet.uav[91] utilizationFail 0
scalar OsgEarthNet.uav[91] simulationTime 259200
scalar OsgEarthNet.uav[92] utilizationSecMission 30585.590117629
scalar OsgEarthNet.uav[92] utilizationSecMaintenance 15806.173282843
scalar OsgEarthNet.uav[92] utilizationSecCharge 169285.53293181
scalar OsgEarthNet.uav[92] utilizationSecIdle 43522.702667718
scalar OsgEarthNet.uav[92] utilizationEnergyMission 141873.92874908
scalar OsgEarthNet.uav[92] utilizationEnergyMaintenance 73376.000022888
scalar OsgEarthNet.uav[92] utilizationEnergyCharge 213252.65869141
scalar OsgEarthNet.uav[92] utilizationEnergyOverdrawMission 0
scalar OsgEarthNet.uav[92] utilizationEnergyOverdrawMaintenance 0
scalar OsgEarthNet.uav[92] utilizationCountMissions 46
scalar OsgEarthNet.uav[92] utilizationCountManeuversMission 493
scalar OsgEarthNet.uav[92] utilizationCountManeuversMaintenance 92
scalar OsgEarthNet.uav[92] utilizationCountChargeState 46
scalar OsgEarthNet.uav[92] utilizationCountOverdrawnAfterMission 0
scalar OsgEarthNet.uav[92] utilizationCountIdleState 46
scalar OsgEarthNet.uav[92] utilizationFail 0
scalar OsgEarthNet.uav[92] simulationTime 259200
scalar OsgEarthNet.uav[93] utilizationSecMission 1701.9648920821
scalar OsgEarthNet.uav[93] utilizationSecMaintenance 1423.8435591888
scalar OsgEarthNet.uav[93] utilizationSecCharge 11410
scalar OsgEarthNet.uav[93] utilizationSecIdle 244664.19054873
scalar OsgEarthNet.uav[93] utilizationEnergyMission 7979.5059890747
scalar OsgEarthNet.uav[93] utilizationEnergyMaintenance 6319.3462562561
scalar OsgEarthNet.uav[93] utilizationEnergyCharge 14298.854492188
scalar OsgEarthNet.uav[93] utilizationEnergyOverdrawMission 0
scalar OsgEarthNet.uav[93] utilizationEnergyOverdrawMaintenance 0
scalar OsgEarthNet.uav[93] utilizationCountMissions 3
scalar OsgEarthNet.uav[93] utilizationCountManeuversMission 28
scalar OsgEarthNet.uav[93] utilizationCountManeuversMaintenance 6
scalar OsgEarthNet.uav[93] utilizationCountChargeState 3
scalar OsgEarthNet.uav[93] utilizationCountOverdrawnAfterMission 0
scalar OsgEarthNet.uav[93] utilizationCountIdleState 4
scalar OsgEarthNet.uav[93] utilizationFail 0
scalar OsgEarthNet.uav[93] simulationTime 259200
scalar OsgEarthNet.uav[94] utilizationSecMission 7748.5116065387
scalar OsgEarthNet.uav[94] utilizationSecMaintenance 3501.5931471804
scalar OsgEarthNet.uav[94] utilizationSecCharge 41970
scalar OsgEarthNet.uav[94] utilizationSecIdle 205979.89424628
scalar OsgEarthNet.uav[94] utilizationEnergyMission 36287.293418884
scalar OsgEarthNet.uav[94] utilizationEnergyMaintenance 16938.5884552
scalar OsgEarthNet.uav[94] utilizationEnergyCharge 53174.529785156
scalar OsgEarthNet.uav[94] utilizationEnergyOverdrawMission 0
scalar OsgEarthNet.uav[94] utilizationEnergyOverdrawMaintenance 0
scalar OsgEarthNet.uav[94] utilizationCountMissions 11
scalar OsgEarthNet.uav[94] utilizationCountManeuversMission 122
scalar OsgEarthNet.uav[94] utilizationCountManeuversMaintenance 22
scalar OsgEarthNet.uav[94] utilizationCountChargeState 11
scalar OsgEarthNet.uav[94] utilizationCountOverdrawnAfterMission 0
scalar OsgEarthNet.uav[94] utilizationCountIdleState 12
scalar OsgEarthNet.uav[94] utilizationFail 0
scalar OsgEarthNet.uav[94] simulationTime 259200
scalar OsgEarthNet.uav[95] utilizationSecMission 30609.37318042
scalar OsgEarthNet.uav[95] utilizationSecMaintenance 15388.234692423
scalar OsgEarthNet.uav[95] utilizationSecCharge 167940.39112716
scalar OsgEarthNet.uav[95] utilizationSecIdle 45262
scalar OsgEarthNet.uav[95] utilizationEnergyMission 140868.24008962
scalar OsgEarthNet.uav[95] utilizationEnergyMaintenance 71825.037574768
scalar OsgEarthNet.uav[95] utilizationEnergyCharge 211081.27294922
scalar OsgEarthNet.uav[95] utilizationEnergyOverdrawMission 0
scalar OsgEarthNet.uav[95] utilizationEnergyOverdrawMaintenance 0
scalar OsgEarthNet.uav[95] utilizationCountMissions 46
scalar OsgEarthNet.uav[95] utilizationCountManeuversMission 509
scalar OsgEarthNet.uav[95] utilizationCountManeuversMaintenance 91
scalar OsgEarthNet.uav[95] utilizationCountChargeState 46
scalar OsgEarthNet.uav[95] utilizationCountOverdrawnAfterMission 0
scalar OsgEarthNet.uav[95] utilizationCountIdleState 46
scalar OsgEarthNet.uav[95] utilizationFail 0
scalar OsgEarthNet.uav[95] simulationTime 259200
scalar OsgEarthNet.uav[96] utilizationSecMission 9113.9144196648
scalar OsgEarthNet.uav[96] utilizationSecMaintenance 3708.6027253817
scalar OsgEarthNet.uav[96] utilizationSecCharge 47420
scalar OsgEarthNet.uav[96] utilizationSecIdle 198957.48185495
scalar OsgEarthNet.uav[96] utilizationEnergyMission 42191.871620178
scalar OsgEarthNet.uav[96] utilizationEnergyMaintenance 17383.396389008
scalar OsgEarthNet.uav[96] utilizationEnergyCharge 59155.361816406
scalar OsgEarthNet.uav[96] utilizationEnergyOverdrawMission 0
scalar OsgEarthNet.uav[96] utilizationEnergyOverdrawMaintenance 0
scalar OsgEarthNet.uav[96] utilizationCountMissions 13
scalar OsgEarthNet.uav[96] utilizationCountManeuversMission 145
scalar OsgEarthNet.uav[96] utilizationCountManeuversMaintenance 26
scalar OsgEarthNet.uav[96] utilizationCountChargeState 13
scalar OsgEarthNet.uav[96] utilizationCountOverdrawnAfterMission 0
scalar OsgEarthNet.uav[96] utilizationCountIdleState 14
scalar OsgEarthNet.uav[96] utilizationFail 0
scalar OsgEarthNet.uav[96] simulationTime 259200
scalar OsgEarthNet.uav[97] utilizationSecMission 26761.822968275
scalar OsgEarthNet.uav[97] utilizationSecMaintenance 14664.85517212
scalar OsgEarthNet.uav[97] utilizationSecCharge 153513.93685502
scalar OsgEarthNet.uav[97] utilizationSecIdle 64259.384004586
scalar OsgEarthNet.uav[97] utilizationEnergyMission 122206.42412567
scalar OsgEarthNet.uav[97] utilizationEnergyMaintenance 68680.410041809
scalar OsgEarthNet.uav[97] utilizationEnergyCharge 191420.94799805
scalar OsgEarthNet.uav[97] utilizationEnergyOverdrawMission 0
scalar OsgEarthNet.uav[97] utilizationEnergyOverdrawMaintenance 0
scalar OsgEarthNet.uav[97] utilizationCountMissions 42
scalar OsgEarthNet.uav[97] utilizationCountManeuversMission 441
scalar OsgEarthNet.uav[97] utilizationCountManeuversMaintenance 84
scalar OsgEarthNet.uav[97] utilizationCountChargeState 42
scalar OsgEarthNet.uav[97] utilizationCountOverdrawnAfterMission 0
scalar OsgEarthNet.uav[97] utilizationCountIdleState 42
scalar OsgEarthNet.uav[97] utilizationFail 0
scalar OsgEarthNet.uav[97] simulationTime 259200
scalar OsgEarthNet.uav[98] utilizationSecMission 29073.208219362
scalar OsgEarthNet.uav[98] utilizationSecMaintenance 14493.8900648
scalar OsgEarthNet.uav[98] utilizationSecCharge 158666.65888594
scalar OsgEarthNet.uav[98] utilizationSecIdle 56966.241829895
scalar OsgEarthNet.uav[98] utilizationEnergyMission 134532.14204407
scalar OsgEarthNet.uav[98] utilizationEnergyMaintenance 68388.953140259
scalar OsgEarthNet.uav[98] utilizationEnergyCharge 198397.63043213
scalar OsgEarthNet.uav[98] utilizationEnergyOverdrawMission 0
scalar OsgEarthNet.uav[98] utilizationEnergyOverdrawMaintenance 0
scalar OsgEarthNet.uav[98] utilizationCountMissions 44
scalar OsgEarthNet.uav[98] utilizationCountManeuversMission 470
scalar OsgEarthNet.uav[98] utilizationCountManeuversMaintenance 88
scalar OsgEarthNet.uav[98] utilizationCountChargeState 44
scalar OsgEarthNet.uav[98] utilizationCountOverdrawnAfterMission 0
scalar OsgEarthNet.uav[98] utilizationCountIdleState 44
scalar OsgEarthNet.uav[98] utilizationFail 0
scalar OsgEarthNet.uav[98] simulationTime 259200
scalar OsgEarthNet.uav[99] utilizationSecMission 20598.203926944
scalar OsgEarthNet.uav[99] utilizationSecMaintenance 10223.48512029
scalar OsgEarthNet.uav[99] utilizationSecCharge 114750
scalar OsgEarthNet.uav[99] utilizationSecIdle 113628.30995277
scalar OsgEarthNet.uav[99] utilizationEnergyMission 94496.128463745
scalar OsgEarthNet.uav[99] utilizationEnergyMaintenance 48227.708633423
scalar OsgEarthNet.uav[99] utilizationEnergyCharge 143449.98242188
scalar OsgEarthNet.uav[99] utilizationEnergyOverdrawMission 0
scalar OsgEarthNet.uav[99] utilizationEnergyOverdrawMaintenance 0
scalar OsgEarthNet.uav[99] utilizationCountMissions 31
scalar OsgEarthNet.uav[99] utilizationCountManeuversMission 350
scalar OsgEarthNet.uav[99] utilizationCountManeuversMaintenance 62
scalar OsgEarthNet.uav[99] utilizationCountChargeState 31
scalar OsgEarthNet.uav[99] utilizationCountOverdrawnAfterMission 0
scalar OsgEarthNet.uav[99] utilizationCountIdleState 32
scalar OsgEarthNet.uav[99] utilizationFail 0
scalar OsgEarthNet.uav[99] simulationTime 259200
scalar OsgEarthNet.cs[0] usedPower 539713.38333755
scalar OsgEarthNet.cs[0] chargedPower 539713.38333755
scalar OsgEarthNet.cs[0] chargedMobileNodes 113
scalar OsgEarthNet.cs[0] reservations 117
scalar OsgEarthNet.cs[1] usedPower 1169400.6170957
scalar OsgEarthNet.cs[1] chargedPower 1169400.6170957
scalar OsgEarthNet.cs[1] chargedMobileNodes 248
scalar OsgEarthNet.cs[1] reservations 252
scalar OsgEarthNet.cs[2] usedPower 2785483.5095507
scalar OsgEarthNet.cs[2] chargedPower 2785483.5095507
scalar OsgEarthNet.cs[2] chargedMobileNodes 587
scalar OsgEarthNet.cs[2] reservations 597
scalar OsgEarthNet.cs[3] usedPower 701947.90940828
scalar OsgEarthNet.cs[3] chargedPower 701947.90940828
scalar OsgEarthNet.cs[3] chargedMobileNodes 158
scalar OsgEarthNet.cs[3] reservations 159
scalar OsgEarthNet.cs[4] usedPower 725615.57134203
scalar OsgEarthNet.cs[4] chargedPower 725615.57134203
scalar OsgEarthNet.cs[4] chargedMobileNodes 161
scalar OsgEarthNet.cs[4] reservations 163
scalar OsgEarthNet.cs[5] usedPower 438445.62980954
scalar OsgEarthNet.cs[5] chargedPower 438445.62980954
scalar OsgEarthNet.cs[5] chargedMobileNodes 91
scalar OsgEarthNet.cs[5] reservations 94
scalar OsgEarthNet.cs[6] usedPower 2431325.3957844
scalar OsgEarthNet.cs[6] chargedPower 2431325.3957844
scalar OsgEarthNet.cs[6] chargedMobileNodes 529
scalar OsgEarthNet.cs[6] reservations 536

