version 2
run Szenario_Hotel_Gabelbach-8-20180708-23:29:37-13988
attr configname Szenario_Hotel_Gabelbach
attr datetime 20180708-23:29:37
attr experiment Szenario_Hotel_Gabelbach
attr inifile omnetpp.ini
attr iterationvars $replM=0
attr iterationvarsf replM=0-
attr measurement $replM=0
attr network OsgEarthNet
attr processid 13988
attr repetition 8
attr replication #8
attr resultdir results
attr runnumber 8
attr seedset 8
itervar replM 0
param *.osgEarthScene.scene "\"Szenario_Hotel_Gabelbach.earth\""
param *.playgroundLatitude 50.6830269
param *.playgroundLongitude 10.8538055
param *.playgroundWidth 3500m
param *.playgroundHeight 3500m
param *.numUAVs 100
param *.cs[0].posX 3537m
param *.cs[0].posY 965m
param *.cs[0].posZ 538m
param *.cs[1].posX 312m
param *.cs[1].posY 1262m
param *.cs[1].posZ 539m
param *.cs[2].posX 2185m
param *.cs[2].posY 3026m
param *.cs[2].posZ 777m
param *.cs[3].posX 10m
param *.cs[3].posY 2200m
param *.cs[3].posZ 560m
param *.cs[4].posX 750m
param *.cs[4].posY 200m
param *.cs[4].posZ 540m
param *.cs[5].posX 2450m
param *.cs[5].posY 180m
param *.cs[5].posZ 524m
param *.cs[6].posX 3140m
param *.cs[6].posY 1790m
param *.cs[6].posZ 606m
param *.numCSs 7
param *.uav[*].replacementMethod 0
param *.*.timeStep 10s
param *.uav[*].commandPreviewCommandCount 20
param *.missionControl.missionFiles "\"missions\\\\Szenario_WB_Hotel_Gabelbach_Mission_Hotel.waypoints,missions\\\\Szenario_WB_Hotel_Gabelbach_Mission_Kickelhahn.waypoints,missions\\\\Szenario_WB_Hotel_Gabelbach_Mission_Ilmenau_Sportplatz.waypoints,missions\\\\Szenario_WB_Hotel_Gabelbach_Mission_Manebach_Mitte.waypoints,missions\\\\Szenario_WB_Hotel_Gabelbach_Mission_Manebach_Sued.waypoints\""
param *.missionControl.missionFiles "\"missions\\\\Szenario_WB_Hotel_Gabelbach_Mission_Hotel.waypoints,missions\\\\Szenario_WB_Hotel_Gabelbach_Mission_Kickelhahn.waypoints,missions\\\\Szenario_WB_Hotel_Gabelbach_Mission_Ilmenau_Sportplatz.waypoints,missions\\\\Szenario_WB_Hotel_Gabelbach_Mission_Manebach_Mitte.waypoints,missions\\\\Szenario_WB_Hotel_Gabelbach_Mission_Manebach_Sued.waypoints,missions\\\\Szenario_WB_Hotel_Gabelbach_Hover_HoheSchlaufe.waypoints,missions\\\\Szenario_WB_Hotel_Gabelbach_Hover_Kickelhahn.waypoints,missions\\\\Szenario_WB_Hotel_Gabelbach_Hover_Gabelbachskopf.waypoints,missions\\\\Szenario_WB_Hotel_Gabelbach_Hover_Dachskopf.waypoints\""
param *.uav[0].startX 3537m
param *.uav[0].startY 965m
param *.uav[0].startZ 539m
param *.uav[1].startX 312m
param *.uav[1].startY 1262m
param *.uav[1].startZ 540m
param *.uav[2].startX 2185m
param *.uav[2].startY 3026m
param *.uav[2].startZ 778m
param *.uav[3].startX 3537m
param *.uav[3].startY 965m
param *.uav[3].startZ 539m
param *.uav[4].startX 312m
param *.uav[4].startY 1262m
param *.uav[4].startZ 540m
param *.uav[5].startX 2185m
param *.uav[5].startY 3026m
param *.uav[5].startZ 778m
param *.uav[6].startX 3537m
param *.uav[6].startY 965m
param *.uav[6].startZ 539m
param *.uav[7].startX 312m
param *.uav[7].startY 1262m
param *.uav[7].startZ 540m
param *.uav[8].startX 2185m
param *.uav[8].startY 3026m
param *.uav[8].startZ 778m
param *.uav[9].startX 3537m
param *.uav[9].startY 965m
param *.uav[9].startZ 539m
param *.uav[10].startX 3537m
param *.uav[10].startY 965m
param *.uav[10].startZ 539m
param *.uav[11].startX 312m
param *.uav[11].startY 1262m
param *.uav[11].startZ 540m
param *.uav[12].startX 2185m
param *.uav[12].startY 3026m
param *.uav[12].startZ 778m
param *.uav[13].startX 3537m
param *.uav[13].startY 965m
param *.uav[13].startZ 539m
param *.uav[14].startX 312m
param *.uav[14].startY 1262m
param *.uav[14].startZ 540m
param *.uav[15].startX 2185m
param *.uav[15].startY 3026m
param *.uav[15].startZ 778m
param *.uav[16].startX 3537m
param *.uav[16].startY 965m
param *.uav[16].startZ 539m
param *.uav[17].startX 312m
param *.uav[17].startY 1262m
param *.uav[17].startZ 540m
param *.uav[18].startX 2185m
param *.uav[18].startY 3026m
param *.uav[18].startZ 778m
param *.uav[19].startX 3537m
param *.uav[19].startY 965m
param *.uav[19].startZ 539m
param *.uav[20].startX 3537m
param *.uav[20].startY 965m
param *.uav[20].startZ 539m
param *.uav[21].startX 312m
param *.uav[21].startY 1262m
param *.uav[21].startZ 540m
param *.uav[22].startX 2185m
param *.uav[22].startY 3026m
param *.uav[22].startZ 778m
param *.uav[23].startX 3537m
param *.uav[23].startY 965m
param *.uav[23].startZ 539m
param *.uav[24].startX 312m
param *.uav[24].startY 1262m
param *.uav[24].startZ 540m
param *.uav[25].startX 2185m
param *.uav[25].startY 3026m
param *.uav[25].startZ 778m
param *.uav[26].startX 3537m
param *.uav[26].startY 965m
param *.uav[26].startZ 539m
param *.uav[27].startX 312m
param *.uav[27].startY 1262m
param *.uav[27].startZ 540m
param *.uav[28].startX 2185m
param *.uav[28].startY 3026m
param *.uav[28].startZ 778m
param *.uav[29].startX 3537m
param *.uav[29].startY 965m
param *.uav[29].startZ 539m
param *.uav[30].startX 3537m
param *.uav[30].startY 965m
param *.uav[30].startZ 539m
param *.uav[31].startX 312m
param *.uav[31].startY 1262m
param *.uav[31].startZ 540m
param *.uav[32].startX 2185m
param *.uav[32].startY 3026m
param *.uav[32].startZ 778m
param *.uav[33].startX 3537m
param *.uav[33].startY 965m
param *.uav[33].startZ 539m
param *.uav[34].startX 312m
param *.uav[34].startY 1262m
param *.uav[34].startZ 540m
param *.uav[35].startX 2185m
param *.uav[35].startY 3026m
param *.uav[35].startZ 778m
param *.uav[36].startX 3537m
param *.uav[36].startY 965m
param *.uav[36].startZ 539m
param *.uav[37].startX 312m
param *.uav[37].startY 1262m
param *.uav[37].startZ 540m
param *.uav[38].startX 2185m
param *.uav[38].startY 3026m
param *.uav[38].startZ 778m
param *.uav[39].startX 3537m
param *.uav[39].startY 965m
param *.uav[39].startZ 539m
param *.uav[40].startX 3537m
param *.uav[40].startY 965m
param *.uav[40].startZ 539m
param *.uav[41].startX 312m
param *.uav[41].startY 1262m
param *.uav[41].startZ 540m
param *.uav[42].startX 2185m
param *.uav[42].startY 3026m
param *.uav[42].startZ 778m
param *.uav[43].startX 3537m
param *.uav[43].startY 965m
param *.uav[43].startZ 539m
param *.uav[44].startX 312m
param *.uav[44].startY 1262m
param *.uav[44].startZ 540m
param *.uav[45].startX 2185m
param *.uav[45].startY 3026m
param *.uav[45].startZ 778m
param *.uav[46].startX 3537m
param *.uav[46].startY 965m
param *.uav[46].startZ 539m
param *.uav[47].startX 312m
param *.uav[47].startY 1262m
param *.uav[47].startZ 540m
param *.uav[48].startX 2185m
param *.uav[48].startY 3026m
param *.uav[48].startZ 778m
param *.uav[49].startX 3537m
param *.uav[49].startY 965m
param *.uav[49].startZ 539m
param *.uav[50].startX 3537m
param *.uav[50].startY 965m
param *.uav[50].startZ 539m
param *.uav[51].startX 312m
param *.uav[51].startY 1262m
param *.uav[51].startZ 540m
param *.uav[52].startX 2185m
param *.uav[52].startY 3026m
param *.uav[52].startZ 778m
param *.uav[53].startX 3537m
param *.uav[53].startY 965m
param *.uav[53].startZ 539m
param *.uav[54].startX 312m
param *.uav[54].startY 1262m
param *.uav[54].startZ 540m
param *.uav[55].startX 2185m
param *.uav[55].startY 3026m
param *.uav[55].startZ 778m
param *.uav[56].startX 3537m
param *.uav[56].startY 965m
param *.uav[56].startZ 539m
param *.uav[57].startX 312m
param *.uav[57].startY 1262m
param *.uav[57].startZ 540m
param *.uav[58].startX 2185m
param *.uav[58].startY 3026m
param *.uav[58].startZ 778m
param *.uav[59].startX 3537m
param *.uav[59].startY 965m
param *.uav[59].startZ 539m
param *.uav[60].startX 3537m
param *.uav[60].startY 965m
param *.uav[60].startZ 539m
param *.uav[61].startX 312m
param *.uav[61].startY 1262m
param *.uav[61].startZ 540m
param *.uav[62].startX 2185m
param *.uav[62].startY 3026m
param *.uav[62].startZ 778m
param *.uav[63].startX 3537m
param *.uav[63].startY 965m
param *.uav[63].startZ 539m
param *.uav[64].startX 312m
param *.uav[64].startY 1262m
param *.uav[64].startZ 540m
param *.uav[65].startX 2185m
param *.uav[65].startY 3026m
param *.uav[65].startZ 778m
param *.uav[66].startX 3537m
param *.uav[66].startY 965m
param *.uav[66].startZ 539m
param *.uav[67].startX 312m
param *.uav[67].startY 1262m
param *.uav[67].startZ 540m
param *.uav[68].startX 2185m
param *.uav[68].startY 3026m
param *.uav[68].startZ 778m
param *.uav[69].startX 3537m
param *.uav[69].startY 965m
param *.uav[69].startZ 539m
param *.uav[70].startX 3537m
param *.uav[70].startY 965m
param *.uav[70].startZ 539m
param *.uav[71].startX 312m
param *.uav[71].startY 1262m
param *.uav[71].startZ 540m
param *.uav[72].startX 2185m
param *.uav[72].startY 3026m
param *.uav[72].startZ 778m
param *.uav[73].startX 3537m
param *.uav[73].startY 965m
param *.uav[73].startZ 539m
param *.uav[74].startX 312m
param *.uav[74].startY 1262m
param *.uav[74].startZ 540m
param *.uav[75].startX 2185m
param *.uav[75].startY 3026m
param *.uav[75].startZ 778m
param *.uav[76].startX 3537m
param *.uav[76].startY 965m
param *.uav[76].startZ 539m
param *.uav[77].startX 312m
param *.uav[77].startY 1262m
param *.uav[77].startZ 540m
param *.uav[78].startX 2185m
param *.uav[78].startY 3026m
param *.uav[78].startZ 778m
param *.uav[79].startX 3537m
param *.uav[79].startY 965m
param *.uav[79].startZ 539m
param *.uav[80].startX 3537m
param *.uav[80].startY 965m
param *.uav[80].startZ 539m
param *.uav[81].startX 312m
param *.uav[81].startY 1262m
param *.uav[81].startZ 540m
param *.uav[82].startX 2185m
param *.uav[82].startY 3026m
param *.uav[82].startZ 778m
param *.uav[83].startX 3537m
param *.uav[83].startY 965m
param *.uav[83].startZ 539m
param *.uav[84].startX 312m
param *.uav[84].startY 1262m
param *.uav[84].startZ 540m
param *.uav[85].startX 2185m
param *.uav[85].startY 3026m
param *.uav[85].startZ 778m
param *.uav[86].startX 3537m
param *.uav[86].startY 965m
param *.uav[86].startZ 539m
param *.uav[87].startX 312m
param *.uav[87].startY 1262m
param *.uav[87].startZ 540m
param *.uav[88].startX 2185m
param *.uav[88].startY 3026m
param *.uav[88].startZ 778m
param *.uav[89].startX 3537m
param *.uav[89].startY 965m
param *.uav[89].startZ 539m
param *.uav[90].startX 3537m
param *.uav[90].startY 965m
param *.uav[90].startZ 539m
param *.uav[91].startX 312m
param *.uav[91].startY 1262m
param *.uav[91].startZ 540m
param *.uav[92].startX 2185m
param *.uav[92].startY 3026m
param *.uav[92].startZ 778m
param *.uav[93].startX 3537m
param *.uav[93].startY 965m
param *.uav[93].startZ 539m
param *.uav[94].startX 312m
param *.uav[94].startY 1262m
param *.uav[94].startZ 540m
param *.uav[95].startX 2185m
param *.uav[95].startY 3026m
param *.uav[95].startZ 778m
param *.uav[96].startX 3537m
param *.uav[96].startY 965m
param *.uav[96].startZ 539m
param *.uav[97].startX 312m
param *.uav[97].startY 1262m
param *.uav[97].startZ 540m
param *.uav[98].startX 2185m
param *.uav[98].startY 3026m
param *.uav[98].startZ 778m
param *.uav[99].startX 3537m
param *.uav[99].startY 965m
param *.uav[99].startZ 539m
param *.osgEarthScene.scene "\"boston.earth\""
param *.playgroundLatitude 42.3558
param *.playgroundLongitude -71.0677
param *.playgroundWidth 400m
param *.playgroundHeight 200m
param *.channelController.connectionColor "\"#0000FF40\""
param *.channelController.showConnections false
param *.uav[*].modelURL "\"quadrocopter.small.obj.15.scale.0,0,90.rot\""
param *.uav[*].labelColor "\"#FF7C00CC\""
param *.uav[*].label2Color "\"#FF7C00EE\""
param *.uav[*].batteryCapacity 5200mAh
param *.uav[*].batteryRemaining uav[index].batteryCapacity
param *.uav[*].predictionQuantile 0.95
param *.uav[*].replacementMethod 2
param *.uav[*].weightedSumWeight 0.5
param *.cs[*].modelURL "\"chargingstation_v1.osgt.2.scale.0,0,0.rot.0,0,-15e-1.trans\""
param *.cs[*].spotsWaiting 999
param *.cs[*].spotsCharging 999
param *.cs[*].chargeEffectivenessPercentage 100
param *.cs[*].nonLinearPhaseStartPercentage 85
param *.cs[*].chargeCurrent 6.0A
param *.cs[*].prioritizeFastCharge true
param *.missionControl.replacementSearchMethod 0
param *.*.timeStep 9s

scalar OsgEarthNet.uav[0] utilizationSecMission 750.20472747826
scalar OsgEarthNet.uav[0] utilizationSecMaintenance 261.68051383311
scalar OsgEarthNet.uav[0] utilizationSecCharge 3740
scalar OsgEarthNet.uav[0] utilizationSecIdle 254448.11375869
scalar OsgEarthNet.uav[0] utilizationEnergyMission 3379.1051483154
scalar OsgEarthNet.uav[0] utilizationEnergyMaintenance 1318.1537590027
scalar OsgEarthNet.uav[0] utilizationEnergyCharge 4697.25390625
scalar OsgEarthNet.uav[0] utilizationEnergyOverdrawMission 0
scalar OsgEarthNet.uav[0] utilizationEnergyOverdrawMaintenance 0
scalar OsgEarthNet.uav[0] utilizationCountMissions 1
scalar OsgEarthNet.uav[0] utilizationCountManeuversMission 11
scalar OsgEarthNet.uav[0] utilizationCountManeuversMaintenance 2
scalar OsgEarthNet.uav[0] utilizationCountChargeState 1
scalar OsgEarthNet.uav[0] utilizationCountOverdrawnAfterMission 0
scalar OsgEarthNet.uav[0] utilizationCountIdleState 2
scalar OsgEarthNet.uav[0] utilizationFail 0
scalar OsgEarthNet.uav[0] simulationTime 259200
scalar OsgEarthNet.uav[1] utilizationSecMission 18206.968264266
scalar OsgEarthNet.uav[1] utilizationSecMaintenance 9026.8254576691
scalar OsgEarthNet.uav[1] utilizationSecCharge 100494.90191561
scalar OsgEarthNet.uav[1] utilizationSecIdle 131471.30336246
scalar OsgEarthNet.uav[1] utilizationEnergyMission 84630.391822815
scalar OsgEarthNet.uav[1] utilizationEnergyMaintenance 42697.192844391
scalar OsgEarthNet.uav[1] utilizationEnergyCharge 127176.21484375
scalar OsgEarthNet.uav[1] utilizationEnergyOverdrawMission 0
scalar OsgEarthNet.uav[1] utilizationEnergyOverdrawMaintenance 0
scalar OsgEarthNet.uav[1] utilizationCountMissions 27
scalar OsgEarthNet.uav[1] utilizationCountManeuversMission 317
scalar OsgEarthNet.uav[1] utilizationCountManeuversMaintenance 54
scalar OsgEarthNet.uav[1] utilizationCountChargeState 27
scalar OsgEarthNet.uav[1] utilizationCountOverdrawnAfterMission 0
scalar OsgEarthNet.uav[1] utilizationCountIdleState 27
scalar OsgEarthNet.uav[1] utilizationFail 0
scalar OsgEarthNet.uav[1] simulationTime 259200
scalar OsgEarthNet.uav[2] utilizationSecMission 750.20472747826
scalar OsgEarthNet.uav[2] utilizationSecMaintenance 300.8347882699
scalar OsgEarthNet.uav[2] utilizationSecCharge 3730
scalar OsgEarthNet.uav[2] utilizationSecIdle 254418.95948425
scalar OsgEarthNet.uav[2] utilizationEnergyMission 3290.4236907959
scalar OsgEarthNet.uav[2] utilizationEnergyMaintenance 1357.1637077332
scalar OsgEarthNet.uav[2] utilizationEnergyCharge 4647.5859375
scalar OsgEarthNet.uav[2] utilizationEnergyOverdrawMission 0
scalar OsgEarthNet.uav[2] utilizationEnergyOverdrawMaintenance 0
scalar OsgEarthNet.uav[2] utilizationCountMissions 1
scalar OsgEarthNet.uav[2] utilizationCountManeuversMission 11
scalar OsgEarthNet.uav[2] utilizationCountManeuversMaintenance 2
scalar OsgEarthNet.uav[2] utilizationCountChargeState 1
scalar OsgEarthNet.uav[2] utilizationCountOverdrawnAfterMission 0
scalar OsgEarthNet.uav[2] utilizationCountIdleState 2
scalar OsgEarthNet.uav[2] utilizationFail 0
scalar OsgEarthNet.uav[2] simulationTime 259200
scalar OsgEarthNet.uav[3] utilizationSecMission 836.77707522227
scalar OsgEarthNet.uav[3] utilizationSecMaintenance 217.0347828456
scalar OsgEarthNet.uav[3] utilizationSecCharge 3960
scalar OsgEarthNet.uav[3] utilizationSecIdle 254186.18714193
scalar OsgEarthNet.uav[3] utilizationEnergyMission 3992.0933914185
scalar OsgEarthNet.uav[3] utilizationEnergyMaintenance 1073.0822868347
scalar OsgEarthNet.uav[3] utilizationEnergyCharge 5065.1762695312
scalar OsgEarthNet.uav[3] utilizationEnergyOverdrawMission 0
scalar OsgEarthNet.uav[3] utilizationEnergyOverdrawMaintenance 0
scalar OsgEarthNet.uav[3] utilizationCountMissions 1
scalar OsgEarthNet.uav[3] utilizationCountManeuversMission 13
scalar OsgEarthNet.uav[3] utilizationCountManeuversMaintenance 2
scalar OsgEarthNet.uav[3] utilizationCountChargeState 1
scalar OsgEarthNet.uav[3] utilizationCountOverdrawnAfterMission 0
scalar OsgEarthNet.uav[3] utilizationCountIdleState 2
scalar OsgEarthNet.uav[3] utilizationFail 0
scalar OsgEarthNet.uav[3] simulationTime 259200
scalar OsgEarthNet.uav[4] utilizationSecMission 30202.634230364
scalar OsgEarthNet.uav[4] utilizationSecMaintenance 14117.556101834
scalar OsgEarthNet.uav[4] utilizationSecCharge 162596.52922122
scalar OsgEarthNet.uav[4] utilizationSecIdle 52283.279446582
scalar OsgEarthNet.uav[4] utilizationEnergyMission 140215.14607239
scalar OsgEarthNet.uav[4] utilizationEnergyMaintenance 65923.947872162
scalar OsgEarthNet.uav[4] utilizationEnergyCharge 204766.92773438
scalar OsgEarthNet.uav[4] utilizationEnergyOverdrawMission 0
scalar OsgEarthNet.uav[4] utilizationEnergyOverdrawMaintenance 0
scalar OsgEarthNet.uav[4] utilizationCountMissions 44
scalar OsgEarthNet.uav[4] utilizationCountManeuversMission 495
scalar OsgEarthNet.uav[4] utilizationCountManeuversMaintenance 88
scalar OsgEarthNet.uav[4] utilizationCountChargeState 44
scalar OsgEarthNet.uav[4] utilizationCountOverdrawnAfterMission 0
scalar OsgEarthNet.uav[4] utilizationCountIdleState 44
scalar OsgEarthNet.uav[4] utilizationFail 0
scalar OsgEarthNet.uav[4] simulationTime 259200
scalar OsgEarthNet.uav[5] utilizationSecMission 887.1741082606
scalar OsgEarthNet.uav[5] utilizationSecMaintenance 171.13387461676
scalar OsgEarthNet.uav[5] utilizationSecCharge 3780
scalar OsgEarthNet.uav[5] utilizationSecIdle 254361.69101712
scalar OsgEarthNet.uav[5] utilizationEnergyMission 3960.9151306152
scalar OsgEarthNet.uav[5] utilizationEnergyMaintenance 731.13655853271
scalar OsgEarthNet.uav[5] utilizationEnergyCharge 4765.19140625
scalar OsgEarthNet.uav[5] utilizationEnergyOverdrawMission 0
scalar OsgEarthNet.uav[5] utilizationEnergyOverdrawMaintenance 0
scalar OsgEarthNet.uav[5] utilizationCountMissions 1
scalar OsgEarthNet.uav[5] utilizationCountManeuversMission 14
scalar OsgEarthNet.uav[5] utilizationCountManeuversMaintenance 2
scalar OsgEarthNet.uav[5] utilizationCountChargeState 1
scalar OsgEarthNet.uav[5] utilizationCountOverdrawnAfterMission 0
scalar OsgEarthNet.uav[5] utilizationCountIdleState 2
scalar OsgEarthNet.uav[5] utilizationFail 0
scalar OsgEarthNet.uav[5] simulationTime 259200
scalar OsgEarthNet.uav[6] utilizationSecMission 684.4732299383
scalar OsgEarthNet.uav[6] utilizationSecMaintenance 298.56834692969
scalar OsgEarthNet.uav[6] utilizationSecCharge 3800
scalar OsgEarthNet.uav[6] utilizationSecIdle 254416.95742313
scalar OsgEarthNet.uav[6] utilizationEnergyMission 3307.3196029663
scalar OsgEarthNet.uav[6] utilizationEnergyMaintenance 1452.0728378296
scalar OsgEarthNet.uav[6] utilizationEnergyCharge 4759.3950195312
scalar OsgEarthNet.uav[6] utilizationEnergyOverdrawMission 0
scalar OsgEarthNet.uav[6] utilizationEnergyOverdrawMaintenance 0
scalar OsgEarthNet.uav[6] utilizationCountMissions 1
scalar OsgEarthNet.uav[6] utilizationCountManeuversMission 11
scalar OsgEarthNet.uav[6] utilizationCountManeuversMaintenance 2
scalar OsgEarthNet.uav[6] utilizationCountChargeState 1
scalar OsgEarthNet.uav[6] utilizationCountOverdrawnAfterMission 0
scalar OsgEarthNet.uav[6] utilizationCountIdleState 2
scalar OsgEarthNet.uav[6] utilizationFail 0
scalar OsgEarthNet.uav[6] simulationTime 259200
scalar OsgEarthNet.uav[7] utilizationSecMission 3261.2983797071
scalar OsgEarthNet.uav[7] utilizationSecMaintenance 1731.7009765386
scalar OsgEarthNet.uav[7] utilizationSecCharge 18550
scalar OsgEarthNet.uav[7] utilizationSecIdle 235656.99964375
scalar OsgEarthNet.uav[7] utilizationEnergyMission 15081.505722046
scalar OsgEarthNet.uav[7] utilizationEnergyMaintenance 8201.2469558716
scalar OsgEarthNet.uav[7] utilizationEnergyCharge 23282.758300781
scalar OsgEarthNet.uav[7] utilizationEnergyOverdrawMission 0
scalar OsgEarthNet.uav[7] utilizationEnergyOverdrawMaintenance 0
scalar OsgEarthNet.uav[7] utilizationCountMissions 5
scalar OsgEarthNet.uav[7] utilizationCountManeuversMission 52
scalar OsgEarthNet.uav[7] utilizationCountManeuversMaintenance 10
scalar OsgEarthNet.uav[7] utilizationCountChargeState 5
scalar OsgEarthNet.uav[7] utilizationCountOverdrawnAfterMission 0
scalar OsgEarthNet.uav[7] utilizationCountIdleState 6
scalar OsgEarthNet.uav[7] utilizationFail 0
scalar OsgEarthNet.uav[7] simulationTime 259200
scalar OsgEarthNet.uav[8] utilizationSecMission 694.00169469977
scalar OsgEarthNet.uav[8] utilizationSecMaintenance 338.49695459722
scalar OsgEarthNet.uav[8] utilizationSecCharge 3680
scalar OsgEarthNet.uav[8] utilizationSecIdle 254487.5003507
scalar OsgEarthNet.uav[8] utilizationEnergyMission 3123.8854141235
scalar OsgEarthNet.uav[8] utilizationEnergyMaintenance 1443.652721405
scalar OsgEarthNet.uav[8] utilizationEnergyCharge 4567.5424804688
scalar OsgEarthNet.uav[8] utilizationEnergyOverdrawMission 0
scalar OsgEarthNet.uav[8] utilizationEnergyOverdrawMaintenance 0
scalar OsgEarthNet.uav[8] utilizationCountMissions 1
scalar OsgEarthNet.uav[8] utilizationCountManeuversMission 13
scalar OsgEarthNet.uav[8] utilizationCountManeuversMaintenance 2
scalar OsgEarthNet.uav[8] utilizationCountChargeState 1
scalar OsgEarthNet.uav[8] utilizationCountOverdrawnAfterMission 0
scalar OsgEarthNet.uav[8] utilizationCountIdleState 2
scalar OsgEarthNet.uav[8] utilizationFail 0
scalar OsgEarthNet.uav[8] simulationTime 259200
scalar OsgEarthNet.uav[9] utilizationSecMission 31061.149817702
scalar OsgEarthNet.uav[9] utilizationSecMaintenance 13609.546760317
scalar OsgEarthNet.uav[9] utilizationSecCharge 167317.30242198
scalar OsgEarthNet.uav[9] utilizationSecIdle 47212
scalar OsgEarthNet.uav[9] utilizationEnergyMission 145076.30166626
scalar OsgEarthNet.uav[9] utilizationEnergyMaintenance 64353.696681976
scalar OsgEarthNet.uav[9] utilizationEnergyCharge 209557.16772461
scalar OsgEarthNet.uav[9] utilizationEnergyOverdrawMission 0
scalar OsgEarthNet.uav[9] utilizationEnergyOverdrawMaintenance 0
scalar OsgEarthNet.uav[9] utilizationCountMissions 45
scalar OsgEarthNet.uav[9] utilizationCountManeuversMission 498
scalar OsgEarthNet.uav[9] utilizationCountManeuversMaintenance 89
scalar OsgEarthNet.uav[9] utilizationCountChargeState 45
scalar OsgEarthNet.uav[9] utilizationCountOverdrawnAfterMission 0
scalar OsgEarthNet.uav[9] utilizationCountIdleState 45
scalar OsgEarthNet.uav[9] utilizationFail 0
scalar OsgEarthNet.uav[9] simulationTime 259200
scalar OsgEarthNet.uav[10] utilizationSecMission 760.62515258028
scalar OsgEarthNet.uav[10] utilizationSecMaintenance 291.95923480269
scalar OsgEarthNet.uav[10] utilizationSecCharge 3810
scalar OsgEarthNet.uav[10] utilizationSecIdle 254337.41461262
scalar OsgEarthNet.uav[10] utilizationEnergyMission 3330.7952880859
scalar OsgEarthNet.uav[10] utilizationEnergyMaintenance 1483.9720077515
scalar OsgEarthNet.uav[10] utilizationEnergyCharge 4814.7685546875
scalar OsgEarthNet.uav[10] utilizationEnergyOverdrawMission 0
scalar OsgEarthNet.uav[10] utilizationEnergyOverdrawMaintenance 0
scalar OsgEarthNet.uav[10] utilizationCountMissions 1
scalar OsgEarthNet.uav[10] utilizationCountManeuversMission 12
scalar OsgEarthNet.uav[10] utilizationCountManeuversMaintenance 2
scalar OsgEarthNet.uav[10] utilizationCountChargeState 1
scalar OsgEarthNet.uav[10] utilizationCountOverdrawnAfterMission 0
scalar OsgEarthNet.uav[10] utilizationCountIdleState 2
scalar OsgEarthNet.uav[10] utilizationFail 0
scalar OsgEarthNet.uav[10] simulationTime 259200
scalar OsgEarthNet.uav[11] utilizationSecMission 26246.2094706
scalar OsgEarthNet.uav[11] utilizationSecMaintenance 14668.908022322
scalar OsgEarthNet.uav[11] utilizationSecCharge 151133.59165317
scalar OsgEarthNet.uav[11] utilizationSecIdle 67151.289853908
scalar OsgEarthNet.uav[11] utilizationEnergyMission 121435.81469727
scalar OsgEarthNet.uav[11] utilizationEnergyMaintenance 68592.141735077
scalar OsgEarthNet.uav[11] utilizationEnergyCharge 190031.01953125
scalar OsgEarthNet.uav[11] utilizationEnergyOverdrawMission 0
scalar OsgEarthNet.uav[11] utilizationEnergyOverdrawMaintenance 0
scalar OsgEarthNet.uav[11] utilizationCountMissions 41
scalar OsgEarthNet.uav[11] utilizationCountManeuversMission 425
scalar OsgEarthNet.uav[11] utilizationCountManeuversMaintenance 82
scalar OsgEarthNet.uav[11] utilizationCountChargeState 41
scalar OsgEarthNet.uav[11] utilizationCountOverdrawnAfterMission 0
scalar OsgEarthNet.uav[11] utilizationCountIdleState 41
scalar OsgEarthNet.uav[11] utilizationFail 0
scalar OsgEarthNet.uav[11] simulationTime 259200
scalar OsgEarthNet.uav[12] utilizationSecMission 694.00169469977
scalar OsgEarthNet.uav[12] utilizationSecMaintenance 338.49695459722
scalar OsgEarthNet.uav[12] utilizationSecCharge 3680
scalar OsgEarthNet.uav[12] utilizationSecIdle 254487.5003507
scalar OsgEarthNet.uav[12] utilizationEnergyMission 3141.7084655762
scalar OsgEarthNet.uav[12] utilizationEnergyMaintenance 1449.1499137878
scalar OsgEarthNet.uav[12] utilizationEnergyCharge 4590.8618164062
scalar OsgEarthNet.uav[12] utilizationEnergyOverdrawMission 0
scalar OsgEarthNet.uav[12] utilizationEnergyOverdrawMaintenance 0
scalar OsgEarthNet.uav[12] utilizationCountMissions 1
scalar OsgEarthNet.uav[12] utilizationCountManeuversMission 13
scalar OsgEarthNet.uav[12] utilizationCountManeuversMaintenance 2
scalar OsgEarthNet.uav[12] utilizationCountChargeState 1
scalar OsgEarthNet.uav[12] utilizationCountOverdrawnAfterMission 0
scalar OsgEarthNet.uav[12] utilizationCountIdleState 2
scalar OsgEarthNet.uav[12] utilizationFail 0
scalar OsgEarthNet.uav[12] simulationTime 259200
scalar OsgEarthNet.uav[13] utilizationSecMission 750.20472747826
scalar OsgEarthNet.uav[13] utilizationSecMaintenance 335.16822070369
scalar OsgEarthNet.uav[13] utilizationSecCharge 3880
scalar OsgEarthNet.uav[13] utilizationSecIdle 254234.62605182
scalar OsgEarthNet.uav[13] utilizationEnergyMission 3267.9125518799
scalar OsgEarthNet.uav[13] utilizationEnergyMaintenance 1635.6189079285
scalar OsgEarthNet.uav[13] utilizationEnergyCharge 4903.5283203125
scalar OsgEarthNet.uav[13] utilizationEnergyOverdrawMission 0
scalar OsgEarthNet.uav[13] utilizationEnergyOverdrawMaintenance 0
scalar OsgEarthNet.uav[13] utilizationCountMissions 1
scalar OsgEarthNet.uav[13] utilizationCountManeuversMission 11
scalar OsgEarthNet.uav[13] utilizationCountManeuversMaintenance 2
scalar OsgEarthNet.uav[13] utilizationCountChargeState 1
scalar OsgEarthNet.uav[13] utilizationCountOverdrawnAfterMission 0
scalar OsgEarthNet.uav[13] utilizationCountIdleState 2
scalar OsgEarthNet.uav[13] utilizationFail 0
scalar OsgEarthNet.uav[13] simulationTime 259200
scalar OsgEarthNet.uav[14] utilizationSecMission 26559.022999098
scalar OsgEarthNet.uav[14] utilizationSecMaintenance 13142.537695221
scalar OsgEarthNet.uav[14] utilizationSecCharge 146660
scalar OsgEarthNet.uav[14] utilizationSecIdle 72838.438305681
scalar OsgEarthNet.uav[14] utilizationEnergyMission 123663.38045502
scalar OsgEarthNet.uav[14] utilizationEnergyMaintenance 61401.085484462
scalar OsgEarthNet.uav[14] utilizationEnergyCharge 184118.60595703
scalar OsgEarthNet.uav[14] utilizationEnergyOverdrawMission 0
scalar OsgEarthNet.uav[14] utilizationEnergyOverdrawMaintenance 0
scalar OsgEarthNet.uav[14] utilizationCountMissions 39
scalar OsgEarthNet.uav[14] utilizationCountManeuversMission 436
scalar OsgEarthNet.uav[14] utilizationCountManeuversMaintenance 79
scalar OsgEarthNet.uav[14] utilizationCountChargeState 39
scalar OsgEarthNet.uav[14] utilizationCountOverdrawnAfterMission 0
scalar OsgEarthNet.uav[14] utilizationCountIdleState 40
scalar OsgEarthNet.uav[14] utilizationFail 0
scalar OsgEarthNet.uav[14] simulationTime 259200
scalar OsgEarthNet.uav[15] utilizationSecMission 766.82734763767
scalar OsgEarthNet.uav[15] utilizationSecMaintenance 306.92101052153
scalar OsgEarthNet.uav[15] utilizationSecCharge 3760
scalar OsgEarthNet.uav[15] utilizationSecIdle 254366.25064184
scalar OsgEarthNet.uav[15] utilizationEnergyMission 3372.6971817017
scalar OsgEarthNet.uav[15] utilizationEnergyMaintenance 1380.5886459351
scalar OsgEarthNet.uav[15] utilizationEnergyCharge 4753.279296875
scalar OsgEarthNet.uav[15] utilizationEnergyOverdrawMission 0
scalar OsgEarthNet.uav[15] utilizationEnergyOverdrawMaintenance 0
scalar OsgEarthNet.uav[15] utilizationCountMissions 1
scalar OsgEarthNet.uav[15] utilizationCountManeuversMission 14
scalar OsgEarthNet.uav[15] utilizationCountManeuversMaintenance 2
scalar OsgEarthNet.uav[15] utilizationCountChargeState 1
scalar OsgEarthNet.uav[15] utilizationCountOverdrawnAfterMission 0
scalar OsgEarthNet.uav[15] utilizationCountIdleState 2
scalar OsgEarthNet.uav[15] utilizationFail 0
scalar OsgEarthNet.uav[15] simulationTime 259200
scalar OsgEarthNet.uav[16] utilizationSecMission 836.77707522227
scalar OsgEarthNet.uav[16] utilizationSecMaintenance 217.0347828456
scalar OsgEarthNet.uav[16] utilizationSecCharge 3620
scalar OsgEarthNet.uav[16] utilizationSecIdle 254526.18714193
scalar OsgEarthNet.uav[16] utilizationEnergyMission 3472.3510131836
scalar OsgEarthNet.uav[16] utilizationEnergyMaintenance 1028.7281913757
scalar OsgEarthNet.uav[16] utilizationEnergyCharge 4501.0791015625
scalar OsgEarthNet.uav[16] utilizationEnergyOverdrawMission 0
scalar OsgEarthNet.uav[16] utilizationEnergyOverdrawMaintenance 0
scalar OsgEarthNet.uav[16] utilizationCountMissions 1
scalar OsgEarthNet.uav[16] utilizationCountManeuversMission 13
scalar OsgEarthNet.uav[16] utilizationCountManeuversMaintenance 2
scalar OsgEarthNet.uav[16] utilizationCountChargeState 1
scalar OsgEarthNet.uav[16] utilizationCountOverdrawnAfterMission 0
scalar OsgEarthNet.uav[16] utilizationCountIdleState 2
scalar OsgEarthNet.uav[16] utilizationFail 0
scalar OsgEarthNet.uav[16] simulationTime 259200
scalar OsgEarthNet.uav[17] utilizationSecMission 23186.673495621
scalar OsgEarthNet.uav[17] utilizationSecMaintenance 12197.084881331
scalar OsgEarthNet.uav[17] utilizationSecCharge 129882.57445397
scalar OsgEarthNet.uav[17] utilizationSecIdle 93933.66616908
scalar OsgEarthNet.uav[17] utilizationEnergyMission 106745.60605621
scalar OsgEarthNet.uav[17] utilizationEnergyMaintenance 57382.676681519
scalar OsgEarthNet.uav[17] utilizationEnergyCharge 163666.80224609
scalar OsgEarthNet.uav[17] utilizationEnergyOverdrawMission 0
scalar OsgEarthNet.uav[17] utilizationEnergyOverdrawMaintenance 0
scalar OsgEarthNet.uav[17] utilizationCountMissions 35
scalar OsgEarthNet.uav[17] utilizationCountManeuversMission 396
scalar OsgEarthNet.uav[17] utilizationCountManeuversMaintenance 70
scalar OsgEarthNet.uav[17] utilizationCountChargeState 35
scalar OsgEarthNet.uav[17] utilizationCountOverdrawnAfterMission 0
scalar OsgEarthNet.uav[17] utilizationCountIdleState 35
scalar OsgEarthNet.uav[17] utilizationFail 0
scalar OsgEarthNet.uav[17] simulationTime 259200
scalar OsgEarthNet.uav[18] utilizationSecMission 694.00169469977
scalar OsgEarthNet.uav[18] utilizationSecMaintenance 338.49695459722
scalar OsgEarthNet.uav[18] utilizationSecCharge 3830
scalar OsgEarthNet.uav[18] utilizationSecIdle 254337.5003507
scalar OsgEarthNet.uav[18] utilizationEnergyMission 3201.828918457
scalar OsgEarthNet.uav[18] utilizationEnergyMaintenance 1605.2740592957
scalar OsgEarthNet.uav[18] utilizationEnergyCharge 4807.1000976562
scalar OsgEarthNet.uav[18] utilizationEnergyOverdrawMission 0
scalar OsgEarthNet.uav[18] utilizationEnergyOverdrawMaintenance 0
scalar OsgEarthNet.uav[18] utilizationCountMissions 1
scalar OsgEarthNet.uav[18] utilizationCountManeuversMission 13
scalar OsgEarthNet.uav[18] utilizationCountManeuversMaintenance 2
scalar OsgEarthNet.uav[18] utilizationCountChargeState 1
scalar OsgEarthNet.uav[18] utilizationCountOverdrawnAfterMission 0
scalar OsgEarthNet.uav[18] utilizationCountIdleState 2
scalar OsgEarthNet.uav[18] utilizationFail 0
scalar OsgEarthNet.uav[18] simulationTime 259200
scalar OsgEarthNet.uav[19] utilizationSecMission 28221.448296003
scalar OsgEarthNet.uav[19] utilizationSecMaintenance 10995.158577868
scalar OsgEarthNet.uav[19] utilizationSecCharge 142110
scalar OsgEarthNet.uav[19] utilizationSecIdle 77873.392126128
scalar OsgEarthNet.uav[19] utilizationEnergyMission 130125.74995146
scalar OsgEarthNet.uav[19] utilizationEnergyMaintenance 51495.046463013
scalar OsgEarthNet.uav[19] utilizationEnergyCharge 178142.64306641
scalar OsgEarthNet.uav[19] utilizationEnergyOverdrawMission 0
scalar OsgEarthNet.uav[19] utilizationEnergyOverdrawMaintenance 0
scalar OsgEarthNet.uav[19] utilizationCountMissions 38
scalar OsgEarthNet.uav[19] utilizationCountManeuversMission 471
scalar OsgEarthNet.uav[19] utilizationCountManeuversMaintenance 77
scalar OsgEarthNet.uav[19] utilizationCountChargeState 38
scalar OsgEarthNet.uav[19] utilizationCountOverdrawnAfterMission 0
scalar OsgEarthNet.uav[19] utilizationCountIdleState 39
scalar OsgEarthNet.uav[19] utilizationFail 0
scalar OsgEarthNet.uav[19] simulationTime 259200
scalar OsgEarthNet.uav[20] utilizationSecMission 750.20472747826
scalar OsgEarthNet.uav[20] utilizationSecMaintenance 261.68051383311
scalar OsgEarthNet.uav[20] utilizationSecCharge 3770
scalar OsgEarthNet.uav[20] utilizationSecIdle 254418.11375869
scalar OsgEarthNet.uav[20] utilizationEnergyMission 3410.9285430908
scalar OsgEarthNet.uav[20] utilizationEnergyMaintenance 1310.4065666199
scalar OsgEarthNet.uav[20] utilizationEnergyCharge 4721.3359375
scalar OsgEarthNet.uav[20] utilizationEnergyOverdrawMission 0
scalar OsgEarthNet.uav[20] utilizationEnergyOverdrawMaintenance 0
scalar OsgEarthNet.uav[20] utilizationCountMissions 1
scalar OsgEarthNet.uav[20] utilizationCountManeuversMission 11
scalar OsgEarthNet.uav[20] utilizationCountManeuversMaintenance 2
scalar OsgEarthNet.uav[20] utilizationCountChargeState 1
scalar OsgEarthNet.uav[20] utilizationCountOverdrawnAfterMission 0
scalar OsgEarthNet.uav[20] utilizationCountIdleState 2
scalar OsgEarthNet.uav[20] utilizationFail 0
scalar OsgEarthNet.uav[20] simulationTime 259200
scalar OsgEarthNet.uav[21] utilizationSecMission 28027.600373831
scalar OsgEarthNet.uav[21] utilizationSecMaintenance 12520.773959998
scalar OsgEarthNet.uav[21] utilizationSecCharge 149306.39593949
scalar OsgEarthNet.uav[21] utilizationSecIdle 69345.228726679
scalar OsgEarthNet.uav[21] utilizationEnergyMission 128927.41804504
scalar OsgEarthNet.uav[21] utilizationEnergyMaintenance 58790.878002167
scalar OsgEarthNet.uav[21] utilizationEnergyCharge 187264.52001953
scalar OsgEarthNet.uav[21] utilizationEnergyOverdrawMission 0
scalar OsgEarthNet.uav[21] utilizationEnergyOverdrawMaintenance 0
scalar OsgEarthNet.uav[21] utilizationCountMissions 40
scalar OsgEarthNet.uav[21] utilizationCountManeuversMission 444
scalar OsgEarthNet.uav[21] utilizationCountManeuversMaintenance 80
scalar OsgEarthNet.uav[21] utilizationCountChargeState 40
scalar OsgEarthNet.uav[21] utilizationCountOverdrawnAfterMission 0
scalar OsgEarthNet.uav[21] utilizationCountIdleState 40
scalar OsgEarthNet.uav[21] utilizationFail 0
scalar OsgEarthNet.uav[21] simulationTime 259200
scalar OsgEarthNet.uav[22] utilizationSecMission 26181.675579832
scalar OsgEarthNet.uav[22] utilizationSecMaintenance 12671.142802316
scalar OsgEarthNet.uav[22] utilizationSecCharge 142767.34379686
scalar OsgEarthNet.uav[22] utilizationSecIdle 77579.836820993
scalar OsgEarthNet.uav[22] utilizationEnergyMission 120990.21743774
scalar OsgEarthNet.uav[22] utilizationEnergyMaintenance 59925.786304474
scalar OsgEarthNet.uav[22] utilizationEnergyCharge 179523.38867188
scalar OsgEarthNet.uav[22] utilizationEnergyOverdrawMission 0
scalar OsgEarthNet.uav[22] utilizationEnergyOverdrawMaintenance 0
scalar OsgEarthNet.uav[22] utilizationCountMissions 39
scalar OsgEarthNet.uav[22] utilizationCountManeuversMission 431
scalar OsgEarthNet.uav[22] utilizationCountManeuversMaintenance 78
scalar OsgEarthNet.uav[22] utilizationCountChargeState 39
scalar OsgEarthNet.uav[22] utilizationCountOverdrawnAfterMission 0
scalar OsgEarthNet.uav[22] utilizationCountIdleState 39
scalar OsgEarthNet.uav[22] utilizationFail 0
scalar OsgEarthNet.uav[22] simulationTime 259200
scalar OsgEarthNet.uav[23] utilizationSecMission 698.84532193436
scalar OsgEarthNet.uav[23] utilizationSecMaintenance 323.03163670533
scalar OsgEarthNet.uav[23] utilizationSecCharge 3730
scalar OsgEarthNet.uav[23] utilizationSecIdle 254448.12204136
scalar OsgEarthNet.uav[23] utilizationEnergyMission 3172.5881958008
scalar OsgEarthNet.uav[23] utilizationEnergyMaintenance 1515.0597763062
scalar OsgEarthNet.uav[23] utilizationEnergyCharge 4687.6489257812
scalar OsgEarthNet.uav[23] utilizationEnergyOverdrawMission 0
scalar OsgEarthNet.uav[23] utilizationEnergyOverdrawMaintenance 0
scalar OsgEarthNet.uav[23] utilizationCountMissions 1
scalar OsgEarthNet.uav[23] utilizationCountManeuversMission 10
scalar OsgEarthNet.uav[23] utilizationCountManeuversMaintenance 2
scalar OsgEarthNet.uav[23] utilizationCountChargeState 1
scalar OsgEarthNet.uav[23] utilizationCountOverdrawnAfterMission 0
scalar OsgEarthNet.uav[23] utilizationCountIdleState 2
scalar OsgEarthNet.uav[23] utilizationFail 0
scalar OsgEarthNet.uav[23] simulationTime 259200
scalar OsgEarthNet.uav[24] utilizationSecMission 698.45058753696
scalar OsgEarthNet.uav[24] utilizationSecMaintenance 321.40558798357
scalar OsgEarthNet.uav[24] utilizationSecCharge 3830
scalar OsgEarthNet.uav[24] utilizationSecIdle 254350.14282448
scalar OsgEarthNet.uav[24] utilizationEnergyMission 3396.5684814453
scalar OsgEarthNet.uav[24] utilizationEnergyMaintenance 1437.8093185425
scalar OsgEarthNet.uav[24] utilizationEnergyCharge 4834.3764648438
scalar OsgEarthNet.uav[24] utilizationEnergyOverdrawMission 0
scalar OsgEarthNet.uav[24] utilizationEnergyOverdrawMaintenance 0
scalar OsgEarthNet.uav[24] utilizationCountMissions 1
scalar OsgEarthNet.uav[24] utilizationCountManeuversMission 11
scalar OsgEarthNet.uav[24] utilizationCountManeuversMaintenance 2
scalar OsgEarthNet.uav[24] utilizationCountChargeState 1
scalar OsgEarthNet.uav[24] utilizationCountOverdrawnAfterMission 0
scalar OsgEarthNet.uav[24] utilizationCountIdleState 2
scalar OsgEarthNet.uav[24] utilizationFail 0
scalar OsgEarthNet.uav[24] simulationTime 259200
scalar OsgEarthNet.uav[25] utilizationSecMission 694.00169469977
scalar OsgEarthNet.uav[25] utilizationSecMaintenance 338.49695459722
scalar OsgEarthNet.uav[25] utilizationSecCharge 3780
scalar OsgEarthNet.uav[25] utilizationSecIdle 254387.5003507
scalar OsgEarthNet.uav[25] utilizationEnergyMission 3198.878036499
scalar OsgEarthNet.uav[25] utilizationEnergyMaintenance 1579.7354240417
scalar OsgEarthNet.uav[25] utilizationEnergyCharge 4778.619140625
scalar OsgEarthNet.uav[25] utilizationEnergyOverdrawMission 0
scalar OsgEarthNet.uav[25] utilizationEnergyOverdrawMaintenance 0
scalar OsgEarthNet.uav[25] utilizationCountMissions 1
scalar OsgEarthNet.uav[25] utilizationCountManeuversMission 13
scalar OsgEarthNet.uav[25] utilizationCountManeuversMaintenance 2
scalar OsgEarthNet.uav[25] utilizationCountChargeState 1
scalar OsgEarthNet.uav[25] utilizationCountOverdrawnAfterMission 0
scalar OsgEarthNet.uav[25] utilizationCountIdleState 2
scalar OsgEarthNet.uav[25] utilizationFail 0
scalar OsgEarthNet.uav[25] simulationTime 259200
scalar OsgEarthNet.uav[26] utilizationSecMission 750.20472747826
scalar OsgEarthNet.uav[26] utilizationSecMaintenance 261.68051383311
scalar OsgEarthNet.uav[26] utilizationSecCharge 3790
scalar OsgEarthNet.uav[26] utilizationSecIdle 254398.11375869
scalar OsgEarthNet.uav[26] utilizationEnergyMission 3535.8594360352
scalar OsgEarthNet.uav[26] utilizationEnergyMaintenance 1264.1567192078
scalar OsgEarthNet.uav[26] utilizationEnergyCharge 4800.0126953125
scalar OsgEarthNet.uav[26] utilizationEnergyOverdrawMission 0
scalar OsgEarthNet.uav[26] utilizationEnergyOverdrawMaintenance 0
scalar OsgEarthNet.uav[26] utilizationCountMissions 1
scalar OsgEarthNet.uav[26] utilizationCountManeuversMission 11
scalar OsgEarthNet.uav[26] utilizationCountManeuversMaintenance 2
scalar OsgEarthNet.uav[26] utilizationCountChargeState 1
scalar OsgEarthNet.uav[26] utilizationCountOverdrawnAfterMission 0
scalar OsgEarthNet.uav[26] utilizationCountIdleState 2
scalar OsgEarthNet.uav[26] utilizationFail 0
scalar OsgEarthNet.uav[26] simulationTime 259200
scalar OsgEarthNet.uav[27] utilizationSecMission 23441.4363424
scalar OsgEarthNet.uav[27] utilizationSecMaintenance 10569.452785348
scalar OsgEarthNet.uav[27] utilizationSecCharge 127040
scalar OsgEarthNet.uav[27] utilizationSecIdle 98149.109872252
scalar OsgEarthNet.uav[27] utilizationEnergyMission 109849.56326294
scalar OsgEarthNet.uav[27] utilizationEnergyMaintenance 49748.40372467
scalar OsgEarthNet.uav[27] utilizationEnergyCharge 159442.71972656
scalar OsgEarthNet.uav[27] utilizationEnergyOverdrawMission 0
scalar OsgEarthNet.uav[27] utilizationEnergyOverdrawMaintenance 0
scalar OsgEarthNet.uav[27] utilizationCountMissions 34
scalar OsgEarthNet.uav[27] utilizationCountManeuversMission 392
scalar OsgEarthNet.uav[27] utilizationCountManeuversMaintenance 68
scalar OsgEarthNet.uav[27] utilizationCountChargeState 34
scalar OsgEarthNet.uav[27] utilizationCountOverdrawnAfterMission 0
scalar OsgEarthNet.uav[27] utilizationCountIdleState 35
scalar OsgEarthNet.uav[27] utilizationFail 0
scalar OsgEarthNet.uav[27] simulationTime 259200
scalar OsgEarthNet.uav[28] utilizationSecMission 28662.915455084
scalar OsgEarthNet.uav[28] utilizationSecMaintenance 12004.653958464
scalar OsgEarthNet.uav[28] utilizationSecCharge 146945.98201746
scalar OsgEarthNet.uav[28] utilizationSecIdle 71586.447568995
scalar OsgEarthNet.uav[28] utilizationEnergyMission 131928.36542511
scalar OsgEarthNet.uav[28] utilizationEnergyMaintenance 56645.13760376
scalar OsgEarthNet.uav[28] utilizationEnergyCharge 184556.21923828
scalar OsgEarthNet.uav[28] utilizationEnergyOverdrawMission 0
scalar OsgEarthNet.uav[28] utilizationEnergyOverdrawMaintenance 0
scalar OsgEarthNet.uav[28] utilizationCountMissions 40
scalar OsgEarthNet.uav[28] utilizationCountManeuversMission 465
scalar OsgEarthNet.uav[28] utilizationCountManeuversMaintenance 80
scalar OsgEarthNet.uav[28] utilizationCountChargeState 40
scalar OsgEarthNet.uav[28] utilizationCountOverdrawnAfterMission 0
scalar OsgEarthNet.uav[28] utilizationCountIdleState 40
scalar OsgEarthNet.uav[28] utilizationFail 0
scalar OsgEarthNet.uav[28] simulationTime 259200
scalar OsgEarthNet.uav[29] utilizationSecMission 684.4732299383
scalar OsgEarthNet.uav[29] utilizationSecMaintenance 298.56834692969
scalar OsgEarthNet.uav[29] utilizationSecCharge 3830
scalar OsgEarthNet.uav[29] utilizationSecIdle 254386.95742313
scalar OsgEarthNet.uav[29] utilizationEnergyMission 3372.8811035156
scalar OsgEarthNet.uav[29] utilizationEnergyMaintenance 1456.6512069702
scalar OsgEarthNet.uav[29] utilizationEnergyCharge 4829.53515625
scalar OsgEarthNet.uav[29] utilizationEnergyOverdrawMission 0
scalar OsgEarthNet.uav[29] utilizationEnergyOverdrawMaintenance 0
scalar OsgEarthNet.uav[29] utilizationCountMissions 1
scalar OsgEarthNet.uav[29] utilizationCountManeuversMission 11
scalar OsgEarthNet.uav[29] utilizationCountManeuversMaintenance 2
scalar OsgEarthNet.uav[29] utilizationCountChargeState 1
scalar OsgEarthNet.uav[29] utilizationCountOverdrawnAfterMission 0
scalar OsgEarthNet.uav[29] utilizationCountIdleState 2
scalar OsgEarthNet.uav[29] utilizationFail 0
scalar OsgEarthNet.uav[29] simulationTime 259200
scalar OsgEarthNet.uav[30] utilizationSecMission 760.62515258028
scalar OsgEarthNet.uav[30] utilizationSecMaintenance 291.95923480269
scalar OsgEarthNet.uav[30] utilizationSecCharge 3590
scalar OsgEarthNet.uav[30] utilizationSecIdle 254557.41461262
scalar OsgEarthNet.uav[30] utilizationEnergyMission 3054.5116691589
scalar OsgEarthNet.uav[30] utilizationEnergyMaintenance 1356.5650253296
scalar OsgEarthNet.uav[30] utilizationEnergyCharge 4411.0756835938
scalar OsgEarthNet.uav[30] utilizationEnergyOverdrawMission 0
scalar OsgEarthNet.uav[30] utilizationEnergyOverdrawMaintenance 0
scalar OsgEarthNet.uav[30] utilizationCountMissions 1
scalar OsgEarthNet.uav[30] utilizationCountManeuversMission 12
scalar OsgEarthNet.uav[30] utilizationCountManeuversMaintenance 2
scalar OsgEarthNet.uav[30] utilizationCountChargeState 1
scalar OsgEarthNet.uav[30] utilizationCountOverdrawnAfterMission 0
scalar OsgEarthNet.uav[30] utilizationCountIdleState 2
scalar OsgEarthNet.uav[30] utilizationFail 0
scalar OsgEarthNet.uav[30] simulationTime 259200
scalar OsgEarthNet.uav[31] utilizationSecMission 9789.5839677091
scalar OsgEarthNet.uav[31] utilizationSecMaintenance 3505.9799344432
scalar OsgEarthNet.uav[31] utilizationSecCharge 46171.212700137
scalar OsgEarthNet.uav[31] utilizationSecIdle 199733.22239771
scalar OsgEarthNet.uav[31] utilizationEnergyMission 45049.058616638
scalar OsgEarthNet.uav[31] utilizationEnergyMaintenance 16805.54151535
scalar OsgEarthNet.uav[31] utilizationEnergyCharge 58685.60949707
scalar OsgEarthNet.uav[31] utilizationEnergyOverdrawMission 0
scalar OsgEarthNet.uav[31] utilizationEnergyOverdrawMaintenance 0
scalar OsgEarthNet.uav[31] utilizationCountMissions 13
scalar OsgEarthNet.uav[31] utilizationCountManeuversMission 156
scalar OsgEarthNet.uav[31] utilizationCountManeuversMaintenance 26
scalar OsgEarthNet.uav[31] utilizationCountChargeState 13
scalar OsgEarthNet.uav[31] utilizationCountOverdrawnAfterMission 0
scalar OsgEarthNet.uav[31] utilizationCountIdleState 13
scalar OsgEarthNet.uav[31] utilizationFail 0
scalar OsgEarthNet.uav[31] simulationTime 259200
scalar OsgEarthNet.uav[32] utilizationSecMission 5223.8642855703
scalar OsgEarthNet.uav[32] utilizationSecMaintenance 1995.2482096425
scalar OsgEarthNet.uav[32] utilizationSecCharge 26290
scalar OsgEarthNet.uav[32] utilizationSecIdle 225690.88650479
scalar OsgEarthNet.uav[32] utilizationEnergyMission 23410.923782349
scalar OsgEarthNet.uav[32] utilizationEnergyMaintenance 9371.0757293701
scalar OsgEarthNet.uav[32] utilizationEnergyCharge 33080.847167969
scalar OsgEarthNet.uav[32] utilizationEnergyOverdrawMission 0
scalar OsgEarthNet.uav[32] utilizationEnergyOverdrawMaintenance 0
scalar OsgEarthNet.uav[32] utilizationCountMissions 7
scalar OsgEarthNet.uav[32] utilizationCountManeuversMission 81
scalar OsgEarthNet.uav[32] utilizationCountManeuversMaintenance 14
scalar OsgEarthNet.uav[32] utilizationCountChargeState 7
scalar OsgEarthNet.uav[32] utilizationCountOverdrawnAfterMission 0
scalar OsgEarthNet.uav[32] utilizationCountIdleState 8
scalar OsgEarthNet.uav[32] utilizationFail 0
scalar OsgEarthNet.uav[32] simulationTime 259200
scalar OsgEarthNet.uav[33] utilizationSecMission 760.62515258028
scalar OsgEarthNet.uav[33] utilizationSecMaintenance 291.95923480269
scalar OsgEarthNet.uav[33] utilizationSecCharge 3790
scalar OsgEarthNet.uav[33] utilizationSecIdle 254357.41461262
scalar OsgEarthNet.uav[33] utilizationEnergyMission 3412.4303131104
scalar OsgEarthNet.uav[33] utilizationEnergyMaintenance 1375.0321578979
scalar OsgEarthNet.uav[33] utilizationEnergyCharge 4787.4624023438
scalar OsgEarthNet.uav[33] utilizationEnergyOverdrawMission 0
scalar OsgEarthNet.uav[33] utilizationEnergyOverdrawMaintenance 0
scalar OsgEarthNet.uav[33] utilizationCountMissions 1
scalar OsgEarthNet.uav[33] utilizationCountManeuversMission 12
scalar OsgEarthNet.uav[33] utilizationCountManeuversMaintenance 2
scalar OsgEarthNet.uav[33] utilizationCountChargeState 1
scalar OsgEarthNet.uav[33] utilizationCountOverdrawnAfterMission 0
scalar OsgEarthNet.uav[33] utilizationCountIdleState 2
scalar OsgEarthNet.uav[33] utilizationFail 0
scalar OsgEarthNet.uav[33] simulationTime 259200
scalar OsgEarthNet.uav[34] utilizationSecMission 28905.363678067
scalar OsgEarthNet.uav[34] utilizationSecMaintenance 13338.680236332
scalar OsgEarthNet.uav[34] utilizationSecCharge 155752.51866885
scalar OsgEarthNet.uav[34] utilizationSecIdle 61203.436416748
scalar OsgEarthNet.uav[34] utilizationEnergyMission 133835.96574402
scalar OsgEarthNet.uav[34] utilizationEnergyMaintenance 62834.031124115
scalar OsgEarthNet.uav[34] utilizationEnergyCharge 196426.34863281
scalar OsgEarthNet.uav[34] utilizationEnergyOverdrawMission 0
scalar OsgEarthNet.uav[34] utilizationEnergyOverdrawMaintenance 0
scalar OsgEarthNet.uav[34] utilizationCountMissions 42
scalar OsgEarthNet.uav[34] utilizationCountManeuversMission 465
scalar OsgEarthNet.uav[34] utilizationCountManeuversMaintenance 84
scalar OsgEarthNet.uav[34] utilizationCountChargeState 42
scalar OsgEarthNet.uav[34] utilizationCountOverdrawnAfterMission 0
scalar OsgEarthNet.uav[34] utilizationCountIdleState 42
scalar OsgEarthNet.uav[34] utilizationFail 0
scalar OsgEarthNet.uav[34] simulationTime 259200
scalar OsgEarthNet.uav[35] utilizationSecMission 1687.4920995536
scalar OsgEarthNet.uav[35] utilizationSecMaintenance 416.19349121024
scalar OsgEarthNet.uav[35] utilizationSecCharge 7550
scalar OsgEarthNet.uav[35] utilizationSecIdle 249546.31340924
scalar OsgEarthNet.uav[35] utilizationEnergyMission 8111.0054321289
scalar OsgEarthNet.uav[35] utilizationEnergyMaintenance 1925.4956588745
scalar OsgEarthNet.uav[35] utilizationEnergyCharge 9448.78515625
scalar OsgEarthNet.uav[35] utilizationEnergyOverdrawMission 0
scalar OsgEarthNet.uav[35] utilizationEnergyOverdrawMaintenance 0
scalar OsgEarthNet.uav[35] utilizationCountMissions 2
scalar OsgEarthNet.uav[35] utilizationCountManeuversMission 26
scalar OsgEarthNet.uav[35] utilizationCountManeuversMaintenance 4
scalar OsgEarthNet.uav[35] utilizationCountChargeState 2
scalar OsgEarthNet.uav[35] utilizationCountOverdrawnAfterMission 0
scalar OsgEarthNet.uav[35] utilizationCountIdleState 3
scalar OsgEarthNet.uav[35] utilizationFail 0
scalar OsgEarthNet.uav[35] simulationTime 259200
scalar OsgEarthNet.uav[36] utilizationSecMission 702.6942798579
scalar OsgEarthNet.uav[36] utilizationSecMaintenance 282.29565405678
scalar OsgEarthNet.uav[36] utilizationSecCharge 3810
scalar OsgEarthNet.uav[36] utilizationSecIdle 254405.00906609
scalar OsgEarthNet.uav[36] utilizationEnergyMission 3336.2324066162
scalar OsgEarthNet.uav[36] utilizationEnergyMaintenance 1447.8329277039
scalar OsgEarthNet.uav[36] utilizationEnergyCharge 4784.0625
scalar OsgEarthNet.uav[36] utilizationEnergyOverdrawMission 0
scalar OsgEarthNet.uav[36] utilizationEnergyOverdrawMaintenance 0
scalar OsgEarthNet.uav[36] utilizationCountMissions 1
scalar OsgEarthNet.uav[36] utilizationCountManeuversMission 10
scalar OsgEarthNet.uav[36] utilizationCountManeuversMaintenance 2
scalar OsgEarthNet.uav[36] utilizationCountChargeState 1
scalar OsgEarthNet.uav[36] utilizationCountOverdrawnAfterMission 0
scalar OsgEarthNet.uav[36] utilizationCountIdleState 2
scalar OsgEarthNet.uav[36] utilizationFail 0
scalar OsgEarthNet.uav[36] simulationTime 259200
scalar OsgEarthNet.uav[37] utilizationSecMission 31850.361805259
scalar OsgEarthNet.uav[37] utilizationSecMaintenance 12083.350486896
scalar OsgEarthNet.uav[37] utilizationSecCharge 158488.87979949
scalar OsgEarthNet.uav[37] utilizationSecIdle 56777.406908358
scalar OsgEarthNet.uav[37] utilizationEnergyMission 146130.96559906
scalar OsgEarthNet.uav[37] utilizationEnergyMaintenance 56143.096450806
scalar OsgEarthNet.uav[37] utilizationEnergyCharge 199323.14099121
scalar OsgEarthNet.uav[37] utilizationEnergyOverdrawMission 0
scalar OsgEarthNet.uav[37] utilizationEnergyOverdrawMaintenance 0
scalar OsgEarthNet.uav[37] utilizationCountMissions 43
scalar OsgEarthNet.uav[37] utilizationCountManeuversMission 528
scalar OsgEarthNet.uav[37] utilizationCountManeuversMaintenance 86
scalar OsgEarthNet.uav[37] utilizationCountChargeState 43
scalar OsgEarthNet.uav[37] utilizationCountOverdrawnAfterMission 0
scalar OsgEarthNet.uav[37] utilizationCountIdleState 43
scalar OsgEarthNet.uav[37] utilizationFail 0
scalar OsgEarthNet.uav[37] simulationTime 259200
scalar OsgEarthNet.uav[38] utilizationSecMission 27670.148318848
scalar OsgEarthNet.uav[38] utilizationSecMaintenance 13720.641054284
scalar OsgEarthNet.uav[38] utilizationSecCharge 151469.7842761
scalar OsgEarthNet.uav[38] utilizationSecIdle 66339.425350767
scalar OsgEarthNet.uav[38] utilizationEnergyMission 128203.24298859
scalar OsgEarthNet.uav[38] utilizationEnergyMaintenance 63762.808422089
scalar OsgEarthNet.uav[38] utilizationEnergyCharge 190916.46972656
scalar OsgEarthNet.uav[38] utilizationEnergyOverdrawMission 0
scalar OsgEarthNet.uav[38] utilizationEnergyOverdrawMaintenance 0
scalar OsgEarthNet.uav[38] utilizationCountMissions 41
scalar OsgEarthNet.uav[38] utilizationCountManeuversMission 445
scalar OsgEarthNet.uav[38] utilizationCountManeuversMaintenance 82
scalar OsgEarthNet.uav[38] utilizationCountChargeState 41
scalar OsgEarthNet.uav[38] utilizationCountOverdrawnAfterMission 0
scalar OsgEarthNet.uav[38] utilizationCountIdleState 41
scalar OsgEarthNet.uav[38] utilizationFail 0
scalar OsgEarthNet.uav[38] simulationTime 259200
scalar OsgEarthNet.uav[39] utilizationSecMission 760.62515258028
scalar OsgEarthNet.uav[39] utilizationSecMaintenance 291.95923480269
scalar OsgEarthNet.uav[39] utilizationSecCharge 3800
scalar OsgEarthNet.uav[39] utilizationSecIdle 254347.41461262
scalar OsgEarthNet.uav[39] utilizationEnergyMission 3424.0416793823
scalar OsgEarthNet.uav[39] utilizationEnergyMaintenance 1404.3165512085
scalar OsgEarthNet.uav[39] utilizationEnergyCharge 4828.3583984375
scalar OsgEarthNet.uav[39] utilizationEnergyOverdrawMission 0
scalar OsgEarthNet.uav[39] utilizationEnergyOverdrawMaintenance 0
scalar OsgEarthNet.uav[39] utilizationCountMissions 1
scalar OsgEarthNet.uav[39] utilizationCountManeuversMission 12
scalar OsgEarthNet.uav[39] utilizationCountManeuversMaintenance 2
scalar OsgEarthNet.uav[39] utilizationCountChargeState 1
scalar OsgEarthNet.uav[39] utilizationCountOverdrawnAfterMission 0
scalar OsgEarthNet.uav[39] utilizationCountIdleState 2
scalar OsgEarthNet.uav[39] utilizationFail 0
scalar OsgEarthNet.uav[39] simulationTime 259200
scalar OsgEarthNet.uav[40] utilizationSecMission 684.4732299383
scalar OsgEarthNet.uav[40] utilizationSecMaintenance 298.56834692969
scalar OsgEarthNet.uav[40] utilizationSecCharge 3700
scalar OsgEarthNet.uav[40] utilizationSecIdle 254516.95742313
scalar OsgEarthNet.uav[40] utilizationEnergyMission 3307.0063476563
scalar OsgEarthNet.uav[40] utilizationEnergyMaintenance 1321.5060043335
scalar OsgEarthNet.uav[40] utilizationEnergyCharge 4628.5141601562
scalar OsgEarthNet.uav[40] utilizationEnergyOverdrawMission 0
scalar OsgEarthNet.uav[40] utilizationEnergyOverdrawMaintenance 0
scalar OsgEarthNet.uav[40] utilizationCountMissions 1
scalar OsgEarthNet.uav[40] utilizationCountManeuversMission 11
scalar OsgEarthNet.uav[40] utilizationCountManeuversMaintenance 2
scalar OsgEarthNet.uav[40] utilizationCountChargeState 1
scalar OsgEarthNet.uav[40] utilizationCountOverdrawnAfterMission 0
scalar OsgEarthNet.uav[40] utilizationCountIdleState 2
scalar OsgEarthNet.uav[40] utilizationFail 0
scalar OsgEarthNet.uav[40] simulationTime 259200
scalar OsgEarthNet.uav[41] utilizationSecMission 29356.323690975
scalar OsgEarthNet.uav[41] utilizationSecMaintenance 14213.616674937
scalar OsgEarthNet.uav[41] utilizationSecCharge 157774.63752276
scalar OsgEarthNet.uav[41] utilizationSecIdle 57855.421111329
scalar OsgEarthNet.uav[41] utilizationEnergyMission 134698.50270844
scalar OsgEarthNet.uav[41] utilizationEnergyMaintenance 65486.741397858
scalar OsgEarthNet.uav[41] utilizationEnergyCharge 198273.89599609
scalar OsgEarthNet.uav[41] utilizationEnergyOverdrawMission 0
scalar OsgEarthNet.uav[41] utilizationEnergyOverdrawMaintenance 0
scalar OsgEarthNet.uav[41] utilizationCountMissions 43
scalar OsgEarthNet.uav[41] utilizationCountManeuversMission 490
scalar OsgEarthNet.uav[41] utilizationCountManeuversMaintenance 86
scalar OsgEarthNet.uav[41] utilizationCountChargeState 43
scalar OsgEarthNet.uav[41] utilizationCountOverdrawnAfterMission 0
scalar OsgEarthNet.uav[41] utilizationCountIdleState 43
scalar OsgEarthNet.uav[41] utilizationFail 0
scalar OsgEarthNet.uav[41] simulationTime 259200
scalar OsgEarthNet.uav[42] utilizationSecMission 694.00169469977
scalar OsgEarthNet.uav[42] utilizationSecMaintenance 338.49695459722
scalar OsgEarthNet.uav[42] utilizationSecCharge 3800
scalar OsgEarthNet.uav[42] utilizationSecIdle 254367.5003507
scalar OsgEarthNet.uav[42] utilizationEnergyMission 3390.8311843872
scalar OsgEarthNet.uav[42] utilizationEnergyMaintenance 1409.5517082214
scalar OsgEarthNet.uav[42] utilizationEnergyCharge 4800.3857421875
scalar OsgEarthNet.uav[42] utilizationEnergyOverdrawMission 0
scalar OsgEarthNet.uav[42] utilizationEnergyOverdrawMaintenance 0
scalar OsgEarthNet.uav[42] utilizationCountMissions 1
scalar OsgEarthNet.uav[42] utilizationCountManeuversMission 13
scalar OsgEarthNet.uav[42] utilizationCountManeuversMaintenance 2
scalar OsgEarthNet.uav[42] utilizationCountChargeState 1
scalar OsgEarthNet.uav[42] utilizationCountOverdrawnAfterMission 0
scalar OsgEarthNet.uav[42] utilizationCountIdleState 2
scalar OsgEarthNet.uav[42] utilizationFail 0
scalar OsgEarthNet.uav[42] simulationTime 259200
scalar OsgEarthNet.uav[43] utilizationSecMission 27321.41073728
scalar OsgEarthNet.uav[43] utilizationSecMaintenance 13216.751753462
scalar OsgEarthNet.uav[43] utilizationSecCharge 148769.69668752
scalar OsgEarthNet.uav[43] utilizationSecIdle 69892.139821739
scalar OsgEarthNet.uav[43] utilizationEnergyMission 127128.11576843
scalar OsgEarthNet.uav[43] utilizationEnergyMaintenance 62436.355278015
scalar OsgEarthNet.uav[43] utilizationEnergyCharge 187783.52197266
scalar OsgEarthNet.uav[43] utilizationEnergyOverdrawMission 0
scalar OsgEarthNet.uav[43] utilizationEnergyOverdrawMaintenance 0
scalar OsgEarthNet.uav[43] utilizationCountMissions 40
scalar OsgEarthNet.uav[43] utilizationCountManeuversMission 456
scalar OsgEarthNet.uav[43] utilizationCountManeuversMaintenance 80
scalar OsgEarthNet.uav[43] utilizationCountChargeState 40
scalar OsgEarthNet.uav[43] utilizationCountOverdrawnAfterMission 0
scalar OsgEarthNet.uav[43] utilizationCountIdleState 40
scalar OsgEarthNet.uav[43] utilizationFail 0
scalar OsgEarthNet.uav[43] simulationTime 259200
scalar OsgEarthNet.uav[44] utilizationSecMission 26457.168149509
scalar OsgEarthNet.uav[44] utilizationSecMaintenance 11976.665947234
scalar OsgEarthNet.uav[44] utilizationSecCharge 140590
scalar OsgEarthNet.uav[44] utilizationSecIdle 80176.164903257
scalar OsgEarthNet.uav[44] utilizationEnergyMission 120791.56049347
scalar OsgEarthNet.uav[44] utilizationEnergyMaintenance 55499.953178406
scalar OsgEarthNet.uav[44] utilizationEnergyCharge 175804.97558594
scalar OsgEarthNet.uav[44] utilizationEnergyOverdrawMission 0
scalar OsgEarthNet.uav[44] utilizationEnergyOverdrawMaintenance 0
scalar OsgEarthNet.uav[44] utilizationCountMissions 38
scalar OsgEarthNet.uav[44] utilizationCountManeuversMission 432
scalar OsgEarthNet.uav[44] utilizationCountManeuversMaintenance 76
scalar OsgEarthNet.uav[44] utilizationCountChargeState 38
scalar OsgEarthNet.uav[44] utilizationCountOverdrawnAfterMission 0
scalar OsgEarthNet.uav[44] utilizationCountIdleState 39
scalar OsgEarthNet.uav[44] utilizationFail 0
scalar OsgEarthNet.uav[44] simulationTime 259200
scalar OsgEarthNet.uav[45] utilizationSecMission 6815.5283163003
scalar OsgEarthNet.uav[45] utilizationSecMaintenance 3380.1166662709
scalar OsgEarthNet.uav[45] utilizationSecCharge 37650
scalar OsgEarthNet.uav[45] utilizationSecIdle 211354.35401743
scalar OsgEarthNet.uav[45] utilizationEnergyMission 31381.533630371
scalar OsgEarthNet.uav[45] utilizationEnergyMaintenance 15897.890830994
scalar OsgEarthNet.uav[45] utilizationEnergyCharge 47319.642578125
scalar OsgEarthNet.uav[45] utilizationEnergyOverdrawMission 0
scalar OsgEarthNet.uav[45] utilizationEnergyOverdrawMaintenance 0
scalar OsgEarthNet.uav[45] utilizationCountMissions 10
scalar OsgEarthNet.uav[45] utilizationCountManeuversMission 107
scalar OsgEarthNet.uav[45] utilizationCountManeuversMaintenance 20
scalar OsgEarthNet.uav[45] utilizationCountChargeState 10
scalar OsgEarthNet.uav[45] utilizationCountOverdrawnAfterMission 0
scalar OsgEarthNet.uav[45] utilizationCountIdleState 11
scalar OsgEarthNet.uav[45] utilizationFail 0
scalar OsgEarthNet.uav[45] simulationTime 259200
scalar OsgEarthNet.uav[46] utilizationSecMission 760.62515258028
scalar OsgEarthNet.uav[46] utilizationSecMaintenance 291.95923480269
scalar OsgEarthNet.uav[46] utilizationSecCharge 3870
scalar OsgEarthNet.uav[46] utilizationSecIdle 254277.41461262
scalar OsgEarthNet.uav[46] utilizationEnergyMission 3407.1370391846
scalar OsgEarthNet.uav[46] utilizationEnergyMaintenance 1504.7489242554
scalar OsgEarthNet.uav[46] utilizationEnergyCharge 4911.8828125
scalar OsgEarthNet.uav[46] utilizationEnergyOverdrawMission 0
scalar OsgEarthNet.uav[46] utilizationEnergyOverdrawMaintenance 0
scalar OsgEarthNet.uav[46] utilizationCountMissions 1
scalar OsgEarthNet.uav[46] utilizationCountManeuversMission 12
scalar OsgEarthNet.uav[46] utilizationCountManeuversMaintenance 2
scalar OsgEarthNet.uav[46] utilizationCountChargeState 1
scalar OsgEarthNet.uav[46] utilizationCountOverdrawnAfterMission 0
scalar OsgEarthNet.uav[46] utilizationCountIdleState 2
scalar OsgEarthNet.uav[46] utilizationFail 0
scalar OsgEarthNet.uav[46] simulationTime 259200
scalar OsgEarthNet.uav[47] utilizationSecMission 3580.1024402203
scalar OsgEarthNet.uav[47] utilizationSecMaintenance 2078.6687586486
scalar OsgEarthNet.uav[47] utilizationSecCharge 17930
scalar OsgEarthNet.uav[47] utilizationSecIdle 235611.22780113
scalar OsgEarthNet.uav[47] utilizationEnergyMission 16482.32859444
scalar OsgEarthNet.uav[47] utilizationEnergyMaintenance 9655.8921470642
scalar OsgEarthNet.uav[47] utilizationEnergyCharge 22013.157226562
scalar OsgEarthNet.uav[47] utilizationEnergyOverdrawMission 0
scalar OsgEarthNet.uav[47] utilizationEnergyOverdrawMaintenance 0
scalar OsgEarthNet.uav[47] utilizationCountMissions 5
scalar OsgEarthNet.uav[47] utilizationCountManeuversMission 62
scalar OsgEarthNet.uav[47] utilizationCountManeuversMaintenance 11
scalar OsgEarthNet.uav[47] utilizationCountChargeState 5
scalar OsgEarthNet.uav[47] utilizationCountOverdrawnAfterMission 0
scalar OsgEarthNet.uav[47] utilizationCountIdleState 6
scalar OsgEarthNet.uav[47] utilizationFail 0
scalar OsgEarthNet.uav[47] simulationTime 259200
scalar OsgEarthNet.uav[48] utilizationSecMission 2390.3609695303
scalar OsgEarthNet.uav[48] utilizationSecMaintenance 734.92894823236
scalar OsgEarthNet.uav[48] utilizationSecCharge 11310
scalar OsgEarthNet.uav[48] utilizationSecIdle 244764.70908224
scalar OsgEarthNet.uav[48] utilizationEnergyMission 10940.166625977
scalar OsgEarthNet.uav[48] utilizationEnergyMaintenance 3353.1160583496
scalar OsgEarthNet.uav[48] utilizationEnergyCharge 14189.436035156
scalar OsgEarthNet.uav[48] utilizationEnergyOverdrawMission 0
scalar OsgEarthNet.uav[48] utilizationEnergyOverdrawMaintenance 0
scalar OsgEarthNet.uav[48] utilizationCountMissions 3
scalar OsgEarthNet.uav[48] utilizationCountManeuversMission 39
scalar OsgEarthNet.uav[48] utilizationCountManeuversMaintenance 6
scalar OsgEarthNet.uav[48] utilizationCountChargeState 3
scalar OsgEarthNet.uav[48] utilizationCountOverdrawnAfterMission 0
scalar OsgEarthNet.uav[48] utilizationCountIdleState 4
scalar OsgEarthNet.uav[48] utilizationFail 0
scalar OsgEarthNet.uav[48] simulationTime 259200
scalar OsgEarthNet.uav[49] utilizationSecMission 836.77707522227
scalar OsgEarthNet.uav[49] utilizationSecMaintenance 217.0347828456
scalar OsgEarthNet.uav[49] utilizationSecCharge 3870
scalar OsgEarthNet.uav[49] utilizationSecIdle 254276.18714193
scalar OsgEarthNet.uav[49] utilizationEnergyMission 3791.9122924805
scalar OsgEarthNet.uav[49] utilizationEnergyMaintenance 1081.6526298523
scalar OsgEarthNet.uav[49] utilizationEnergyCharge 4873.5639648438
scalar OsgEarthNet.uav[49] utilizationEnergyOverdrawMission 0
scalar OsgEarthNet.uav[49] utilizationEnergyOverdrawMaintenance 0
scalar OsgEarthNet.uav[49] utilizationCountMissions 1
scalar OsgEarthNet.uav[49] utilizationCountManeuversMission 13
scalar OsgEarthNet.uav[49] utilizationCountManeuversMaintenance 2
scalar OsgEarthNet.uav[49] utilizationCountChargeState 1
scalar OsgEarthNet.uav[49] utilizationCountOverdrawnAfterMission 0
scalar OsgEarthNet.uav[49] utilizationCountIdleState 2
scalar OsgEarthNet.uav[49] utilizationFail 0
scalar OsgEarthNet.uav[49] simulationTime 259200
scalar OsgEarthNet.uav[50] utilizationSecMission 684.4732299383
scalar OsgEarthNet.uav[50] utilizationSecMaintenance 298.56834692969
scalar OsgEarthNet.uav[50] utilizationSecCharge 3760
scalar OsgEarthNet.uav[50] utilizationSecIdle 254456.95742313
scalar OsgEarthNet.uav[50] utilizationEnergyMission 3338.0886383057
scalar OsgEarthNet.uav[50] utilizationEnergyMaintenance 1410.980796814
scalar OsgEarthNet.uav[50] utilizationEnergyCharge 4749.0737304688
scalar OsgEarthNet.uav[50] utilizationEnergyOverdrawMission 0
scalar OsgEarthNet.uav[50] utilizationEnergyOverdrawMaintenance 0
scalar OsgEarthNet.uav[50] utilizationCountMissions 1
scalar OsgEarthNet.uav[50] utilizationCountManeuversMission 11
scalar OsgEarthNet.uav[50] utilizationCountManeuversMaintenance 2
scalar OsgEarthNet.uav[50] utilizationCountChargeState 1
scalar OsgEarthNet.uav[50] utilizationCountOverdrawnAfterMission 0
scalar OsgEarthNet.uav[50] utilizationCountIdleState 2
scalar OsgEarthNet.uav[50] utilizationFail 0
scalar OsgEarthNet.uav[50] simulationTime 259200
scalar OsgEarthNet.uav[51] utilizationSecMission 28326.23217904
scalar OsgEarthNet.uav[51] utilizationSecMaintenance 11496.630268276
scalar OsgEarthNet.uav[51] utilizationSecCharge 148310
scalar OsgEarthNet.uav[51] utilizationSecIdle 71067.136552684
scalar OsgEarthNet.uav[51] utilizationEnergyMission 131149.90935516
scalar OsgEarthNet.uav[51] utilizationEnergyMaintenance 54904.151683807
scalar OsgEarthNet.uav[51] utilizationEnergyCharge 185452.62988281
scalar OsgEarthNet.uav[51] utilizationEnergyOverdrawMission 0
scalar OsgEarthNet.uav[51] utilizationEnergyOverdrawMaintenance 0
scalar OsgEarthNet.uav[51] utilizationCountMissions 40
scalar OsgEarthNet.uav[51] utilizationCountManeuversMission 445
scalar OsgEarthNet.uav[51] utilizationCountManeuversMaintenance 80
scalar OsgEarthNet.uav[51] utilizationCountChargeState 40
scalar OsgEarthNet.uav[51] utilizationCountOverdrawnAfterMission 0
scalar OsgEarthNet.uav[51] utilizationCountIdleState 41
scalar OsgEarthNet.uav[51] utilizationFail 0
scalar OsgEarthNet.uav[51] simulationTime 259200
scalar OsgEarthNet.uav[52] utilizationSecMission 849.72251905553
scalar OsgEarthNet.uav[52] utilizationSecMaintenance 304.91840311598
scalar OsgEarthNet.uav[52] utilizationSecCharge 3930
scalar OsgEarthNet.uav[52] utilizationSecIdle 254115.35807783
scalar OsgEarthNet.uav[52] utilizationEnergyMission 3818.3758850098
scalar OsgEarthNet.uav[52] utilizationEnergyMaintenance 1250.7881698608
scalar OsgEarthNet.uav[52] utilizationEnergyCharge 5033.8149414062
scalar OsgEarthNet.uav[52] utilizationEnergyOverdrawMission 0
scalar OsgEarthNet.uav[52] utilizationEnergyOverdrawMaintenance 0
scalar OsgEarthNet.uav[52] utilizationCountMissions 1
scalar OsgEarthNet.uav[52] utilizationCountManeuversMission 13
scalar OsgEarthNet.uav[52] utilizationCountManeuversMaintenance 2
scalar OsgEarthNet.uav[52] utilizationCountChargeState 1
scalar OsgEarthNet.uav[52] utilizationCountOverdrawnAfterMission 0
scalar OsgEarthNet.uav[52] utilizationCountIdleState 2
scalar OsgEarthNet.uav[52] utilizationFail 0
scalar OsgEarthNet.uav[52] simulationTime 259200
scalar OsgEarthNet.uav[53] utilizationSecMission 23535.000343906
scalar OsgEarthNet.uav[53] utilizationSecMaintenance 10876.415181663
scalar OsgEarthNet.uav[53] utilizationSecCharge 126860
scalar OsgEarthNet.uav[53] utilizationSecIdle 97928.583474431
scalar OsgEarthNet.uav[53] utilizationEnergyMission 108436.92809296
scalar OsgEarthNet.uav[53] utilizationEnergyMaintenance 51109.236606598
scalar OsgEarthNet.uav[53] utilizationEnergyCharge 158795.453125
scalar OsgEarthNet.uav[53] utilizationEnergyOverdrawMission 0
scalar OsgEarthNet.uav[53] utilizationEnergyOverdrawMaintenance 0
scalar OsgEarthNet.uav[53] utilizationCountMissions 34
scalar OsgEarthNet.uav[53] utilizationCountManeuversMission 395
scalar OsgEarthNet.uav[53] utilizationCountManeuversMaintenance 68
scalar OsgEarthNet.uav[53] utilizationCountChargeState 34
scalar OsgEarthNet.uav[53] utilizationCountOverdrawnAfterMission 0
scalar OsgEarthNet.uav[53] utilizationCountIdleState 35
scalar OsgEarthNet.uav[53] utilizationFail 0
scalar OsgEarthNet.uav[53] simulationTime 259200
scalar OsgEarthNet.uav[54] utilizationSecMission 8661.7573465592
scalar OsgEarthNet.uav[54] utilizationSecMaintenance 4482.1014542376
scalar OsgEarthNet.uav[54] utilizationSecCharge 48260
scalar OsgEarthNet.uav[54] utilizationSecIdle 197796.1401992
scalar OsgEarthNet.uav[54] utilizationEnergyMission 39230.707702637
scalar OsgEarthNet.uav[54] utilizationEnergyMaintenance 21079.870937347
scalar OsgEarthNet.uav[54] utilizationEnergyCharge 60340.666992188
scalar OsgEarthNet.uav[54] utilizationEnergyOverdrawMission 0
scalar OsgEarthNet.uav[54] utilizationEnergyOverdrawMaintenance 0
scalar OsgEarthNet.uav[54] utilizationCountMissions 13
scalar OsgEarthNet.uav[54] utilizationCountManeuversMission 143
scalar OsgEarthNet.uav[54] utilizationCountManeuversMaintenance 26
scalar OsgEarthNet.uav[54] utilizationCountChargeState 13
scalar OsgEarthNet.uav[54] utilizationCountOverdrawnAfterMission 0
scalar OsgEarthNet.uav[54] utilizationCountIdleState 14
scalar OsgEarthNet.uav[54] utilizationFail 0
scalar OsgEarthNet.uav[54] simulationTime 259200
scalar OsgEarthNet.uav[55] utilizationSecMission 13636.106674413
scalar OsgEarthNet.uav[55] utilizationSecMaintenance 6501.3016153819
scalar OsgEarthNet.uav[55] utilizationSecCharge 75350
scalar OsgEarthNet.uav[55] utilizationSecIdle 163712.5907102
scalar OsgEarthNet.uav[55] utilizationEnergyMission 63380.210494995
scalar OsgEarthNet.uav[55] utilizationEnergyMaintenance 31351.205196381
scalar OsgEarthNet.uav[55] utilizationEnergyCharge 94825.554199219
scalar OsgEarthNet.uav[55] utilizationEnergyOverdrawMission 0
scalar OsgEarthNet.uav[55] utilizationEnergyOverdrawMaintenance 0
scalar OsgEarthNet.uav[55] utilizationCountMissions 20
scalar OsgEarthNet.uav[55] utilizationCountManeuversMission 218
scalar OsgEarthNet.uav[55] utilizationCountManeuversMaintenance 40
scalar OsgEarthNet.uav[55] utilizationCountChargeState 20
scalar OsgEarthNet.uav[55] utilizationCountOverdrawnAfterMission 0
scalar OsgEarthNet.uav[55] utilizationCountIdleState 21
scalar OsgEarthNet.uav[55] utilizationFail 0
scalar OsgEarthNet.uav[55] simulationTime 259200
scalar OsgEarthNet.uav[56] utilizationSecMission 616.06593675614
scalar OsgEarthNet.uav[56] utilizationSecMaintenance 462.29459772748
scalar OsgEarthNet.uav[56] utilizationSecCharge 3870
scalar OsgEarthNet.uav[56] utilizationSecIdle 254251.63846552
scalar OsgEarthNet.uav[56] utilizationEnergyMission 2722.8982391357
scalar OsgEarthNet.uav[56] utilizationEnergyMaintenance 2228.8112411499
scalar OsgEarthNet.uav[56] utilizationEnergyCharge 4888.4360351562
scalar OsgEarthNet.uav[56] utilizationEnergyOverdrawMission 0
scalar OsgEarthNet.uav[56] utilizationEnergyOverdrawMaintenance 0
scalar OsgEarthNet.uav[56] utilizationCountMissions 1
scalar OsgEarthNet.uav[56] utilizationCountManeuversMission 10
scalar OsgEarthNet.uav[56] utilizationCountManeuversMaintenance 2
scalar OsgEarthNet.uav[56] utilizationCountChargeState 1
scalar OsgEarthNet.uav[56] utilizationCountOverdrawnAfterMission 0
scalar OsgEarthNet.uav[56] utilizationCountIdleState 2
scalar OsgEarthNet.uav[56] utilizationFail 0
scalar OsgEarthNet.uav[56] simulationTime 259200
scalar OsgEarthNet.uav[57] utilizationSecMission 30967.804875337
scalar OsgEarthNet.uav[57] utilizationSecMaintenance 13452.117252447
scalar OsgEarthNet.uav[57] utilizationSecCharge 164418.07687222
scalar OsgEarthNet.uav[57] utilizationSecIdle 50362
scalar OsgEarthNet.uav[57] utilizationEnergyMission 144306.1496048
scalar OsgEarthNet.uav[57] utilizationEnergyMaintenance 63319.300674438
scalar OsgEarthNet.uav[57] utilizationEnergyCharge 207335.68212891
scalar OsgEarthNet.uav[57] utilizationEnergyOverdrawMission 0
scalar OsgEarthNet.uav[57] utilizationEnergyOverdrawMaintenance 0
scalar OsgEarthNet.uav[57] utilizationCountMissions 44
scalar OsgEarthNet.uav[57] utilizationCountManeuversMission 502
scalar OsgEarthNet.uav[57] utilizationCountManeuversMaintenance 87
scalar OsgEarthNet.uav[57] utilizationCountChargeState 44
scalar OsgEarthNet.uav[57] utilizationCountOverdrawnAfterMission 0
scalar OsgEarthNet.uav[57] utilizationCountIdleState 44
scalar OsgEarthNet.uav[57] utilizationFail 0
scalar OsgEarthNet.uav[57] simulationTime 259200
scalar OsgEarthNet.uav[58] utilizationSecMission 32100.111170681
scalar OsgEarthNet.uav[58] utilizationSecMaintenance 12422.94738597
scalar OsgEarthNet.uav[58] utilizationSecCharge 162354.94044335
scalar OsgEarthNet.uav[58] utilizationSecIdle 52322
scalar OsgEarthNet.uav[58] utilizationEnergyMission 148149.69646491
scalar OsgEarthNet.uav[58] utilizationEnergyMaintenance 58749.512969971
scalar OsgEarthNet.uav[58] utilizationEnergyCharge 204342.06738281
scalar OsgEarthNet.uav[58] utilizationEnergyOverdrawMission 0
scalar OsgEarthNet.uav[58] utilizationEnergyOverdrawMaintenance 0
scalar OsgEarthNet.uav[58] utilizationCountMissions 44
scalar OsgEarthNet.uav[58] utilizationCountManeuversMission 514
scalar OsgEarthNet.uav[58] utilizationCountManeuversMaintenance 87
scalar OsgEarthNet.uav[58] utilizationCountChargeState 44
scalar OsgEarthNet.uav[58] utilizationCountOverdrawnAfterMission 0
scalar OsgEarthNet.uav[58] utilizationCountIdleState 44
scalar OsgEarthNet.uav[58] utilizationFail 0
scalar OsgEarthNet.uav[58] simulationTime 259200
scalar OsgEarthNet.uav[59] utilizationSecMission 684.4732299383
scalar OsgEarthNet.uav[59] utilizationSecMaintenance 298.56834692969
scalar OsgEarthNet.uav[59] utilizationSecCharge 3750
scalar OsgEarthNet.uav[59] utilizationSecIdle 254466.95742313
scalar OsgEarthNet.uav[59] utilizationEnergyMission 3194.3900756836
scalar OsgEarthNet.uav[59] utilizationEnergyMaintenance 1512.3271102905
scalar OsgEarthNet.uav[59] utilizationEnergyCharge 4706.716796875
scalar OsgEarthNet.uav[59] utilizationEnergyOverdrawMission 0
scalar OsgEarthNet.uav[59] utilizationEnergyOverdrawMaintenance 0
scalar OsgEarthNet.uav[59] utilizationCountMissions 1
scalar OsgEarthNet.uav[59] utilizationCountManeuversMission 11
scalar OsgEarthNet.uav[59] utilizationCountManeuversMaintenance 2
scalar OsgEarthNet.uav[59] utilizationCountChargeState 1
scalar OsgEarthNet.uav[59] utilizationCountOverdrawnAfterMission 0
scalar OsgEarthNet.uav[59] utilizationCountIdleState 2
scalar OsgEarthNet.uav[59] utilizationFail 0
scalar OsgEarthNet.uav[59] simulationTime 259200
scalar OsgEarthNet.uav[60] utilizationSecMission 21869.544968099
scalar OsgEarthNet.uav[60] utilizationSecMaintenance 9392.354420107
scalar OsgEarthNet.uav[60] utilizationSecCharge 116370
scalar OsgEarthNet.uav[60] utilizationSecIdle 111568.09961179
scalar OsgEarthNet.uav[60] utilizationEnergyMission 101690.11050797
scalar OsgEarthNet.uav[60] utilizationEnergyMaintenance 44254.597137451
scalar OsgEarthNet.uav[60] utilizationEnergyCharge 146115.10009766
scalar OsgEarthNet.uav[60] utilizationEnergyOverdrawMission 0
scalar OsgEarthNet.uav[60] utilizationEnergyOverdrawMaintenance 0
scalar OsgEarthNet.uav[60] utilizationCountMissions 31
scalar OsgEarthNet.uav[60] utilizationCountManeuversMission 356
scalar OsgEarthNet.uav[60] utilizationCountManeuversMaintenance 62
scalar OsgEarthNet.uav[60] utilizationCountChargeState 31
scalar OsgEarthNet.uav[60] utilizationCountOverdrawnAfterMission 0
scalar OsgEarthNet.uav[60] utilizationCountIdleState 32
scalar OsgEarthNet.uav[60] utilizationFail 0
scalar OsgEarthNet.uav[60] simulationTime 259200
scalar OsgEarthNet.uav[61] utilizationSecMission 22655.413923324
scalar OsgEarthNet.uav[61] utilizationSecMaintenance 10787.40323991
scalar OsgEarthNet.uav[61] utilizationSecCharge 120635.30983399
scalar OsgEarthNet.uav[61] utilizationSecIdle 105121.87200277
scalar OsgEarthNet.uav[61] utilizationEnergyMission 104194.49440002
scalar OsgEarthNet.uav[61] utilizationEnergyMaintenance 51252.755683899
scalar OsgEarthNet.uav[61] utilizationEnergyCharge 151429.52722168
scalar OsgEarthNet.uav[61] utilizationEnergyOverdrawMission 0
scalar OsgEarthNet.uav[61] utilizationEnergyOverdrawMaintenance 0
scalar OsgEarthNet.uav[61] utilizationCountMissions 33
scalar OsgEarthNet.uav[61] utilizationCountManeuversMission 363
scalar OsgEarthNet.uav[61] utilizationCountManeuversMaintenance 66
scalar OsgEarthNet.uav[61] utilizationCountChargeState 33
scalar OsgEarthNet.uav[61] utilizationCountOverdrawnAfterMission 0
scalar OsgEarthNet.uav[61] utilizationCountIdleState 33
scalar OsgEarthNet.uav[61] utilizationFail 0
scalar OsgEarthNet.uav[61] simulationTime 259200
scalar OsgEarthNet.uav[62] utilizationSecMission 28014.482112243
scalar OsgEarthNet.uav[62] utilizationSecMaintenance 14075.091822887
scalar OsgEarthNet.uav[62] utilizationSecCharge 152225.92712369
scalar OsgEarthNet.uav[62] utilizationSecIdle 64884.497941176
scalar OsgEarthNet.uav[62] utilizationEnergyMission 129538.08247375
scalar OsgEarthNet.uav[62] utilizationEnergyMaintenance 65506.157783508
scalar OsgEarthNet.uav[62] utilizationEnergyCharge 192566.93164062
scalar OsgEarthNet.uav[62] utilizationEnergyOverdrawMission 0
scalar OsgEarthNet.uav[62] utilizationEnergyOverdrawMaintenance 0
scalar OsgEarthNet.uav[62] utilizationCountMissions 41
scalar OsgEarthNet.uav[62] utilizationCountManeuversMission 461
scalar OsgEarthNet.uav[62] utilizationCountManeuversMaintenance 82
scalar OsgEarthNet.uav[62] utilizationCountChargeState 41
scalar OsgEarthNet.uav[62] utilizationCountOverdrawnAfterMission 0
scalar OsgEarthNet.uav[62] utilizationCountIdleState 41
scalar OsgEarthNet.uav[62] utilizationFail 0
scalar OsgEarthNet.uav[62] simulationTime 259200
scalar OsgEarthNet.uav[63] utilizationSecMission 760.62515258028
scalar OsgEarthNet.uav[63] utilizationSecMaintenance 223.6438949726
scalar OsgEarthNet.uav[63] utilizationSecCharge 3770
scalar OsgEarthNet.uav[63] utilizationSecIdle 254445.72995245
scalar OsgEarthNet.uav[63] utilizationEnergyMission 3557.2694549561
scalar OsgEarthNet.uav[63] utilizationEnergyMaintenance 1162.3749504089
scalar OsgEarthNet.uav[63] utilizationEnergyCharge 4719.64453125
scalar OsgEarthNet.uav[63] utilizationEnergyOverdrawMission 0
scalar OsgEarthNet.uav[63] utilizationEnergyOverdrawMaintenance 0
scalar OsgEarthNet.uav[63] utilizationCountMissions 1
scalar OsgEarthNet.uav[63] utilizationCountManeuversMission 12
scalar OsgEarthNet.uav[63] utilizationCountManeuversMaintenance 2
scalar OsgEarthNet.uav[63] utilizationCountChargeState 1
scalar OsgEarthNet.uav[63] utilizationCountOverdrawnAfterMission 0
scalar OsgEarthNet.uav[63] utilizationCountIdleState 2
scalar OsgEarthNet.uav[63] utilizationFail 0
scalar OsgEarthNet.uav[63] simulationTime 259200
scalar OsgEarthNet.uav[64] utilizationSecMission 528.55000878666
scalar OsgEarthNet.uav[64] utilizationSecMaintenance 478.92797493542
scalar OsgEarthNet.uav[64] utilizationSecCharge 3650
scalar OsgEarthNet.uav[64] utilizationSecIdle 254542.52101628
scalar OsgEarthNet.uav[64] utilizationEnergyMission 2524.0637893677
scalar OsgEarthNet.uav[64] utilizationEnergyMaintenance 2016.0749130249
scalar OsgEarthNet.uav[64] utilizationEnergyCharge 4540.1391601562
scalar OsgEarthNet.uav[64] utilizationEnergyOverdrawMission 0
scalar OsgEarthNet.uav[64] utilizationEnergyOverdrawMaintenance 0
scalar OsgEarthNet.uav[64] utilizationCountMissions 1
scalar OsgEarthNet.uav[64] utilizationCountManeuversMission 10
scalar OsgEarthNet.uav[64] utilizationCountManeuversMaintenance 2
scalar OsgEarthNet.uav[64] utilizationCountChargeState 1
scalar OsgEarthNet.uav[64] utilizationCountOverdrawnAfterMission 0
scalar OsgEarthNet.uav[64] utilizationCountIdleState 2
scalar OsgEarthNet.uav[64] utilizationFail 0
scalar OsgEarthNet.uav[64] simulationTime 259200
scalar OsgEarthNet.uav[65] utilizationSecMission 18846.487046029
scalar OsgEarthNet.uav[65] utilizationSecMaintenance 7187.2366321364
scalar OsgEarthNet.uav[65] utilizationSecCharge 96450
scalar OsgEarthNet.uav[65] utilizationSecIdle 136716.27532183
scalar OsgEarthNet.uav[65] utilizationEnergyMission 86500.69228363
scalar OsgEarthNet.uav[65] utilizationEnergyMaintenance 34425.392642975
[...]
scalar OsgEarthNet.uav[82] utilizationEnergyMission 88698.19645214
scalar OsgEarthNet.uav[82] utilizationEnergyMaintenance 42284.598941803
scalar OsgEarthNet.uav[82] utilizationEnergyCharge 127872.97021484
scalar OsgEarthNet.uav[82] utilizationEnergyOverdrawMission 0
scalar OsgEarthNet.uav[82] utilizationEnergyOverdrawMaintenance 0
scalar OsgEarthNet.uav[82] utilizationCountMissions 27
scalar OsgEarthNet.uav[82] utilizationCountManeuversMission 313
scalar OsgEarthNet.uav[82] utilizationCountManeuversMaintenance 55
scalar OsgEarthNet.uav[82] utilizationCountChargeState 27
scalar OsgEarthNet.uav[82] utilizationCountOverdrawnAfterMission 0
scalar OsgEarthNet.uav[82] utilizationCountIdleState 28
scalar OsgEarthNet.uav[82] utilizationFail 0
scalar OsgEarthNet.uav[82] simulationTime 259200
scalar OsgEarthNet.uav[83] utilizationSecMission 684.4732299383
scalar OsgEarthNet.uav[83] utilizationSecMaintenance 298.56834692969
scalar OsgEarthNet.uav[83] utilizationSecCharge 3770
scalar OsgEarthNet.uav[83] utilizationSecIdle 254446.95742313
scalar OsgEarthNet.uav[83] utilizationEnergyMission 3281.6595611572
scalar OsgEarthNet.uav[83] utilizationEnergyMaintenance 1434.9239120483
scalar OsgEarthNet.uav[83] utilizationEnergyCharge 4716.583984375
scalar OsgEarthNet.uav[83] utilizationEnergyOverdrawMission 0
scalar OsgEarthNet.uav[83] utilizationEnergyOverdrawMaintenance 0
scalar OsgEarthNet.uav[83] utilizationCountMissions 1
scalar OsgEarthNet.uav[83] utilizationCountManeuversMission 11
scalar OsgEarthNet.uav[83] utilizationCountManeuversMaintenance 2
scalar OsgEarthNet.uav[83] utilizationCountChargeState 1
scalar OsgEarthNet.uav[83] utilizationCountOverdrawnAfterMission 0
scalar OsgEarthNet.uav[83] utilizationCountIdleState 2
scalar OsgEarthNet.uav[83] utilizationFail 0
scalar OsgEarthNet.uav[83] simulationTime 259200
scalar OsgEarthNet.uav[84] utilizationSecMission 24695.319647771
scalar OsgEarthNet.uav[84] utilizationSecMaintenance 10564.892965575
scalar OsgEarthNet.uav[84] utilizationSecCharge 130440
scalar OsgEarthNet.uav[84] utilizationSecIdle 93499.786386654
scalar OsgEarthNet.uav[84] utilizationEnergyMission 113910.39378357
scalar OsgEarthNet.uav[84] utilizationEnergyMaintenance 49492.908996582
scalar OsgEarthNet.uav[84] utilizationEnergyCharge 163499.59716797
scalar OsgEarthNet.uav[84] utilizationEnergyOverdrawMission 0
scalar OsgEarthNet.uav[84] utilizationEnergyOverdrawMaintenance 0
scalar OsgEarthNet.uav[84] utilizationCountMissions 35
scalar OsgEarthNet.uav[84] utilizationCountManeuversMission 388
scalar OsgEarthNet.uav[84] utilizationCountManeuversMaintenance 70
scalar OsgEarthNet.uav[84] utilizationCountChargeState 35
scalar OsgEarthNet.uav[84] utilizationCountOverdrawnAfterMission 0
scalar OsgEarthNet.uav[84] utilizationCountIdleState 36
scalar OsgEarthNet.uav[84] utilizationFail 0
scalar OsgEarthNet.uav[84] simulationTime 259200
scalar OsgEarthNet.uav[85] utilizationSecMission 844.68187799363
scalar OsgEarthNet.uav[85] utilizationSecMaintenance 168.94893785192
scalar OsgEarthNet.uav[85] utilizationSecCharge 3830
scalar OsgEarthNet.uav[85] utilizationSecIdle 254356.36818415
scalar OsgEarthNet.uav[85] utilizationEnergyMission 3945.1842803955
scalar OsgEarthNet.uav[85] utilizationEnergyMaintenance 810.74216842652
scalar OsgEarthNet.uav[85] utilizationEnergyCharge 4856.9140625
scalar OsgEarthNet.uav[85] utilizationEnergyOverdrawMission 0
scalar OsgEarthNet.uav[85] utilizationEnergyOverdrawMaintenance 0
scalar OsgEarthNet.uav[85] utilizationCountMissions 1
scalar OsgEarthNet.uav[85] utilizationCountManeuversMission 13
scalar OsgEarthNet.uav[85] utilizationCountManeuversMaintenance 2
scalar OsgEarthNet.uav[85] utilizationCountChargeState 1
scalar OsgEarthNet.uav[85] utilizationCountOverdrawnAfterMission 0
scalar OsgEarthNet.uav[85] utilizationCountIdleState 2
scalar OsgEarthNet.uav[85] utilizationFail 0
scalar OsgEarthNet.uav[85] simulationTime 259200
scalar OsgEarthNet.uav[86] utilizationSecMission 836.77707522227
scalar OsgEarthNet.uav[86] utilizationSecMaintenance 217.0347828456
scalar OsgEarthNet.uav[86] utilizationSecCharge 3870
scalar OsgEarthNet.uav[86] utilizationSecIdle 254276.18714193
scalar OsgEarthNet.uav[86] utilizationEnergyMission 3908.5442123413
scalar OsgEarthNet.uav[86] utilizationEnergyMaintenance 1008.8813285828
scalar OsgEarthNet.uav[86] utilizationEnergyCharge 4917.4272460938
scalar OsgEarthNet.uav[86] utilizationEnergyOverdrawMission 0
scalar OsgEarthNet.uav[86] utilizationEnergyOverdrawMaintenance 0
scalar OsgEarthNet.uav[86] utilizationCountMissions 1
scalar OsgEarthNet.uav[86] utilizationCountManeuversMission 13
scalar OsgEarthNet.uav[86] utilizationCountManeuversMaintenance 2
scalar OsgEarthNet.uav[86] utilizationCountChargeState 1
scalar OsgEarthNet.uav[86] utilizationCountOverdrawnAfterMission 0
scalar OsgEarthNet.uav[86] utilizationCountIdleState 2
scalar OsgEarthNet.uav[86] utilizationFail 0
scalar OsgEarthNet.uav[86] simulationTime 259200
scalar OsgEarthNet.uav[87] utilizationSecMission 29287.825141841
scalar OsgEarthNet.uav[87] utilizationSecMaintenance 14468.837306647
scalar OsgEarthNet.uav[87] utilizationSecCharge 161680
scalar OsgEarthNet.uav[87] utilizationSecIdle 53763.336551512
scalar OsgEarthNet.uav[87] utilizationEnergyMission 135934.12226868
scalar OsgEarthNet.uav[87] utilizationEnergyMaintenance 67757.229263306
scalar OsgEarthNet.uav[87] utilizationEnergyCharge 203212.09765625
scalar OsgEarthNet.uav[87] utilizationEnergyOverdrawMission 0
scalar OsgEarthNet.uav[87] utilizationEnergyOverdrawMaintenance 0
scalar OsgEarthNet.uav[87] utilizationCountMissions 43
scalar OsgEarthNet.uav[87] utilizationCountManeuversMission 486
scalar OsgEarthNet.uav[87] utilizationCountManeuversMaintenance 86
scalar OsgEarthNet.uav[87] utilizationCountChargeState 43
scalar OsgEarthNet.uav[87] utilizationCountOverdrawnAfterMission 0
scalar OsgEarthNet.uav[87] utilizationCountIdleState 44
scalar OsgEarthNet.uav[87] utilizationFail 0
scalar OsgEarthNet.uav[87] simulationTime 259200
scalar OsgEarthNet.uav[88] utilizationSecMission 23178.960771434
scalar OsgEarthNet.uav[88] utilizationSecMaintenance 9061.7056788419
scalar OsgEarthNet.uav[88] utilizationSecCharge 115942.4735105
scalar OsgEarthNet.uav[88] utilizationSecIdle 111016.85903922
scalar OsgEarthNet.uav[88] utilizationEnergyMission 106673.30992126
scalar OsgEarthNet.uav[88] utilizationEnergyMaintenance 42479.630004883
scalar OsgEarthNet.uav[88] utilizationEnergyCharge 145362.73382568
scalar OsgEarthNet.uav[88] utilizationEnergyOverdrawMission 0
scalar OsgEarthNet.uav[88] utilizationEnergyOverdrawMaintenance 0
scalar OsgEarthNet.uav[88] utilizationCountMissions 32
scalar OsgEarthNet.uav[88] utilizationCountManeuversMission 365
scalar OsgEarthNet.uav[88] utilizationCountManeuversMaintenance 64
scalar OsgEarthNet.uav[88] utilizationCountChargeState 32
scalar OsgEarthNet.uav[88] utilizationCountOverdrawnAfterMission 0
scalar OsgEarthNet.uav[88] utilizationCountIdleState 32
scalar OsgEarthNet.uav[88] utilizationFail 0
scalar OsgEarthNet.uav[88] simulationTime 259200
scalar OsgEarthNet.uav[89] utilizationSecMission 25734.937594883
scalar OsgEarthNet.uav[89] utilizationSecMaintenance 14323.797245839
scalar OsgEarthNet.uav[89] utilizationSecCharge 146098.49818534
scalar OsgEarthNet.uav[89] utilizationSecIdle 73042.765973934
scalar OsgEarthNet.uav[89] utilizationEnergyMission 119517.72330475
scalar OsgEarthNet.uav[89] utilizationEnergyMaintenance 67376.486400604
scalar OsgEarthNet.uav[89] utilizationEnergyCharge 183331.42651367
scalar OsgEarthNet.uav[89] utilizationEnergyOverdrawMission 0
scalar OsgEarthNet.uav[89] utilizationEnergyOverdrawMaintenance 0
scalar OsgEarthNet.uav[89] utilizationCountMissions 40
scalar OsgEarthNet.uav[89] utilizationCountManeuversMission 426
scalar OsgEarthNet.uav[89] utilizationCountManeuversMaintenance 80
scalar OsgEarthNet.uav[89] utilizationCountChargeState 40
scalar OsgEarthNet.uav[89] utilizationCountOverdrawnAfterMission 0
scalar OsgEarthNet.uav[89] utilizationCountIdleState 40
scalar OsgEarthNet.uav[89] utilizationFail 0
scalar OsgEarthNet.uav[89] simulationTime 259200
scalar OsgEarthNet.uav[90] utilizationSecMission 3207.9085812207
scalar OsgEarthNet.uav[90] utilizationSecMaintenance 928.28109862584
scalar OsgEarthNet.uav[90] utilizationSecCharge 14980
scalar OsgEarthNet.uav[90] utilizationSecIdle 240083.80932015
scalar OsgEarthNet.uav[90] utilizationEnergyMission 14364.662460327
scalar OsgEarthNet.uav[90] utilizationEnergyMaintenance 4189.1258049011
scalar OsgEarthNet.uav[90] utilizationEnergyCharge 18804.912109375
scalar OsgEarthNet.uav[90] utilizationEnergyOverdrawMission 0
scalar OsgEarthNet.uav[90] utilizationEnergyOverdrawMaintenance 0
scalar OsgEarthNet.uav[90] utilizationCountMissions 4
scalar OsgEarthNet.uav[90] utilizationCountManeuversMission 48
scalar OsgEarthNet.uav[90] utilizationCountManeuversMaintenance 8
scalar OsgEarthNet.uav[90] utilizationCountChargeState 4
scalar OsgEarthNet.uav[90] utilizationCountOverdrawnAfterMission 0
scalar OsgEarthNet.uav[90] utilizationCountIdleState 5
scalar OsgEarthNet.uav[90] utilizationFail 0
scalar OsgEarthNet.uav[90] simulationTime 259200
scalar OsgEarthNet.uav[91] utilizationSecMission 24945.279164312
scalar OsgEarthNet.uav[91] utilizationSecMaintenance 8940.5087522533
scalar OsgEarthNet.uav[91] utilizationSecCharge 123650
scalar OsgEarthNet.uav[91] utilizationSecIdle 101664.21108343
scalar OsgEarthNet.uav[91] utilizationEnergyMission 116341.8572464
scalar OsgEarthNet.uav[91] utilizationEnergyMaintenance 40519.876552582
scalar OsgEarthNet.uav[91] utilizationEnergyCharge 155116.26953125
scalar OsgEarthNet.uav[91] utilizationEnergyOverdrawMission 0
scalar OsgEarthNet.uav[91] utilizationEnergyOverdrawMaintenance 0
scalar OsgEarthNet.uav[91] utilizationCountMissions 33
scalar OsgEarthNet.uav[91] utilizationCountManeuversMission 400
scalar OsgEarthNet.uav[91] utilizationCountManeuversMaintenance 66
scalar OsgEarthNet.uav[91] utilizationCountChargeState 33
scalar OsgEarthNet.uav[91] utilizationCountOverdrawnAfterMission 0
scalar OsgEarthNet.uav[91] utilizationCountIdleState 34
scalar OsgEarthNet.uav[91] utilizationFail 0
scalar OsgEarthNet.uav[91] simulationTime 259200
scalar OsgEarthNet.uav[92] utilizationSecMission 30245.071814085
scalar OsgEarthNet.uav[92] utilizationSecMaintenance 14338.891087146
scalar OsgEarthNet.uav[92] utilizationSecCharge 164510
scalar OsgEarthNet.uav[92] utilizationSecIdle 50106.036098769
scalar OsgEarthNet.uav[92] utilizationEnergyMission 139587.18530655
scalar OsgEarthNet.uav[92] utilizationEnergyMaintenance 67038.781752153
scalar OsgEarthNet.uav[92] utilizationEnergyCharge 206260.78125
scalar OsgEarthNet.uav[92] utilizationEnergyOverdrawMission 0
scalar OsgEarthNet.uav[92] utilizationEnergyOverdrawMaintenance 0
scalar OsgEarthNet.uav[92] utilizationCountMissions 44
scalar OsgEarthNet.uav[92] utilizationCountManeuversMission 495
scalar OsgEarthNet.uav[92] utilizationCountManeuversMaintenance 89
scalar OsgEarthNet.uav[92] utilizationCountChargeState 44
scalar OsgEarthNet.uav[92] utilizationCountOverdrawnAfterMission 0
scalar OsgEarthNet.uav[92] utilizationCountIdleState 45
scalar OsgEarthNet.uav[92] utilizationFail 0
scalar OsgEarthNet.uav[92] simulationTime 259200
scalar OsgEarthNet.uav[93] utilizationSecMission 30125.734547249
scalar OsgEarthNet.uav[93] utilizationSecMaintenance 13021.907835249
scalar OsgEarthNet.uav[93] utilizationSecCharge 160190
scalar OsgEarthNet.uav[93] utilizationSecIdle 55862.356617502
scalar OsgEarthNet.uav[93] utilizationEnergyMission 139795.87767792
scalar OsgEarthNet.uav[93] utilizationEnergyMaintenance 60914.746051788
scalar OsgEarthNet.uav[93] utilizationEnergyCharge 200509.51367188
scalar OsgEarthNet.uav[93] utilizationEnergyOverdrawMission 0
scalar OsgEarthNet.uav[93] utilizationEnergyOverdrawMaintenance 0
scalar OsgEarthNet.uav[93] utilizationCountMissions 43
scalar OsgEarthNet.uav[93] utilizationCountManeuversMission 488
scalar OsgEarthNet.uav[93] utilizationCountManeuversMaintenance 85
scalar OsgEarthNet.uav[93] utilizationCountChargeState 43
scalar OsgEarthNet.uav[93] utilizationCountOverdrawnAfterMission 0
scalar OsgEarthNet.uav[93] utilizationCountIdleState 44
scalar OsgEarthNet.uav[93] utilizationFail 0
scalar OsgEarthNet.uav[93] simulationTime 259200
scalar OsgEarthNet.uav[94] utilizationSecMission 25477.859196027
scalar OsgEarthNet.uav[94] utilizationSecMaintenance 12889.947110695
scalar OsgEarthNet.uav[94] utilizationSecCharge 142460
scalar OsgEarthNet.uav[94] utilizationSecIdle 78372.192693279
scalar OsgEarthNet.uav[94] utilizationEnergyMission 117073.51328278
scalar OsgEarthNet.uav[94] utilizationEnergyMaintenance 61404.758216858
scalar OsgEarthNet.uav[94] utilizationEnergyCharge 178777.59033203
scalar OsgEarthNet.uav[94] utilizationEnergyOverdrawMission 0
scalar OsgEarthNet.uav[94] utilizationEnergyOverdrawMaintenance 0
scalar OsgEarthNet.uav[94] utilizationCountMissions 38
scalar OsgEarthNet.uav[94] utilizationCountManeuversMission 415
scalar OsgEarthNet.uav[94] utilizationCountManeuversMaintenance 76
scalar OsgEarthNet.uav[94] utilizationCountChargeState 38
scalar OsgEarthNet.uav[94] utilizationCountOverdrawnAfterMission 0
scalar OsgEarthNet.uav[94] utilizationCountIdleState 39
scalar OsgEarthNet.uav[94] utilizationFail 0
scalar OsgEarthNet.uav[94] simulationTime 259200
scalar OsgEarthNet.uav[95] utilizationSecMission 25889.691306105
scalar OsgEarthNet.uav[95] utilizationSecMaintenance 11988.854735178
scalar OsgEarthNet.uav[95] utilizationSecCharge 137280
scalar OsgEarthNet.uav[95] utilizationSecIdle 84041.452958717
scalar OsgEarthNet.uav[95] utilizationEnergyMission 119014.97480011
scalar OsgEarthNet.uav[95] utilizationEnergyMaintenance 57454.592411045
scalar OsgEarthNet.uav[95] utilizationEnergyCharge 171739.53173828
scalar OsgEarthNet.uav[95] utilizationEnergyOverdrawMission 0
scalar OsgEarthNet.uav[95] utilizationEnergyOverdrawMaintenance 0
scalar OsgEarthNet.uav[95] utilizationCountMissions 38
scalar OsgEarthNet.uav[95] utilizationCountManeuversMission 418
scalar OsgEarthNet.uav[95] utilizationCountManeuversMaintenance 76
scalar OsgEarthNet.uav[95] utilizationCountChargeState 37
scalar OsgEarthNet.uav[95] utilizationCountOverdrawnAfterMission 0
scalar OsgEarthNet.uav[95] utilizationCountIdleState 38
scalar OsgEarthNet.uav[95] utilizationFail 0
scalar OsgEarthNet.uav[95] simulationTime 259200
scalar OsgEarthNet.uav[96] utilizationSecMission 3363.6969959809
scalar OsgEarthNet.uav[96] utilizationSecMaintenance 1638.7757912136
scalar OsgEarthNet.uav[96] utilizationSecCharge 18530
scalar OsgEarthNet.uav[96] utilizationSecIdle 235667.52621281
scalar OsgEarthNet.uav[96] utilizationEnergyMission 15626.14151001
scalar OsgEarthNet.uav[96] utilizationEnergyMaintenance 7582.6763687134
scalar OsgEarthNet.uav[96] utilizationEnergyCharge 23220.575683594
scalar OsgEarthNet.uav[96] utilizationEnergyOverdrawMission 0
scalar OsgEarthNet.uav[96] utilizationEnergyOverdrawMaintenance 0
scalar OsgEarthNet.uav[96] utilizationCountMissions 5
scalar OsgEarthNet.uav[96] utilizationCountManeuversMission 54
scalar OsgEarthNet.uav[96] utilizationCountManeuversMaintenance 10
scalar OsgEarthNet.uav[96] utilizationCountChargeState 5
scalar OsgEarthNet.uav[96] utilizationCountOverdrawnAfterMission 0
scalar OsgEarthNet.uav[96] utilizationCountIdleState 6
scalar OsgEarthNet.uav[96] utilizationFail 0
scalar OsgEarthNet.uav[96] simulationTime 259200
scalar OsgEarthNet.uav[97] utilizationSecMission 29392.466673127
scalar OsgEarthNet.uav[97] utilizationSecMaintenance 14269.54465458
scalar OsgEarthNet.uav[97] utilizationSecCharge 160313.28398216
scalar OsgEarthNet.uav[97] utilizationSecIdle 55224.703690128
scalar OsgEarthNet.uav[97] utilizationEnergyMission 136481.85677338
scalar OsgEarthNet.uav[97] utilizationEnergyMaintenance 66282.900909424
scalar OsgEarthNet.uav[97] utilizationEnergyCharge 202039.06958008
scalar OsgEarthNet.uav[97] utilizationEnergyOverdrawMission 0
scalar OsgEarthNet.uav[97] utilizationEnergyOverdrawMaintenance 0
scalar OsgEarthNet.uav[97] utilizationCountMissions 43
scalar OsgEarthNet.uav[97] utilizationCountManeuversMission 498
scalar OsgEarthNet.uav[97] utilizationCountManeuversMaintenance 86
scalar OsgEarthNet.uav[97] utilizationCountChargeState 43
scalar OsgEarthNet.uav[97] utilizationCountOverdrawnAfterMission 0
scalar OsgEarthNet.uav[97] utilizationCountIdleState 43
scalar OsgEarthNet.uav[97] utilizationFail 0
scalar OsgEarthNet.uav[97] simulationTime 259200
scalar OsgEarthNet.uav[98] utilizationSecMission 28626.833789091
scalar OsgEarthNet.uav[98] utilizationSecMaintenance 14427.810245492
scalar OsgEarthNet.uav[98] utilizationSecCharge 160560
scalar OsgEarthNet.uav[98] utilizationSecIdle 55585.354965417
scalar OsgEarthNet.uav[98] utilizationEnergyMission 133681.20890332
scalar OsgEarthNet.uav[98] utilizationEnergyMaintenance 67959.610095978
scalar OsgEarthNet.uav[98] utilizationEnergyCharge 201002.92529297
scalar OsgEarthNet.uav[98] utilizationEnergyOverdrawMission 0
scalar OsgEarthNet.uav[98] utilizationEnergyOverdrawMaintenance 0
scalar OsgEarthNet.uav[98] utilizationCountMissions 43
scalar OsgEarthNet.uav[98] utilizationCountManeuversMission 483
scalar OsgEarthNet.uav[98] utilizationCountManeuversMaintenance 85
scalar OsgEarthNet.uav[98] utilizationCountChargeState 43
scalar OsgEarthNet.uav[98] utilizationCountOverdrawnAfterMission 0
scalar OsgEarthNet.uav[98] utilizationCountIdleState 44
scalar OsgEarthNet.uav[98] utilizationFail 0
scalar OsgEarthNet.uav[98] simulationTime 259200
scalar OsgEarthNet.uav[99] utilizationSecMission 11023.238752079
scalar OsgEarthNet.uav[99] utilizationSecMaintenance 7064.7075368216
scalar OsgEarthNet.uav[99] utilizationSecCharge 67210
scalar OsgEarthNet.uav[99] utilizationSecIdle 173902.0527111
scalar OsgEarthNet.uav[99] utilizationEnergyMission 51166.395004272
scalar OsgEarthNet.uav[99] utilizationEnergyMaintenance 33001.053001404
scalar OsgEarthNet.uav[99] utilizationEnergyCharge 84185.402832031
scalar OsgEarthNet.uav[99] utilizationEnergyOverdrawMission 0
scalar OsgEarthNet.uav[99] utilizationEnergyOverdrawMaintenance 0
scalar OsgEarthNet.uav[99] utilizationCountMissions 18
scalar OsgEarthNet.uav[99] utilizationCountManeuversMission 189
scalar OsgEarthNet.uav[99] utilizationCountManeuversMaintenance 36
scalar OsgEarthNet.uav[99] utilizationCountChargeState 18
scalar OsgEarthNet.uav[99] utilizationCountOverdrawnAfterMission 0
scalar OsgEarthNet.uav[99] utilizationCountIdleState 19
scalar OsgEarthNet.uav[99] utilizationFail 0
scalar OsgEarthNet.uav[99] simulationTime 259200
scalar OsgEarthNet.cs[0] usedPower 554317.23825165
scalar OsgEarthNet.cs[0] chargedPower 554317.23825165
scalar OsgEarthNet.cs[0] chargedMobileNodes 118
scalar OsgEarthNet.cs[0] reservations 118
scalar OsgEarthNet.cs[1] usedPower 1052507.8587606
scalar OsgEarthNet.cs[1] chargedPower 1052507.8587606
scalar OsgEarthNet.cs[1] chargedMobileNodes 223
scalar OsgEarthNet.cs[1] reservations 226
scalar OsgEarthNet.cs[2] usedPower 2390678.1669799
scalar OsgEarthNet.cs[2] chargedPower 2390678.1669799
scalar OsgEarthNet.cs[2] chargedMobileNodes 502
scalar OsgEarthNet.cs[2] reservations 510
scalar OsgEarthNet.cs[3] usedPower 953344.65712462
scalar OsgEarthNet.cs[3] chargedPower 953344.65712462
scalar OsgEarthNet.cs[3] chargedMobileNodes 203
scalar OsgEarthNet.cs[3] reservations 205
scalar OsgEarthNet.cs[4] usedPower 716376.64076978
scalar OsgEarthNet.cs[4] chargedPower 716376.64076978
scalar OsgEarthNet.cs[4] chargedMobileNodes 152
scalar OsgEarthNet.cs[4] reservations 155
scalar OsgEarthNet.cs[5] usedPower 545518.61556351
scalar OsgEarthNet.cs[5] chargedPower 545518.61556351
scalar OsgEarthNet.cs[5] chargedMobileNodes 114
scalar OsgEarthNet.cs[5] reservations 115
scalar OsgEarthNet.cs[6] usedPower 2399697.3133035
scalar OsgEarthNet.cs[6] chargedPower 2399697.3133035
scalar OsgEarthNet.cs[6] chargedMobileNodes 508
scalar OsgEarthNet.cs[6] reservations 518

