version 2
run Szenario_Hotel_Gabelbach-25-20180709-00:17:46-27396
attr configname Szenario_Hotel_Gabelbach
attr datetime 20180709-00:17:46
attr experiment Szenario_Hotel_Gabelbach
attr inifile omnetpp.ini
attr iterationvars $replM=1
attr iterationvarsf replM=1-
attr measurement $replM=1
attr network OsgEarthNet
attr processid 27396
attr repetition 1
attr replication #1
attr resultdir results
attr runnumber 25
attr seedset 25
itervar replM 1
param *.osgEarthScene.scene "\"Szenario_Hotel_Gabelbach.earth\""
param *.playgroundLatitude 50.6830269
param *.playgroundLongitude 10.8538055
param *.playgroundWidth 3500m
param *.playgroundHeight 3500m
param *.numUAVs 100
param *.cs[0].posX 3537m
param *.cs[0].posY 965m
param *.cs[0].posZ 538m
param *.cs[1].posX 312m
param *.cs[1].posY 1262m
param *.cs[1].posZ 539m
param *.cs[2].posX 2185m
param *.cs[2].posY 3026m
param *.cs[2].posZ 777m
param *.cs[3].posX 10m
param *.cs[3].posY 2200m
param *.cs[3].posZ 560m
param *.cs[4].posX 750m
param *.cs[4].posY 200m
param *.cs[4].posZ 540m
param *.cs[5].posX 2450m
param *.cs[5].posY 180m
param *.cs[5].posZ 524m
param *.cs[6].posX 3140m
param *.cs[6].posY 1790m
param *.cs[6].posZ 606m
param *.numCSs 7
param *.uav[*].replacementMethod 1
param *.*.timeStep 10s
param *.uav[*].commandPreviewCommandCount 20
param *.missionControl.missionFiles "\"missions\\\\Szenario_WB_Hotel_Gabelbach_Mission_Hotel.waypoints,missions\\\\Szenario_WB_Hotel_Gabelbach_Mission_Kickelhahn.waypoints,missions\\\\Szenario_WB_Hotel_Gabelbach_Mission_Ilmenau_Sportplatz.waypoints,missions\\\\Szenario_WB_Hotel_Gabelbach_Mission_Manebach_Mitte.waypoints,missions\\\\Szenario_WB_Hotel_Gabelbach_Mission_Manebach_Sued.waypoints\""
param *.missionControl.missionFiles "\"missions\\\\Szenario_WB_Hotel_Gabelbach_Mission_Hotel.waypoints,missions\\\\Szenario_WB_Hotel_Gabelbach_Mission_Kickelhahn.waypoints,missions\\\\Szenario_WB_Hotel_Gabelbach_Mission_Ilmenau_Sportplatz.waypoints,missions\\\\Szenario_WB_Hotel_Gabelbach_Mission_Manebach_Mitte.waypoints,missions\\\\Szenario_WB_Hotel_Gabelbach_Mission_Manebach_Sued.waypoints,missions\\\\Szenario_WB_Hotel_Gabelbach_Hover_HoheSchlaufe.waypoints,missions\\\\Szenario_WB_Hotel_Gabelbach_Hover_Kickelhahn.waypoints,missions\\\\Szenario_WB_Hotel_Gabelbach_Hover_Gabelbachskopf.waypoints,missions\\\\Szenario_WB_Hotel_Gabelbach_Hover_Dachskopf.waypoints\""
param *.uav[0].startX 3537m
param *.uav[0].startY 965m
param *.uav[0].startZ 539m
param *.uav[1].startX 312m
param *.uav[1].startY 1262m
param *.uav[1].startZ 540m
param *.uav[2].startX 2185m
param *.uav[2].startY 3026m
param *.uav[2].startZ 778m
param *.uav[3].startX 3537m
param *.uav[3].startY 965m
param *.uav[3].startZ 539m
param *.uav[4].startX 312m
param *.uav[4].startY 1262m
param *.uav[4].startZ 540m
param *.uav[5].startX 2185m
param *.uav[5].startY 3026m
param *.uav[5].startZ 778m
param *.uav[6].startX 3537m
param *.uav[6].startY 965m
param *.uav[6].startZ 539m
param *.uav[7].startX 312m
param *.uav[7].startY 1262m
param *.uav[7].startZ 540m
param *.uav[8].startX 2185m
param *.uav[8].startY 3026m
param *.uav[8].startZ 778m
param *.uav[9].startX 3537m
param *.uav[9].startY 965m
param *.uav[9].startZ 539m
param *.uav[10].startX 3537m
param *.uav[10].startY 965m
param *.uav[10].startZ 539m
param *.uav[11].startX 312m
param *.uav[11].startY 1262m
param *.uav[11].startZ 540m
param *.uav[12].startX 2185m
param *.uav[12].startY 3026m
param *.uav[12].startZ 778m
param *.uav[13].startX 3537m
param *.uav[13].startY 965m
param *.uav[13].startZ 539m
param *.uav[14].startX 312m
param *.uav[14].startY 1262m
param *.uav[14].startZ 540m
param *.uav[15].startX 2185m
param *.uav[15].startY 3026m
param *.uav[15].startZ 778m
param *.uav[16].startX 3537m
param *.uav[16].startY 965m
param *.uav[16].startZ 539m
param *.uav[17].startX 312m
param *.uav[17].startY 1262m
param *.uav[17].startZ 540m
param *.uav[18].startX 2185m
param *.uav[18].startY 3026m
param *.uav[18].startZ 778m
param *.uav[19].startX 3537m
param *.uav[19].startY 965m
param *.uav[19].startZ 539m
param *.uav[20].startX 3537m
param *.uav[20].startY 965m
param *.uav[20].startZ 539m
param *.uav[21].startX 312m
param *.uav[21].startY 1262m
param *.uav[21].startZ 540m
param *.uav[22].startX 2185m
param *.uav[22].startY 3026m
param *.uav[22].startZ 778m
param *.uav[23].startX 3537m
param *.uav[23].startY 965m
param *.uav[23].startZ 539m
param *.uav[24].startX 312m
param *.uav[24].startY 1262m
param *.uav[24].startZ 540m
param *.uav[25].startX 2185m
param *.uav[25].startY 3026m
param *.uav[25].startZ 778m
param *.uav[26].startX 3537m
param *.uav[26].startY 965m
param *.uav[26].startZ 539m
param *.uav[27].startX 312m
param *.uav[27].startY 1262m
param *.uav[27].startZ 540m
param *.uav[28].startX 2185m
param *.uav[28].startY 3026m
param *.uav[28].startZ 778m
param *.uav[29].startX 3537m
param *.uav[29].startY 965m
param *.uav[29].startZ 539m
param *.uav[30].startX 3537m
param *.uav[30].startY 965m
param *.uav[30].startZ 539m
param *.uav[31].startX 312m
param *.uav[31].startY 1262m
param *.uav[31].startZ 540m
param *.uav[32].startX 2185m
param *.uav[32].startY 3026m
param *.uav[32].startZ 778m
param *.uav[33].startX 3537m
param *.uav[33].startY 965m
param *.uav[33].startZ 539m
param *.uav[34].startX 312m
param *.uav[34].startY 1262m
param *.uav[34].startZ 540m
param *.uav[35].startX 2185m
param *.uav[35].startY 3026m
param *.uav[35].startZ 778m
param *.uav[36].startX 3537m
param *.uav[36].startY 965m
param *.uav[36].startZ 539m
param *.uav[37].startX 312m
param *.uav[37].startY 1262m
param *.uav[37].startZ 540m
param *.uav[38].startX 2185m
param *.uav[38].startY 3026m
param *.uav[38].startZ 778m
param *.uav[39].startX 3537m
param *.uav[39].startY 965m
param *.uav[39].startZ 539m
param *.uav[40].startX 3537m
param *.uav[40].startY 965m
param *.uav[40].startZ 539m
param *.uav[41].startX 312m
param *.uav[41].startY 1262m
param *.uav[41].startZ 540m
param *.uav[42].startX 2185m
param *.uav[42].startY 3026m
param *.uav[42].startZ 778m
param *.uav[43].startX 3537m
param *.uav[43].startY 965m
param *.uav[43].startZ 539m
param *.uav[44].startX 312m
param *.uav[44].startY 1262m
param *.uav[44].startZ 540m
param *.uav[45].startX 2185m
param *.uav[45].startY 3026m
param *.uav[45].startZ 778m
param *.uav[46].startX 3537m
param *.uav[46].startY 965m
param *.uav[46].startZ 539m
param *.uav[47].startX 312m
param *.uav[47].startY 1262m
param *.uav[47].startZ 540m
param *.uav[48].startX 2185m
param *.uav[48].startY 3026m
param *.uav[48].startZ 778m
param *.uav[49].startX 3537m
param *.uav[49].startY 965m
param *.uav[49].startZ 539m
param *.uav[50].startX 3537m
param *.uav[50].startY 965m
param *.uav[50].startZ 539m
param *.uav[51].startX 312m
param *.uav[51].startY 1262m
param *.uav[51].startZ 540m
param *.uav[52].startX 2185m
param *.uav[52].startY 3026m
param *.uav[52].startZ 778m
param *.uav[53].startX 3537m
param *.uav[53].startY 965m
param *.uav[53].startZ 539m
param *.uav[54].startX 312m
param *.uav[54].startY 1262m
param *.uav[54].startZ 540m
param *.uav[55].startX 2185m
param *.uav[55].startY 3026m
param *.uav[55].startZ 778m
param *.uav[56].startX 3537m
param *.uav[56].startY 965m
param *.uav[56].startZ 539m
param *.uav[57].startX 312m
param *.uav[57].startY 1262m
param *.uav[57].startZ 540m
param *.uav[58].startX 2185m
param *.uav[58].startY 3026m
param *.uav[58].startZ 778m
param *.uav[59].startX 3537m
param *.uav[59].startY 965m
param *.uav[59].startZ 539m
param *.uav[60].startX 3537m
param *.uav[60].startY 965m
param *.uav[60].startZ 539m
param *.uav[61].startX 312m
param *.uav[61].startY 1262m
param *.uav[61].startZ 540m
param *.uav[62].startX 2185m
param *.uav[62].startY 3026m
param *.uav[62].startZ 778m
param *.uav[63].startX 3537m
param *.uav[63].startY 965m
param *.uav[63].startZ 539m
param *.uav[64].startX 312m
param *.uav[64].startY 1262m
param *.uav[64].startZ 540m
param *.uav[65].startX 2185m
param *.uav[65].startY 3026m
param *.uav[65].startZ 778m
param *.uav[66].startX 3537m
param *.uav[66].startY 965m
param *.uav[66].startZ 539m
param *.uav[67].startX 312m
param *.uav[67].startY 1262m
param *.uav[67].startZ 540m
param *.uav[68].startX 2185m
param *.uav[68].startY 3026m
param *.uav[68].startZ 778m
param *.uav[69].startX 3537m
param *.uav[69].startY 965m
param *.uav[69].startZ 539m
param *.uav[70].startX 3537m
param *.uav[70].startY 965m
param *.uav[70].startZ 539m
param *.uav[71].startX 312m
param *.uav[71].startY 1262m
param *.uav[71].startZ 540m
param *.uav[72].startX 2185m
param *.uav[72].startY 3026m
param *.uav[72].startZ 778m
param *.uav[73].startX 3537m
param *.uav[73].startY 965m
param *.uav[73].startZ 539m
param *.uav[74].startX 312m
param *.uav[74].startY 1262m
param *.uav[74].startZ 540m
param *.uav[75].startX 2185m
param *.uav[75].startY 3026m
param *.uav[75].startZ 778m
param *.uav[76].startX 3537m
param *.uav[76].startY 965m
param *.uav[76].startZ 539m
param *.uav[77].startX 312m
param *.uav[77].startY 1262m
param *.uav[77].startZ 540m
param *.uav[78].startX 2185m
param *.uav[78].startY 3026m
param *.uav[78].startZ 778m
param *.uav[79].startX 3537m
param *.uav[79].startY 965m
param *.uav[79].startZ 539m
param *.uav[80].startX 3537m
param *.uav[80].startY 965m
param *.uav[80].startZ 539m
param *.uav[81].startX 312m
param *.uav[81].startY 1262m
param *.uav[81].startZ 540m
param *.uav[82].startX 2185m
param *.uav[82].startY 3026m
param *.uav[82].startZ 778m
param *.uav[83].startX 3537m
param *.uav[83].startY 965m
param *.uav[83].startZ 539m
param *.uav[84].startX 312m
param *.uav[84].startY 1262m
param *.uav[84].startZ 540m
param *.uav[85].startX 2185m
param *.uav[85].startY 3026m
param *.uav[85].startZ 778m
param *.uav[86].startX 3537m
param *.uav[86].startY 965m
param *.uav[86].startZ 539m
param *.uav[87].startX 312m
param *.uav[87].startY 1262m
param *.uav[87].startZ 540m
param *.uav[88].startX 2185m
param *.uav[88].startY 3026m
param *.uav[88].startZ 778m
param *.uav[89].startX 3537m
param *.uav[89].startY 965m
param *.uav[89].startZ 539m
param *.uav[90].startX 3537m
param *.uav[90].startY 965m
param *.uav[90].startZ 539m
param *.uav[91].startX 312m
param *.uav[91].startY 1262m
param *.uav[91].startZ 540m
param *.uav[92].startX 2185m
param *.uav[92].startY 3026m
param *.uav[92].startZ 778m
param *.uav[93].startX 3537m
param *.uav[93].startY 965m
param *.uav[93].startZ 539m
param *.uav[94].startX 312m
param *.uav[94].startY 1262m
param *.uav[94].startZ 540m
param *.uav[95].startX 2185m
param *.uav[95].startY 3026m
param *.uav[95].startZ 778m
param *.uav[96].startX 3537m
param *.uav[96].startY 965m
param *.uav[96].startZ 539m
param *.uav[97].startX 312m
param *.uav[97].startY 1262m
param *.uav[97].startZ 540m
param *.uav[98].startX 2185m
param *.uav[98].startY 3026m
param *.uav[98].startZ 778m
param *.uav[99].startX 3537m
param *.uav[99].startY 965m
param *.uav[99].startZ 539m
param *.osgEarthScene.scene "\"boston.earth\""
param *.playgroundLatitude 42.3558
param *.playgroundLongitude -71.0677
param *.playgroundWidth 400m
param *.playgroundHeight 200m
param *.channelController.connectionColor "\"#0000FF40\""
param *.channelController.showConnections false
param *.uav[*].modelURL "\"quadrocopter.small.obj.15.scale.0,0,90.rot\""
param *.uav[*].labelColor "\"#FF7C00CC\""
param *.uav[*].label2Color "\"#FF7C00EE\""
param *.uav[*].batteryCapacity 5200mAh
param *.uav[*].batteryRemaining uav[index].batteryCapacity
param *.uav[*].predictionQuantile 0.95
param *.uav[*].replacementMethod 2
param *.uav[*].weightedSumWeight 0.5
param *.cs[*].modelURL "\"chargingstation_v1.osgt.2.scale.0,0,0.rot.0,0,-15e-1.trans\""
param *.cs[*].spotsWaiting 999
param *.cs[*].spotsCharging 999
param *.cs[*].chargeEffectivenessPercentage 100
param *.cs[*].nonLinearPhaseStartPercentage 85
param *.cs[*].chargeCurrent 6.0A
param *.cs[*].prioritizeFastCharge true
param *.missionControl.replacementSearchMethod 0
param *.*.timeStep 9s

scalar OsgEarthNet.uav[0] utilizationSecMission 443.5870541303
scalar OsgEarthNet.uav[0] utilizationSecMaintenance 425.80795651079
scalar OsgEarthNet.uav[0] utilizationSecCharge 3210
scalar OsgEarthNet.uav[0] utilizationSecIdle 255120.60398936
scalar OsgEarthNet.uav[0] utilizationEnergyMission 1812.8790283203
scalar OsgEarthNet.uav[0] utilizationEnergyMaintenance 1906.4309501648
scalar OsgEarthNet.uav[0] utilizationEnergyCharge 3829.2390136719
scalar OsgEarthNet.uav[0] utilizationEnergyOverdrawMission 0
scalar OsgEarthNet.uav[0] utilizationEnergyOverdrawMaintenance 0
scalar OsgEarthNet.uav[0] utilizationCountMissions 1
scalar OsgEarthNet.uav[0] utilizationCountManeuversMission 7
scalar OsgEarthNet.uav[0] utilizationCountManeuversMaintenance 2
scalar OsgEarthNet.uav[0] utilizationCountChargeState 1
scalar OsgEarthNet.uav[0] utilizationCountOverdrawnAfterMission 0
scalar OsgEarthNet.uav[0] utilizationCountIdleState 2
scalar OsgEarthNet.uav[0] utilizationFail 0
scalar OsgEarthNet.uav[0] simulationTime 259200
scalar OsgEarthNet.uav[1] utilizationSecMission 23.329233930829
scalar OsgEarthNet.uav[1] utilizationSecMaintenance 476.50021886036
scalar OsgEarthNet.uav[1] utilizationSecCharge 2520
scalar OsgEarthNet.uav[1] utilizationSecIdle 256180.16954721
scalar OsgEarthNet.uav[1] utilizationEnergyMission 125.77983856201
scalar OsgEarthNet.uav[1] utilizationEnergyMaintenance 2449.9720993042
scalar OsgEarthNet.uav[1] utilizationEnergyCharge 2575.7514648438
scalar OsgEarthNet.uav[1] utilizationEnergyOverdrawMission 0
scalar OsgEarthNet.uav[1] utilizationEnergyOverdrawMaintenance 0
scalar OsgEarthNet.uav[1] utilizationCountMissions 1
scalar OsgEarthNet.uav[1] utilizationCountManeuversMission 1
scalar OsgEarthNet.uav[1] utilizationCountManeuversMaintenance 2
scalar OsgEarthNet.uav[1] utilizationCountChargeState 1
scalar OsgEarthNet.uav[1] utilizationCountOverdrawnAfterMission 0
scalar OsgEarthNet.uav[1] utilizationCountIdleState 2
scalar OsgEarthNet.uav[1] utilizationFail 0
scalar OsgEarthNet.uav[1] simulationTime 259200
scalar OsgEarthNet.uav[2] utilizationSecMission 25835.069958588
scalar OsgEarthNet.uav[2] utilizationSecMaintenance 12545.728942393
scalar OsgEarthNet.uav[2] utilizationSecCharge 147362.34006017
scalar OsgEarthNet.uav[2] utilizationSecIdle 73456.860038846
scalar OsgEarthNet.uav[2] utilizationEnergyMission 119986.35062408
scalar OsgEarthNet.uav[2] utilizationEnergyMaintenance 57901.103279114
scalar OsgEarthNet.uav[2] utilizationEnergyCharge 175520.29199219
scalar OsgEarthNet.uav[2] utilizationEnergyOverdrawMission 0
scalar OsgEarthNet.uav[2] utilizationEnergyOverdrawMaintenance 0
scalar OsgEarthNet.uav[2] utilizationCountMissions 47
scalar OsgEarthNet.uav[2] utilizationCountManeuversMission 424
scalar OsgEarthNet.uav[2] utilizationCountManeuversMaintenance 94
scalar OsgEarthNet.uav[2] utilizationCountChargeState 47
scalar OsgEarthNet.uav[2] utilizationCountOverdrawnAfterMission 0
scalar OsgEarthNet.uav[2] utilizationCountIdleState 47
scalar OsgEarthNet.uav[2] utilizationFail 0
scalar OsgEarthNet.uav[2] simulationTime 259200
scalar OsgEarthNet.uav[3] utilizationSecMission 15185.936072041
scalar OsgEarthNet.uav[3] utilizationSecMaintenance 8913.005199644
scalar OsgEarthNet.uav[3] utilizationSecCharge 97300
scalar OsgEarthNet.uav[3] utilizationSecIdle 137801.05772831
scalar OsgEarthNet.uav[3] utilizationEnergyMission 70454.89087677
scalar OsgEarthNet.uav[3] utilizationEnergyMaintenance 42255.146209717
scalar OsgEarthNet.uav[3] utilizationEnergyCharge 112880.38623047
scalar OsgEarthNet.uav[3] utilizationEnergyOverdrawMission 0
scalar OsgEarthNet.uav[3] utilizationEnergyOverdrawMaintenance 0
scalar OsgEarthNet.uav[3] utilizationCountMissions 32
scalar OsgEarthNet.uav[3] utilizationCountManeuversMission 249
scalar OsgEarthNet.uav[3] utilizationCountManeuversMaintenance 64
scalar OsgEarthNet.uav[3] utilizationCountChargeState 32
scalar OsgEarthNet.uav[3] utilizationCountOverdrawnAfterMission 0
scalar OsgEarthNet.uav[3] utilizationCountIdleState 33
scalar OsgEarthNet.uav[3] utilizationFail 0
scalar OsgEarthNet.uav[3] simulationTime 259200
scalar OsgEarthNet.uav[4] utilizationSecMission 23.329233930829
scalar OsgEarthNet.uav[4] utilizationSecMaintenance 636.50021886036
scalar OsgEarthNet.uav[4] utilizationSecCharge 2930
scalar OsgEarthNet.uav[4] utilizationSecIdle 255610.16954721
scalar OsgEarthNet.uav[4] utilizationEnergyMission 101.70910644531
scalar OsgEarthNet.uav[4] utilizationEnergyMaintenance 3175.9189376831
scalar OsgEarthNet.uav[4] utilizationEnergyCharge 3277.6318359375
scalar OsgEarthNet.uav[4] utilizationEnergyOverdrawMission 0
scalar OsgEarthNet.uav[4] utilizationEnergyOverdrawMaintenance 0
scalar OsgEarthNet.uav[4] utilizationCountMissions 1
scalar OsgEarthNet.uav[4] utilizationCountManeuversMission 1
scalar OsgEarthNet.uav[4] utilizationCountManeuversMaintenance 2
scalar OsgEarthNet.uav[4] utilizationCountChargeState 1
scalar OsgEarthNet.uav[4] utilizationCountOverdrawnAfterMission 0
scalar OsgEarthNet.uav[4] utilizationCountIdleState 2
scalar OsgEarthNet.uav[4] utilizationFail 0
scalar OsgEarthNet.uav[4] simulationTime 259200
scalar OsgEarthNet.uav[5] utilizationSecMission 570.98871244881
scalar OsgEarthNet.uav[5] utilizationSecMaintenance 295.50253239167
scalar OsgEarthNet.uav[5] utilizationSecCharge 3450
scalar OsgEarthNet.uav[5] utilizationSecIdle 254883.50775516
scalar OsgEarthNet.uav[5] utilizationEnergyMission 2952.2688598633
scalar OsgEarthNet.uav[5] utilizationEnergyMaintenance 1215.8776664734
scalar OsgEarthNet.uav[5] utilizationEnergyCharge 4168.142578125
scalar OsgEarthNet.uav[5] utilizationEnergyOverdrawMission 0
scalar OsgEarthNet.uav[5] utilizationEnergyOverdrawMaintenance 0
scalar OsgEarthNet.uav[5] utilizationCountMissions 1
scalar OsgEarthNet.uav[5] utilizationCountManeuversMission 8
scalar OsgEarthNet.uav[5] utilizationCountManeuversMaintenance 2
scalar OsgEarthNet.uav[5] utilizationCountChargeState 1
scalar OsgEarthNet.uav[5] utilizationCountOverdrawnAfterMission 0
scalar OsgEarthNet.uav[5] utilizationCountIdleState 2
scalar OsgEarthNet.uav[5] utilizationFail 0
scalar OsgEarthNet.uav[5] simulationTime 259200
scalar OsgEarthNet.uav[6] utilizationSecMission 443.5870541303
scalar OsgEarthNet.uav[6] utilizationSecMaintenance 425.80795651079
scalar OsgEarthNet.uav[6] utilizationSecCharge 3280
scalar OsgEarthNet.uav[6] utilizationSecIdle 255050.60398936
scalar OsgEarthNet.uav[6] utilizationEnergyMission 2008.8662567139
scalar OsgEarthNet.uav[6] utilizationEnergyMaintenance 1984.1636314392
scalar OsgEarthNet.uav[6] utilizationEnergyCharge 3952.3623046875
scalar OsgEarthNet.uav[6] utilizationEnergyOverdrawMission 0
scalar OsgEarthNet.uav[6] utilizationEnergyOverdrawMaintenance 0
scalar OsgEarthNet.uav[6] utilizationCountMissions 1
scalar OsgEarthNet.uav[6] utilizationCountManeuversMission 7
scalar OsgEarthNet.uav[6] utilizationCountManeuversMaintenance 2
scalar OsgEarthNet.uav[6] utilizationCountChargeState 1
scalar OsgEarthNet.uav[6] utilizationCountOverdrawnAfterMission 0
scalar OsgEarthNet.uav[6] utilizationCountIdleState 2
scalar OsgEarthNet.uav[6] utilizationFail 0
scalar OsgEarthNet.uav[6] simulationTime 259200
scalar OsgEarthNet.uav[7] utilizationSecMission 30145.399367445
scalar OsgEarthNet.uav[7] utilizationSecMaintenance 13036.598658564
scalar OsgEarthNet.uav[7] utilizationSecCharge 168215.99946727
scalar OsgEarthNet.uav[7] utilizationSecIdle 47802.001506722
scalar OsgEarthNet.uav[7] utilizationEnergyMission 141307.67125702
scalar OsgEarthNet.uav[7] utilizationEnergyMaintenance 61504.451488495
scalar OsgEarthNet.uav[7] utilizationEnergyCharge 201361.55957031
scalar OsgEarthNet.uav[7] utilizationEnergyOverdrawMission 0
scalar OsgEarthNet.uav[7] utilizationEnergyOverdrawMaintenance 0
scalar OsgEarthNet.uav[7] utilizationCountMissions 53
scalar OsgEarthNet.uav[7] utilizationCountManeuversMission 498
scalar OsgEarthNet.uav[7] utilizationCountManeuversMaintenance 106
scalar OsgEarthNet.uav[7] utilizationCountChargeState 53
scalar OsgEarthNet.uav[7] utilizationCountOverdrawnAfterMission 0
scalar OsgEarthNet.uav[7] utilizationCountIdleState 53
scalar OsgEarthNet.uav[7] utilizationFail 0
scalar OsgEarthNet.uav[7] simulationTime 259200
scalar OsgEarthNet.uav[8] utilizationSecMission 21462.168983842
scalar OsgEarthNet.uav[8] utilizationSecMaintenance 12648.851225635
scalar OsgEarthNet.uav[8] utilizationSecCharge 135546.14325721
scalar OsgEarthNet.uav[8] utilizationSecIdle 89542.835533309
scalar OsgEarthNet.uav[8] utilizationEnergyMission 99550.602729797
scalar OsgEarthNet.uav[8] utilizationEnergyMaintenance 59906.829696655
scalar OsgEarthNet.uav[8] utilizationEnergyCharge 156693.43798828
scalar OsgEarthNet.uav[8] utilizationEnergyOverdrawMission 0
scalar OsgEarthNet.uav[8] utilizationEnergyOverdrawMaintenance 0
scalar OsgEarthNet.uav[8] utilizationCountMissions 46
scalar OsgEarthNet.uav[8] utilizationCountManeuversMission 351
scalar OsgEarthNet.uav[8] utilizationCountManeuversMaintenance 92
scalar OsgEarthNet.uav[8] utilizationCountChargeState 46
scalar OsgEarthNet.uav[8] utilizationCountOverdrawnAfterMission 0
scalar OsgEarthNet.uav[8] utilizationCountIdleState 46
scalar OsgEarthNet.uav[8] utilizationFail 0
scalar OsgEarthNet.uav[8] simulationTime 259200
scalar OsgEarthNet.uav[9] utilizationSecMission 28626.431524211
scalar OsgEarthNet.uav[9] utilizationSecMaintenance 13037.840837311
scalar OsgEarthNet.uav[9] utilizationSecCharge 163450
scalar OsgEarthNet.uav[9] utilizationSecIdle 54085.726638478
scalar OsgEarthNet.uav[9] utilizationEnergyMission 134036.06891632
scalar OsgEarthNet.uav[9] utilizationEnergyMaintenance 61834.166545868
scalar OsgEarthNet.uav[9] utilizationEnergyCharge 194720.90014648
scalar OsgEarthNet.uav[9] utilizationEnergyOverdrawMission 0
scalar OsgEarthNet.uav[9] utilizationEnergyOverdrawMaintenance 0
scalar OsgEarthNet.uav[9] utilizationCountMissions 51
scalar OsgEarthNet.uav[9] utilizationCountManeuversMission 469
scalar OsgEarthNet.uav[9] utilizationCountManeuversMaintenance 102
scalar OsgEarthNet.uav[9] utilizationCountChargeState 51
scalar OsgEarthNet.uav[9] utilizationCountOverdrawnAfterMission 0
scalar OsgEarthNet.uav[9] utilizationCountIdleState 52
scalar OsgEarthNet.uav[9] utilizationFail 0
scalar OsgEarthNet.uav[9] simulationTime 259200
scalar OsgEarthNet.uav[10] utilizationSecMission 443.5870541303
scalar OsgEarthNet.uav[10] utilizationSecMaintenance 425.80795651079
scalar OsgEarthNet.uav[10] utilizationSecCharge 3370
scalar OsgEarthNet.uav[10] utilizationSecIdle 254960.60398936
scalar OsgEarthNet.uav[10] utilizationEnergyMission 2065.9177246094
scalar OsgEarthNet.uav[10] utilizationEnergyMaintenance 2076.873134613
scalar OsgEarthNet.uav[10] utilizationEnergyCharge 4015.8793945312
scalar OsgEarthNet.uav[10] utilizationEnergyOverdrawMission 0
scalar OsgEarthNet.uav[10] utilizationEnergyOverdrawMaintenance 0
scalar OsgEarthNet.uav[10] utilizationCountMissions 1
scalar OsgEarthNet.uav[10] utilizationCountManeuversMission 7
scalar OsgEarthNet.uav[10] utilizationCountManeuversMaintenance 2
scalar OsgEarthNet.uav[10] utilizationCountChargeState 1
scalar OsgEarthNet.uav[10] utilizationCountOverdrawnAfterMission 0
scalar OsgEarthNet.uav[10] utilizationCountIdleState 2
scalar OsgEarthNet.uav[10] utilizationFail 0
scalar OsgEarthNet.uav[10] simulationTime 259200
scalar OsgEarthNet.uav[11] utilizationSecMission 25325.167791473
scalar OsgEarthNet.uav[11] utilizationSecMaintenance 12945.206219993
scalar OsgEarthNet.uav[11] utilizationSecCharge 149394.9192895
scalar OsgEarthNet.uav[11] utilizationSecIdle 71534.705699036
scalar OsgEarthNet.uav[11] utilizationEnergyMission 117943.48521423
scalar OsgEarthNet.uav[11] utilizationEnergyMaintenance 60871.405929565
scalar OsgEarthNet.uav[11] utilizationEnergyCharge 175687.85620117
scalar OsgEarthNet.uav[11] utilizationEnergyOverdrawMission 0
scalar OsgEarthNet.uav[11] utilizationEnergyOverdrawMaintenance 0
scalar OsgEarthNet.uav[11] utilizationCountMissions 49
scalar OsgEarthNet.uav[11] utilizationCountManeuversMission 421
scalar OsgEarthNet.uav[11] utilizationCountManeuversMaintenance 98
scalar OsgEarthNet.uav[11] utilizationCountChargeState 49
scalar OsgEarthNet.uav[11] utilizationCountOverdrawnAfterMission 0
scalar OsgEarthNet.uav[11] utilizationCountIdleState 49
scalar OsgEarthNet.uav[11] utilizationFail 0
scalar OsgEarthNet.uav[11] simulationTime 259200
scalar OsgEarthNet.uav[12] utilizationSecMission 6746.651581635
scalar OsgEarthNet.uav[12] utilizationSecMaintenance 3752.9665659854
scalar OsgEarthNet.uav[12] utilizationSecCharge 42360
scalar OsgEarthNet.uav[12] utilizationSecIdle 206340.38085238
scalar OsgEarthNet.uav[12] utilizationEnergyMission 31748.20136261
scalar OsgEarthNet.uav[12] utilizationEnergyMaintenance 17917.848457336
scalar OsgEarthNet.uav[12] utilizationEnergyCharge 49306.587646484
scalar OsgEarthNet.uav[12] utilizationEnergyOverdrawMission 0
scalar OsgEarthNet.uav[12] utilizationEnergyOverdrawMaintenance 0
scalar OsgEarthNet.uav[12] utilizationCountMissions 14
scalar OsgEarthNet.uav[12] utilizationCountManeuversMission 108
scalar OsgEarthNet.uav[12] utilizationCountManeuversMaintenance 28
scalar OsgEarthNet.uav[12] utilizationCountChargeState 14
scalar OsgEarthNet.uav[12] utilizationCountOverdrawnAfterMission 0
scalar OsgEarthNet.uav[12] utilizationCountIdleState 15
scalar OsgEarthNet.uav[12] utilizationFail 0
scalar OsgEarthNet.uav[12] simulationTime 259200
scalar OsgEarthNet.uav[13] utilizationSecMission 332.13845170574
scalar OsgEarthNet.uav[13] utilizationSecMaintenance 371.50440930603
scalar OsgEarthNet.uav[13] utilizationSecCharge 2880
scalar OsgEarthNet.uav[13] utilizationSecIdle 255616.35613899
scalar OsgEarthNet.uav[13] utilizationEnergyMission 1513.6088104248
scalar OsgEarthNet.uav[13] utilizationEnergyMaintenance 1775.4540023804
scalar OsgEarthNet.uav[13] utilizationEnergyCharge 3289.068359375
scalar OsgEarthNet.uav[13] utilizationEnergyOverdrawMission 0
scalar OsgEarthNet.uav[13] utilizationEnergyOverdrawMaintenance 0
scalar OsgEarthNet.uav[13] utilizationCountMissions 1
scalar OsgEarthNet.uav[13] utilizationCountManeuversMission 5
scalar OsgEarthNet.uav[13] utilizationCountManeuversMaintenance 2
scalar OsgEarthNet.uav[13] utilizationCountChargeState 1
scalar OsgEarthNet.uav[13] utilizationCountOverdrawnAfterMission 0
scalar OsgEarthNet.uav[13] utilizationCountIdleState 2
scalar OsgEarthNet.uav[13] utilizationFail 0
scalar OsgEarthNet.uav[13] simulationTime 259200
scalar OsgEarthNet.uav[14] utilizationSecMission 10915.525856179
scalar OsgEarthNet.uav[14] utilizationSecMaintenance 6529.9395250262
scalar OsgEarthNet.uav[14] utilizationSecCharge 70930
scalar OsgEarthNet.uav[14] utilizationSecIdle 170824.5336188
scalar OsgEarthNet.uav[14] utilizationEnergyMission 50387.137710571
scalar OsgEarthNet.uav[14] utilizationEnergyMaintenance 30867.473651886
scalar OsgEarthNet.uav[14] utilizationEnergyCharge 81309.344970703
scalar OsgEarthNet.uav[14] utilizationEnergyOverdrawMission 0
scalar OsgEarthNet.uav[14] utilizationEnergyOverdrawMaintenance 0
scalar OsgEarthNet.uav[14] utilizationCountMissions 24
scalar OsgEarthNet.uav[14] utilizationCountManeuversMission 179
scalar OsgEarthNet.uav[14] utilizationCountManeuversMaintenance 48
scalar OsgEarthNet.uav[14] utilizationCountChargeState 24
scalar OsgEarthNet.uav[14] utilizationCountOverdrawnAfterMission 0
scalar OsgEarthNet.uav[14] utilizationCountIdleState 25
scalar OsgEarthNet.uav[14] utilizationFail 0
scalar OsgEarthNet.uav[14] simulationTime 259200
scalar OsgEarthNet.uav[15] utilizationSecMission 694.00169469977
scalar OsgEarthNet.uav[15] utilizationSecMaintenance 229.48898285212
scalar OsgEarthNet.uav[15] utilizationSecCharge 3530
scalar OsgEarthNet.uav[15] utilizationSecIdle 254746.50832245
scalar OsgEarthNet.uav[15] utilizationEnergyMission 3207.2430038452
scalar OsgEarthNet.uav[15] utilizationEnergyMaintenance 1053.7103500366
scalar OsgEarthNet.uav[15] utilizationEnergyCharge 4342.9609375
scalar OsgEarthNet.uav[15] utilizationEnergyOverdrawMission 0
scalar OsgEarthNet.uav[15] utilizationEnergyOverdrawMaintenance 0
scalar OsgEarthNet.uav[15] utilizationCountMissions 1
scalar OsgEarthNet.uav[15] utilizationCountManeuversMission 13
scalar OsgEarthNet.uav[15] utilizationCountManeuversMaintenance 2
scalar OsgEarthNet.uav[15] utilizationCountChargeState 1
scalar OsgEarthNet.uav[15] utilizationCountOverdrawnAfterMission 0
scalar OsgEarthNet.uav[15] utilizationCountIdleState 2
scalar OsgEarthNet.uav[15] utilizationFail 0
scalar OsgEarthNet.uav[15] simulationTime 259200
scalar OsgEarthNet.uav[16] utilizationSecMission 1404.3107360544
scalar OsgEarthNet.uav[16] utilizationSecMaintenance 330.89530380829
scalar OsgEarthNet.uav[16] utilizationSecCharge 6490
scalar OsgEarthNet.uav[16] utilizationSecIdle 250974.79296014
scalar OsgEarthNet.uav[16] utilizationEnergyMission 6064.8338012695
scalar OsgEarthNet.uav[16] utilizationEnergyMaintenance 1632.3835792541
scalar OsgEarthNet.uav[16] utilizationEnergyCharge 7744.9697265625
scalar OsgEarthNet.uav[16] utilizationEnergyOverdrawMission 0
scalar OsgEarthNet.uav[16] utilizationEnergyOverdrawMaintenance 0
scalar OsgEarthNet.uav[16] utilizationCountMissions 2
scalar OsgEarthNet.uav[16] utilizationCountManeuversMission 21
scalar OsgEarthNet.uav[16] utilizationCountManeuversMaintenance 4
scalar OsgEarthNet.uav[16] utilizationCountChargeState 2
scalar OsgEarthNet.uav[16] utilizationCountOverdrawnAfterMission 0
scalar OsgEarthNet.uav[16] utilizationCountIdleState 3
scalar OsgEarthNet.uav[16] utilizationFail 0
scalar OsgEarthNet.uav[16] simulationTime 259200
scalar OsgEarthNet.uav[17] utilizationSecMission 10174.615045346
scalar OsgEarthNet.uav[17] utilizationSecMaintenance 4611.3341168477
scalar OsgEarthNet.uav[17] utilizationSecCharge 56570
scalar OsgEarthNet.uav[17] utilizationSecIdle 187844.04983781
scalar OsgEarthNet.uav[17] utilizationEnergyMission 46671.702598572
scalar OsgEarthNet.uav[17] utilizationEnergyMaintenance 21787.848724365
scalar OsgEarthNet.uav[17] utilizationEnergyCharge 68554.292236328
scalar OsgEarthNet.uav[17] utilizationEnergyOverdrawMission 0
scalar OsgEarthNet.uav[17] utilizationEnergyOverdrawMaintenance 0
scalar OsgEarthNet.uav[17] utilizationCountMissions 17
scalar OsgEarthNet.uav[17] utilizationCountManeuversMission 159
scalar OsgEarthNet.uav[17] utilizationCountManeuversMaintenance 34
scalar OsgEarthNet.uav[17] utilizationCountChargeState 17
scalar OsgEarthNet.uav[17] utilizationCountOverdrawnAfterMission 0
scalar OsgEarthNet.uav[17] utilizationCountIdleState 18
scalar OsgEarthNet.uav[17] utilizationFail 0
scalar OsgEarthNet.uav[17] simulationTime 259200
scalar OsgEarthNet.uav[18] utilizationSecMission 23065.665353241
scalar OsgEarthNet.uav[18] utilizationSecMaintenance 13621.401414462
scalar OsgEarthNet.uav[18] utilizationSecCharge 145516.48366715
scalar OsgEarthNet.uav[18] utilizationSecIdle 76996.448565144
scalar OsgEarthNet.uav[18] utilizationEnergyMission 107810.29239655
scalar OsgEarthNet.uav[18] utilizationEnergyMaintenance 64486.004878998
scalar OsgEarthNet.uav[18] utilizationEnergyCharge 170531.4921875
scalar OsgEarthNet.uav[18] utilizationEnergyOverdrawMission 0
scalar OsgEarthNet.uav[18] utilizationEnergyOverdrawMaintenance 0
scalar OsgEarthNet.uav[18] utilizationCountMissions 48
scalar OsgEarthNet.uav[18] utilizationCountManeuversMission 369
scalar OsgEarthNet.uav[18] utilizationCountManeuversMaintenance 96
scalar OsgEarthNet.uav[18] utilizationCountChargeState 48
scalar OsgEarthNet.uav[18] utilizationCountOverdrawnAfterMission 0
scalar OsgEarthNet.uav[18] utilizationCountIdleState 48
scalar OsgEarthNet.uav[18] utilizationFail 0
scalar OsgEarthNet.uav[18] simulationTime 259200
scalar OsgEarthNet.uav[19] utilizationSecMission 19280.681509985
scalar OsgEarthNet.uav[19] utilizationSecMaintenance 9583.4163979519
scalar OsgEarthNet.uav[19] utilizationSecCharge 111820
scalar OsgEarthNet.uav[19] utilizationSecIdle 118515.90109206
scalar OsgEarthNet.uav[19] utilizationEnergyMission 88096.13621521
scalar OsgEarthNet.uav[19] utilizationEnergyMaintenance 45116.390892029
scalar OsgEarthNet.uav[19] utilizationEnergyCharge 133006.31518555
scalar OsgEarthNet.uav[19] utilizationEnergyOverdrawMission 0
scalar OsgEarthNet.uav[19] utilizationEnergyOverdrawMaintenance 0
scalar OsgEarthNet.uav[19] utilizationCountMissions 35
scalar OsgEarthNet.uav[19] utilizationCountManeuversMission 323
scalar OsgEarthNet.uav[19] utilizationCountManeuversMaintenance 70
scalar OsgEarthNet.uav[19] utilizationCountChargeState 35
scalar OsgEarthNet.uav[19] utilizationCountOverdrawnAfterMission 0
scalar OsgEarthNet.uav[19] utilizationCountIdleState 36
scalar OsgEarthNet.uav[19] utilizationFail 0
scalar OsgEarthNet.uav[19] simulationTime 259200
scalar OsgEarthNet.uav[20] utilizationSecMission 23.32923393083
scalar OsgEarthNet.uav[20] utilizationSecMaintenance 584.24089467002
scalar OsgEarthNet.uav[20] utilizationSecCharge 2600
scalar OsgEarthNet.uav[20] utilizationSecIdle 255992.4288714
scalar OsgEarthNet.uav[20] utilizationEnergyMission 92.902282714845
scalar OsgEarthNet.uav[20] utilizationEnergyMaintenance 2661.7735519409
scalar OsgEarthNet.uav[20] utilizationEnergyCharge 2754.6796875
scalar OsgEarthNet.uav[20] utilizationEnergyOverdrawMission 0
scalar OsgEarthNet.uav[20] utilizationEnergyOverdrawMaintenance 0
scalar OsgEarthNet.uav[20] utilizationCountMissions 1
scalar OsgEarthNet.uav[20] utilizationCountManeuversMission 1
scalar OsgEarthNet.uav[20] utilizationCountManeuversMaintenance 2
scalar OsgEarthNet.uav[20] utilizationCountChargeState 1
scalar OsgEarthNet.uav[20] utilizationCountOverdrawnAfterMission 0
scalar OsgEarthNet.uav[20] utilizationCountIdleState 2
scalar OsgEarthNet.uav[20] utilizationFail 0
scalar OsgEarthNet.uav[20] simulationTime 259200
scalar OsgEarthNet.uav[21] utilizationSecMission 799.88740060978
scalar OsgEarthNet.uav[21] utilizationSecMaintenance 599.79051747255
scalar OsgEarthNet.uav[21] utilizationSecCharge 5770
scalar OsgEarthNet.uav[21] utilizationSecIdle 252030.32108192
scalar OsgEarthNet.uav[21] utilizationEnergyMission 3806.7269363403
scalar OsgEarthNet.uav[21] utilizationEnergyMaintenance 2722.8177223206
scalar OsgEarthNet.uav[21] utilizationEnergyCharge 6529.546875
scalar OsgEarthNet.uav[21] utilizationEnergyOverdrawMission 0
scalar OsgEarthNet.uav[21] utilizationEnergyOverdrawMaintenance 0
scalar OsgEarthNet.uav[21] utilizationCountMissions 2
scalar OsgEarthNet.uav[21] utilizationCountManeuversMission 15
scalar OsgEarthNet.uav[21] utilizationCountManeuversMaintenance 4
scalar OsgEarthNet.uav[21] utilizationCountChargeState 2
scalar OsgEarthNet.uav[21] utilizationCountOverdrawnAfterMission 0
scalar OsgEarthNet.uav[21] utilizationCountIdleState 3
scalar OsgEarthNet.uav[21] utilizationFail 0
scalar OsgEarthNet.uav[21] simulationTime 259200
scalar OsgEarthNet.uav[22] utilizationSecMission 694.00169469977
scalar OsgEarthNet.uav[22] utilizationSecMaintenance 229.48898285212
scalar OsgEarthNet.uav[22] utilizationSecCharge 3520
scalar OsgEarthNet.uav[22] utilizationSecIdle 254756.50832245
scalar OsgEarthNet.uav[22] utilizationEnergyMission 3366.7434921265
scalar OsgEarthNet.uav[22] utilizationEnergyMaintenance 912.24602508545
scalar OsgEarthNet.uav[22] utilizationEnergyCharge 4288.6196289062
scalar OsgEarthNet.uav[22] utilizationEnergyOverdrawMission 0
scalar OsgEarthNet.uav[22] utilizationEnergyOverdrawMaintenance 0
scalar OsgEarthNet.uav[22] utilizationCountMissions 1
scalar OsgEarthNet.uav[22] utilizationCountManeuversMission 13
scalar OsgEarthNet.uav[22] utilizationCountManeuversMaintenance 2
scalar OsgEarthNet.uav[22] utilizationCountChargeState 1
scalar OsgEarthNet.uav[22] utilizationCountOverdrawnAfterMission 0
scalar OsgEarthNet.uav[22] utilizationCountIdleState 2
scalar OsgEarthNet.uav[22] utilizationFail 0
scalar OsgEarthNet.uav[22] simulationTime 259200
scalar OsgEarthNet.uav[23] utilizationSecMission 25453.250301408
scalar OsgEarthNet.uav[23] utilizationSecMaintenance 13439.241457136
scalar OsgEarthNet.uav[23] utilizationSecCharge 150269.45470294
scalar OsgEarthNet.uav[23] utilizationSecIdle 70038.052538512
scalar OsgEarthNet.uav[23] utilizationEnergyMission 117379.04597473
scalar OsgEarthNet.uav[23] utilizationEnergyMaintenance 62438.233955383
scalar OsgEarthNet.uav[23] utilizationEnergyCharge 177112.11401367
scalar OsgEarthNet.uav[23] utilizationEnergyOverdrawMission 0
scalar OsgEarthNet.uav[23] utilizationEnergyOverdrawMaintenance 0
scalar OsgEarthNet.uav[23] utilizationCountMissions 49
scalar OsgEarthNet.uav[23] utilizationCountManeuversMission 416
scalar OsgEarthNet.uav[23] utilizationCountManeuversMaintenance 98
scalar OsgEarthNet.uav[23] utilizationCountChargeState 49
scalar OsgEarthNet.uav[23] utilizationCountOverdrawnAfterMission 0
scalar OsgEarthNet.uav[23] utilizationCountIdleState 49
scalar OsgEarthNet.uav[23] utilizationFail 0
scalar OsgEarthNet.uav[23] simulationTime 259200
scalar OsgEarthNet.uav[24] utilizationSecMission 15129.37107033
scalar OsgEarthNet.uav[24] utilizationSecMaintenance 7178.3042415278
scalar OsgEarthNet.uav[24] utilizationSecCharge 85760
scalar OsgEarthNet.uav[24] utilizationSecIdle 151132.32368814
scalar OsgEarthNet.uav[24] utilizationEnergyMission 69837.976862974
scalar OsgEarthNet.uav[24] utilizationEnergyMaintenance 33814.544425964
scalar OsgEarthNet.uav[24] utilizationEnergyCharge 101632.66967773
scalar OsgEarthNet.uav[24] utilizationEnergyOverdrawMission 0
scalar OsgEarthNet.uav[24] utilizationEnergyOverdrawMaintenance 0
scalar OsgEarthNet.uav[24] utilizationCountMissions 27
scalar OsgEarthNet.uav[24] utilizationCountManeuversMission 246
scalar OsgEarthNet.uav[24] utilizationCountManeuversMaintenance 55
scalar OsgEarthNet.uav[24] utilizationCountChargeState 27
scalar OsgEarthNet.uav[24] utilizationCountOverdrawnAfterMission 0
scalar OsgEarthNet.uav[24] utilizationCountIdleState 28
scalar OsgEarthNet.uav[24] utilizationFail 0
scalar OsgEarthNet.uav[24] simulationTime 259200
scalar OsgEarthNet.uav[25] utilizationSecMission 28442.683632149
scalar OsgEarthNet.uav[25] utilizationSecMaintenance 11184.923273344
scalar OsgEarthNet.uav[25] utilizationSecCharge 151945.73779251
scalar OsgEarthNet.uav[25] utilizationSecIdle 67626.654301995
scalar OsgEarthNet.uav[25] utilizationEnergyMission 131226.43703461
scalar OsgEarthNet.uav[25] utilizationEnergyMaintenance 52525.245128632
scalar OsgEarthNet.uav[25] utilizationEnergyCharge 181770.44824219
scalar OsgEarthNet.uav[25] utilizationEnergyOverdrawMission 0
scalar OsgEarthNet.uav[25] utilizationEnergyOverdrawMaintenance 0
scalar OsgEarthNet.uav[25] utilizationCountMissions 48
scalar OsgEarthNet.uav[25] utilizationCountManeuversMission 453
scalar OsgEarthNet.uav[25] utilizationCountManeuversMaintenance 96
scalar OsgEarthNet.uav[25] utilizationCountChargeState 48
scalar OsgEarthNet.uav[25] utilizationCountOverdrawnAfterMission 0
scalar OsgEarthNet.uav[25] utilizationCountIdleState 48
scalar OsgEarthNet.uav[25] utilizationFail 0
scalar OsgEarthNet.uav[25] simulationTime 259200
scalar OsgEarthNet.uav[26] utilizationSecMission 11630.729217851
scalar OsgEarthNet.uav[26] utilizationSecMaintenance 6619.2101110448
scalar OsgEarthNet.uav[26] utilizationSecCharge 73360
scalar OsgEarthNet.uav[26] utilizationSecIdle 167590.0596711
scalar OsgEarthNet.uav[26] utilizationEnergyMission 53638.151039124
scalar OsgEarthNet.uav[26] utilizationEnergyMaintenance 31801.548843384
scalar OsgEarthNet.uav[26] utilizationEnergyCharge 85342.859130859
scalar OsgEarthNet.uav[26] utilizationEnergyOverdrawMission 0
scalar OsgEarthNet.uav[26] utilizationEnergyOverdrawMaintenance 0
scalar OsgEarthNet.uav[26] utilizationCountMissions 24
scalar OsgEarthNet.uav[26] utilizationCountManeuversMission 190
scalar OsgEarthNet.uav[26] utilizationCountManeuversMaintenance 48
scalar OsgEarthNet.uav[26] utilizationCountChargeState 24
scalar OsgEarthNet.uav[26] utilizationCountOverdrawnAfterMission 0
scalar OsgEarthNet.uav[26] utilizationCountIdleState 25
scalar OsgEarthNet.uav[26] utilizationFail 0
scalar OsgEarthNet.uav[26] simulationTime 259200
scalar OsgEarthNet.uav[27] utilizationSecMission 28963.682310825
scalar OsgEarthNet.uav[27] utilizationSecMaintenance 14744.316689175
scalar OsgEarthNet.uav[27] utilizationSecCharge 171520
scalar OsgEarthNet.uav[27] utilizationSecIdle 43972
scalar OsgEarthNet.uav[27] utilizationEnergyMission 134017.24175262
scalar OsgEarthNet.uav[27] utilizationEnergyMaintenance 70375.801038191
scalar OsgEarthNet.uav[27] utilizationEnergyCharge 200494.51708984
scalar OsgEarthNet.uav[27] utilizationEnergyOverdrawMission 0
scalar OsgEarthNet.uav[27] utilizationEnergyOverdrawMaintenance 0
scalar OsgEarthNet.uav[27] utilizationCountMissions 57
scalar OsgEarthNet.uav[27] utilizationCountManeuversMission 470
scalar OsgEarthNet.uav[27] utilizationCountManeuversMaintenance 113
scalar OsgEarthNet.uav[27] utilizationCountChargeState 56
scalar OsgEarthNet.uav[27] utilizationCountOverdrawnAfterMission 0
scalar OsgEarthNet.uav[27] utilizationCountIdleState 57
scalar OsgEarthNet.uav[27] utilizationFail 0
scalar OsgEarthNet.uav[27] simulationTime 259200
scalar OsgEarthNet.uav[28] utilizationSecMission 19850.714477143
scalar OsgEarthNet.uav[28] utilizationSecMaintenance 10239.279136973
scalar OsgEarthNet.uav[28] utilizationSecCharge 119110
scalar OsgEarthNet.uav[28] utilizationSecIdle 110000.00538588
scalar OsgEarthNet.uav[28] utilizationEnergyMission 93008.137326461
scalar OsgEarthNet.uav[28] utilizationEnergyMaintenance 48171.132347107
scalar OsgEarthNet.uav[28] utilizationEnergyCharge 140350.46582031
scalar OsgEarthNet.uav[28] utilizationEnergyOverdrawMission 0
scalar OsgEarthNet.uav[28] utilizationEnergyOverdrawMaintenance 0
scalar OsgEarthNet.uav[28] utilizationCountMissions 38
scalar OsgEarthNet.uav[28] utilizationCountManeuversMission 325
scalar OsgEarthNet.uav[28] utilizationCountManeuversMaintenance 77
scalar OsgEarthNet.uav[28] utilizationCountChargeState 38
scalar OsgEarthNet.uav[28] utilizationCountOverdrawnAfterMission 0
scalar OsgEarthNet.uav[28] utilizationCountIdleState 39
scalar OsgEarthNet.uav[28] utilizationFail 0
scalar OsgEarthNet.uav[28] simulationTime 259200
scalar OsgEarthNet.uav[29] utilizationSecMission 760.62515258028
scalar OsgEarthNet.uav[29] utilizationSecMaintenance 245.74410321072
scalar OsgEarthNet.uav[29] utilizationSecCharge 3620
scalar OsgEarthNet.uav[29] utilizationSecIdle 254573.62974421
scalar OsgEarthNet.uav[29] utilizationEnergyMission 3552.0480728149
scalar OsgEarthNet.uav[29] utilizationEnergyMaintenance 1032.167339325
scalar OsgEarthNet.uav[29] utilizationEnergyCharge 4584.2138671875
scalar OsgEarthNet.uav[29] utilizationEnergyOverdrawMission 0
scalar OsgEarthNet.uav[29] utilizationEnergyOverdrawMaintenance 0
scalar OsgEarthNet.uav[29] utilizationCountMissions 1
scalar OsgEarthNet.uav[29] utilizationCountManeuversMission 12
scalar OsgEarthNet.uav[29] utilizationCountManeuversMaintenance 2
scalar OsgEarthNet.uav[29] utilizationCountChargeState 1
scalar OsgEarthNet.uav[29] utilizationCountOverdrawnAfterMission 0
scalar OsgEarthNet.uav[29] utilizationCountIdleState 2
scalar OsgEarthNet.uav[29] utilizationFail 0
scalar OsgEarthNet.uav[29] simulationTime 259200
scalar OsgEarthNet.uav[30] utilizationSecMission 443.5870541303
scalar OsgEarthNet.uav[30] utilizationSecMaintenance 425.80795651079
scalar OsgEarthNet.uav[30] utilizationSecCharge 3300
scalar OsgEarthNet.uav[30] utilizationSecIdle 255030.60398936
scalar OsgEarthNet.uav[30] utilizationEnergyMission 1876.9016571045
scalar OsgEarthNet.uav[30] utilizationEnergyMaintenance 2065.7697257996
scalar OsgEarthNet.uav[30] utilizationEnergyCharge 4016.9162597656
scalar OsgEarthNet.uav[30] utilizationEnergyOverdrawMission 0
scalar OsgEarthNet.uav[30] utilizationEnergyOverdrawMaintenance 0
scalar OsgEarthNet.uav[30] utilizationCountMissions 1
scalar OsgEarthNet.uav[30] utilizationCountManeuversMission 7
scalar OsgEarthNet.uav[30] utilizationCountManeuversMaintenance 2
scalar OsgEarthNet.uav[30] utilizationCountChargeState 1
scalar OsgEarthNet.uav[30] utilizationCountOverdrawnAfterMission 0
scalar OsgEarthNet.uav[30] utilizationCountIdleState 2
scalar OsgEarthNet.uav[30] utilizationFail 0
scalar OsgEarthNet.uav[30] simulationTime 259200
scalar OsgEarthNet.uav[31] utilizationSecMission 27242.49076638
scalar OsgEarthNet.uav[31] utilizationSecMaintenance 13165.024875197
scalar OsgEarthNet.uav[31] utilizationSecCharge 156195.07346707
scalar OsgEarthNet.uav[31] utilizationSecIdle 62597.40989135
scalar OsgEarthNet.uav[31] utilizationEnergyMission 126213.71559143
scalar OsgEarthNet.uav[31] utilizationEnergyMaintenance 60613.509441376
scalar OsgEarthNet.uav[31] utilizationEnergyCharge 184059.73376465
scalar OsgEarthNet.uav[31] utilizationEnergyOverdrawMission 0
scalar OsgEarthNet.uav[31] utilizationEnergyOverdrawMaintenance 0
scalar OsgEarthNet.uav[31] utilizationCountMissions 51
scalar OsgEarthNet.uav[31] utilizationCountManeuversMission 435
scalar OsgEarthNet.uav[31] utilizationCountManeuversMaintenance 102
scalar OsgEarthNet.uav[31] utilizationCountChargeState 51
scalar OsgEarthNet.uav[31] utilizationCountOverdrawnAfterMission 0
scalar OsgEarthNet.uav[31] utilizationCountIdleState 51
scalar OsgEarthNet.uav[31] utilizationFail 0
scalar OsgEarthNet.uav[31] simulationTime 259200
scalar OsgEarthNet.uav[32] utilizationSecMission 3073.2516167476
scalar OsgEarthNet.uav[32] utilizationSecMaintenance 1080.2942664721
scalar OsgEarthNet.uav[32] utilizationSecCharge 15960
scalar OsgEarthNet.uav[32] utilizationSecIdle 239086.45311678
scalar OsgEarthNet.uav[32] utilizationEnergyMission 14236.242172241
scalar OsgEarthNet.uav[32] utilizationEnergyMaintenance 4807.6036605835
scalar OsgEarthNet.uav[32] utilizationEnergyCharge 19055.858398438
scalar OsgEarthNet.uav[32] utilizationEnergyOverdrawMission 0
scalar OsgEarthNet.uav[32] utilizationEnergyOverdrawMaintenance 0
scalar OsgEarthNet.uav[32] utilizationCountMissions 5
scalar OsgEarthNet.uav[32] utilizationCountManeuversMission 53
scalar OsgEarthNet.uav[32] utilizationCountManeuversMaintenance 10
scalar OsgEarthNet.uav[32] utilizationCountChargeState 5
scalar OsgEarthNet.uav[32] utilizationCountOverdrawnAfterMission 0
scalar OsgEarthNet.uav[32] utilizationCountIdleState 6
scalar OsgEarthNet.uav[32] utilizationFail 0
scalar OsgEarthNet.uav[32] simulationTime 259200
scalar OsgEarthNet.uav[33] utilizationSecMission 26389.892649413
scalar OsgEarthNet.uav[33] utilizationSecMaintenance 14362.652876612
scalar OsgEarthNet.uav[33] utilizationSecCharge 160291.90656472
scalar OsgEarthNet.uav[33] utilizationSecIdle 58155.546909258
scalar OsgEarthNet.uav[33] utilizationEnergyMission 122336.31893921
scalar OsgEarthNet.uav[33] utilizationEnergyMaintenance 68246.193252563
scalar OsgEarthNet.uav[33] utilizationEnergyCharge 190486.33911133
scalar OsgEarthNet.uav[33] utilizationEnergyOverdrawMission 0
scalar OsgEarthNet.uav[33] utilizationEnergyOverdrawMaintenance 0
scalar OsgEarthNet.uav[33] utilizationCountMissions 51
scalar OsgEarthNet.uav[33] utilizationCountManeuversMission 435
scalar OsgEarthNet.uav[33] utilizationCountManeuversMaintenance 102
scalar OsgEarthNet.uav[33] utilizationCountChargeState 51
scalar OsgEarthNet.uav[33] utilizationCountOverdrawnAfterMission 0
scalar OsgEarthNet.uav[33] utilizationCountIdleState 51
scalar OsgEarthNet.uav[33] utilizationFail 0
scalar OsgEarthNet.uav[33] simulationTime 259200
scalar OsgEarthNet.uav[34] utilizationSecMission 23.329233930829
scalar OsgEarthNet.uav[34] utilizationSecMaintenance 476.50021886036
scalar OsgEarthNet.uav[34] utilizationSecCharge 2450
scalar OsgEarthNet.uav[34] utilizationSecIdle 256250.16954721
scalar OsgEarthNet.uav[34] utilizationEnergyMission 160.72909545898
scalar OsgEarthNet.uav[34] utilizationEnergyMaintenance 2295.5556564331
scalar OsgEarthNet.uav[34] utilizationEnergyCharge 2456.2846679688
scalar OsgEarthNet.uav[34] utilizationEnergyOverdrawMission 0
scalar OsgEarthNet.uav[34] utilizationEnergyOverdrawMaintenance 0
scalar OsgEarthNet.uav[34] utilizationCountMissions 1
scalar OsgEarthNet.uav[34] utilizationCountManeuversMission 1
scalar OsgEarthNet.uav[34] utilizationCountManeuversMaintenance 2
scalar OsgEarthNet.uav[34] utilizationCountChargeState 1
scalar OsgEarthNet.uav[34] utilizationCountOverdrawnAfterMission 0
scalar OsgEarthNet.uav[34] utilizationCountIdleState 2
scalar OsgEarthNet.uav[34] utilizationFail 0
scalar OsgEarthNet.uav[34] simulationTime 259200
scalar OsgEarthNet.uav[35] utilizationSecMission 26813.52240622
scalar OsgEarthNet.uav[35] utilizationSecMaintenance 12334.265010823
scalar OsgEarthNet.uav[35] utilizationSecCharge 153300
scalar OsgEarthNet.uav[35] utilizationSecIdle 66752.211582958
scalar OsgEarthNet.uav[35] utilizationEnergyMission 124209.37958939
scalar OsgEarthNet.uav[35] utilizationEnergyMaintenance 57391.329982758
scalar OsgEarthNet.uav[35] utilizationEnergyCharge 180677.95068359
scalar OsgEarthNet.uav[35] utilizationEnergyOverdrawMission 0
scalar OsgEarthNet.uav[35] utilizationEnergyOverdrawMaintenance 0
scalar OsgEarthNet.uav[35] utilizationCountMissions 49
scalar OsgEarthNet.uav[35] utilizationCountManeuversMission 442
scalar OsgEarthNet.uav[35] utilizationCountManeuversMaintenance 97
scalar OsgEarthNet.uav[35] utilizationCountChargeState 49
scalar OsgEarthNet.uav[35] utilizationCountOverdrawnAfterMission 0
scalar OsgEarthNet.uav[35] utilizationCountIdleState 50
scalar OsgEarthNet.uav[35] utilizationFail 0
scalar OsgEarthNet.uav[35] simulationTime 259200
scalar OsgEarthNet.uav[36] utilizationSecMission 443.5870541303
scalar OsgEarthNet.uav[36] utilizationSecMaintenance 425.80795651079
scalar OsgEarthNet.uav[36] utilizationSecCharge 3180
scalar OsgEarthNet.uav[36] utilizationSecIdle 255150.60398936
scalar OsgEarthNet.uav[36] utilizationEnergyMission 2038.8360595703
scalar OsgEarthNet.uav[36] utilizationEnergyMaintenance 1746.74451828
scalar OsgEarthNet.uav[36] utilizationEnergyCharge 3799.7463378906
scalar OsgEarthNet.uav[36] utilizationEnergyOverdrawMission 0
scalar OsgEarthNet.uav[36] utilizationEnergyOverdrawMaintenance 0
scalar OsgEarthNet.uav[36] utilizationCountMissions 1
scalar OsgEarthNet.uav[36] utilizationCountManeuversMission 7
scalar OsgEarthNet.uav[36] utilizationCountManeuversMaintenance 2
scalar OsgEarthNet.uav[36] utilizationCountChargeState 1
scalar OsgEarthNet.uav[36] utilizationCountOverdrawnAfterMission 0
scalar OsgEarthNet.uav[36] utilizationCountIdleState 2
scalar OsgEarthNet.uav[36] utilizationFail 0
scalar OsgEarthNet.uav[36] simulationTime 259200
scalar OsgEarthNet.uav[37] utilizationSecMission 29541.379654477
scalar OsgEarthNet.uav[37] utilizationSecMaintenance 11948.062114149
scalar OsgEarthNet.uav[37] utilizationSecCharge 162182.2036285
scalar OsgEarthNet.uav[37] utilizationSecIdle 55528.353602879
scalar OsgEarthNet.uav[37] utilizationEnergyMission 136453.80992889
scalar OsgEarthNet.uav[37] utilizationEnergyMaintenance 55347.148281097
scalar OsgEarthNet.uav[37] utilizationEnergyCharge 190892.92578125
scalar OsgEarthNet.uav[37] utilizationEnergyOverdrawMission 0
scalar OsgEarthNet.uav[37] utilizationEnergyOverdrawMaintenance 0
scalar OsgEarthNet.uav[37] utilizationCountMissions 53
scalar OsgEarthNet.uav[37] utilizationCountManeuversMission 498
scalar OsgEarthNet.uav[37] utilizationCountManeuversMaintenance 106
scalar OsgEarthNet.uav[37] utilizationCountChargeState 53
scalar OsgEarthNet.uav[37] utilizationCountOverdrawnAfterMission 0
scalar OsgEarthNet.uav[37] utilizationCountIdleState 53
scalar OsgEarthNet.uav[37] utilizationFail 0
scalar OsgEarthNet.uav[37] simulationTime 259200
scalar OsgEarthNet.uav[38] utilizationSecMission 28535.208058865
scalar OsgEarthNet.uav[38] utilizationSecMaintenance 15062.646382374
scalar OsgEarthNet.uav[38] utilizationSecCharge 169968.66710553
scalar OsgEarthNet.uav[38] utilizationSecIdle 45633.477453227
scalar OsgEarthNet.uav[38] utilizationEnergyMission 132706.77970886
scalar OsgEarthNet.uav[38] utilizationEnergyMaintenance 70104.474750519
scalar OsgEarthNet.uav[38] utilizationEnergyCharge 202232.93701172
scalar OsgEarthNet.uav[38] utilizationEnergyOverdrawMission 0
scalar OsgEarthNet.uav[38] utilizationEnergyOverdrawMaintenance 0
scalar OsgEarthNet.uav[38] utilizationCountMissions 54
scalar OsgEarthNet.uav[38] utilizationCountManeuversMission 478
scalar OsgEarthNet.uav[38] utilizationCountManeuversMaintenance 108
scalar OsgEarthNet.uav[38] utilizationCountChargeState 54
scalar OsgEarthNet.uav[38] utilizationCountOverdrawnAfterMission 0
scalar OsgEarthNet.uav[38] utilizationCountIdleState 54
scalar OsgEarthNet.uav[38] utilizationFail 0
scalar OsgEarthNet.uav[38] simulationTime 259200
scalar OsgEarthNet.uav[39] utilizationSecMission 22584.962199767
scalar OsgEarthNet.uav[39] utilizationSecMaintenance 13957.224026348
scalar OsgEarthNet.uav[39] utilizationSecCharge 144990
scalar OsgEarthNet.uav[39] utilizationSecIdle 77667.812773884
scalar OsgEarthNet.uav[39] utilizationEnergyMission 103482.80278015
scalar OsgEarthNet.uav[39] utilizationEnergyMaintenance 66053.333217621
scalar OsgEarthNet.uav[39] utilizationEnergyCharge 169666.69091797
scalar OsgEarthNet.uav[39] utilizationEnergyOverdrawMission 0
scalar OsgEarthNet.uav[39] utilizationEnergyOverdrawMaintenance 0
scalar OsgEarthNet.uav[39] utilizationCountMissions 47
scalar OsgEarthNet.uav[39] utilizationCountManeuversMission 370
scalar OsgEarthNet.uav[39] utilizationCountManeuversMaintenance 94
scalar OsgEarthNet.uav[39] utilizationCountChargeState 47
scalar OsgEarthNet.uav[39] utilizationCountOverdrawnAfterMission 0
scalar OsgEarthNet.uav[39] utilizationCountIdleState 48
scalar OsgEarthNet.uav[39] utilizationFail 0
scalar OsgEarthNet.uav[39] simulationTime 259200
scalar OsgEarthNet.uav[40] utilizationSecMission 21059.780192933
scalar OsgEarthNet.uav[40] utilizationSecMaintenance 10929.571698186
scalar OsgEarthNet.uav[40] utilizationSecCharge 122655.99965682
scalar OsgEarthNet.uav[40] utilizationSecIdle 104554.64745206
scalar OsgEarthNet.uav[40] utilizationEnergyMission 97801.374382019
scalar OsgEarthNet.uav[40] utilizationEnergyMaintenance 51385.905841827
scalar OsgEarthNet.uav[40] utilizationEnergyCharge 144934.77722168
scalar OsgEarthNet.uav[40] utilizationEnergyOverdrawMission 0
scalar OsgEarthNet.uav[40] utilizationEnergyOverdrawMaintenance 0
scalar OsgEarthNet.uav[40] utilizationCountMissions 40
scalar OsgEarthNet.uav[40] utilizationCountManeuversMission 341
scalar OsgEarthNet.uav[40] utilizationCountManeuversMaintenance 80
scalar OsgEarthNet.uav[40] utilizationCountChargeState 40
scalar OsgEarthNet.uav[40] utilizationCountOverdrawnAfterMission 0
scalar OsgEarthNet.uav[40] utilizationCountIdleState 40
scalar OsgEarthNet.uav[40] utilizationFail 0
scalar OsgEarthNet.uav[40] simulationTime 259200
scalar OsgEarthNet.uav[41] utilizationSecMission 4414.2250205406
scalar OsgEarthNet.uav[41] utilizationSecMaintenance 1697.5597316268
scalar OsgEarthNet.uav[41] utilizationSecCharge 23110
scalar OsgEarthNet.uav[41] utilizationSecIdle 229978.21424783
scalar OsgEarthNet.uav[41] utilizationEnergyMission 19662.937316895
scalar OsgEarthNet.uav[41] utilizationEnergyMaintenance 8089.1635475159
scalar OsgEarthNet.uav[41] utilizationEnergyCharge 27828.809326172
scalar OsgEarthNet.uav[41] utilizationEnergyOverdrawMission 0
scalar OsgEarthNet.uav[41] utilizationEnergyOverdrawMaintenance 0
scalar OsgEarthNet.uav[41] utilizationCountMissions 7
scalar OsgEarthNet.uav[41] utilizationCountManeuversMission 69
scalar OsgEarthNet.uav[41] utilizationCountManeuversMaintenance 14
scalar OsgEarthNet.uav[41] utilizationCountChargeState 7
scalar OsgEarthNet.uav[41] utilizationCountOverdrawnAfterMission 0
scalar OsgEarthNet.uav[41] utilizationCountIdleState 8
scalar OsgEarthNet.uav[41] utilizationFail 0
scalar OsgEarthNet.uav[41] simulationTime 259200
scalar OsgEarthNet.uav[42] utilizationSecMission 12847.46494213
scalar OsgEarthNet.uav[42] utilizationSecMaintenance 6863.9275646684
scalar OsgEarthNet.uav[42] utilizationSecCharge 79960
scalar OsgEarthNet.uav[42] utilizationSecIdle 159528.6064932
scalar OsgEarthNet.uav[42] utilizationEnergyMission 59865.873477936
scalar OsgEarthNet.uav[42] utilizationEnergyMaintenance 33559.929634094
scalar OsgEarthNet.uav[42] utilizationEnergyCharge 93419.606201172
scalar OsgEarthNet.uav[42] utilizationEnergyOverdrawMission 0
scalar OsgEarthNet.uav[42] utilizationEnergyOverdrawMaintenance 0
scalar OsgEarthNet.uav[42] utilizationCountMissions 26
scalar OsgEarthNet.uav[42] utilizationCountManeuversMission 213
scalar OsgEarthNet.uav[42] utilizationCountManeuversMaintenance 52
scalar OsgEarthNet.uav[42] utilizationCountChargeState 26
scalar OsgEarthNet.uav[42] utilizationCountOverdrawnAfterMission 0
scalar OsgEarthNet.uav[42] utilizationCountIdleState 27
scalar OsgEarthNet.uav[42] utilizationFail 0
scalar OsgEarthNet.uav[42] simulationTime 259200
scalar OsgEarthNet.uav[43] utilizationSecMission 179.21601502944
scalar OsgEarthNet.uav[43] utilizationSecMaintenance 354.43405905663
scalar OsgEarthNet.uav[43] utilizationSecCharge 2470
scalar OsgEarthNet.uav[43] utilizationSecIdle 256196.34892591
scalar OsgEarthNet.uav[43] utilizationEnergyMission 831.53047180176
scalar OsgEarthNet.uav[43] utilizationEnergyMaintenance 1685.203666687
scalar OsgEarthNet.uav[43] utilizationEnergyCharge 2516.7365722656
scalar OsgEarthNet.uav[43] utilizationEnergyOverdrawMission 0
scalar OsgEarthNet.uav[43] utilizationEnergyOverdrawMaintenance 0
scalar OsgEarthNet.uav[43] utilizationCountMissions 1
scalar OsgEarthNet.uav[43] utilizationCountManeuversMission 3
scalar OsgEarthNet.uav[43] utilizationCountManeuversMaintenance 2
scalar OsgEarthNet.uav[43] utilizationCountChargeState 1
scalar OsgEarthNet.uav[43] utilizationCountOverdrawnAfterMission 0
scalar OsgEarthNet.uav[43] utilizationCountIdleState 2
scalar OsgEarthNet.uav[43] utilizationFail 0
scalar OsgEarthNet.uav[43] simulationTime 259200
scalar OsgEarthNet.uav[44] utilizationSecMission 1013.2896672307
scalar OsgEarthNet.uav[44] utilizationSecMaintenance 882.77893763815
scalar OsgEarthNet.uav[44] utilizationSecCharge 8110
scalar OsgEarthNet.uav[44] utilizationSecIdle 249193.93039513
scalar OsgEarthNet.uav[44] utilizationEnergyMission 4641.2641296387
scalar OsgEarthNet.uav[44] utilizationEnergyMaintenance 4136.7732391357
scalar OsgEarthNet.uav[44] utilizationEnergyCharge 8778.0432128906
scalar OsgEarthNet.uav[44] utilizationEnergyOverdrawMission 0
scalar OsgEarthNet.uav[44] utilizationEnergyOverdrawMaintenance 0
scalar OsgEarthNet.uav[44] utilizationCountMissions 3
scalar OsgEarthNet.uav[44] utilizationCountManeuversMission 18
scalar OsgEarthNet.uav[44] utilizationCountManeuversMaintenance 6
scalar OsgEarthNet.uav[44] utilizationCountChargeState 3
scalar OsgEarthNet.uav[44] utilizationCountOverdrawnAfterMission 0
scalar OsgEarthNet.uav[44] utilizationCountIdleState 4
scalar OsgEarthNet.uav[44] utilizationFail 0
scalar OsgEarthNet.uav[44] simulationTime 259200
scalar OsgEarthNet.uav[45] utilizationSecMission 26271.467022043
scalar OsgEarthNet.uav[45] utilizationSecMaintenance 13389.284495247
scalar OsgEarthNet.uav[45] utilizationSecCharge 156660
scalar OsgEarthNet.uav[45] utilizationSecIdle 62879.24748271
scalar OsgEarthNet.uav[45] utilizationEnergyMission 122081.2260704
scalar OsgEarthNet.uav[45] utilizationEnergyMaintenance 64629.625614949
scalar OsgEarthNet.uav[45] utilizationEnergyCharge 182857.16088867
scalar OsgEarthNet.uav[45] utilizationEnergyOverdrawMission 0
scalar OsgEarthNet.uav[45] utilizationEnergyOverdrawMaintenance 0
scalar OsgEarthNet.uav[45] utilizationCountMissions 52
scalar OsgEarthNet.uav[45] utilizationCountManeuversMission 427
scalar OsgEarthNet.uav[45] utilizationCountManeuversMaintenance 104
scalar OsgEarthNet.uav[45] utilizationCountChargeState 51
scalar OsgEarthNet.uav[45] utilizationCountOverdrawnAfterMission 0
scalar OsgEarthNet.uav[45] utilizationCountIdleState 52
scalar OsgEarthNet.uav[45] utilizationFail 0
scalar OsgEarthNet.uav[45] simulationTime 259200
scalar OsgEarthNet.uav[46] utilizationSecMission 443.5870541303
scalar OsgEarthNet.uav[46] utilizationSecMaintenance 425.80795651079
scalar OsgEarthNet.uav[46] utilizationSecCharge 3330
scalar OsgEarthNet.uav[46] utilizationSecIdle 255000.60398936
scalar OsgEarthNet.uav[46] utilizationEnergyMission 2117.7787322998
scalar OsgEarthNet.uav[46] utilizationEnergyMaintenance 1990.3919487
scalar OsgEarthNet.uav[46] utilizationEnergyCharge 4051.9750976562
scalar OsgEarthNet.uav[46] utilizationEnergyOverdrawMission 0
scalar OsgEarthNet.uav[46] utilizationEnergyOverdrawMaintenance 0
scalar OsgEarthNet.uav[46] utilizationCountMissions 1
scalar OsgEarthNet.uav[46] utilizationCountManeuversMission 7
scalar OsgEarthNet.uav[46] utilizationCountManeuversMaintenance 2
scalar OsgEarthNet.uav[46] utilizationCountChargeState 1
scalar OsgEarthNet.uav[46] utilizationCountOverdrawnAfterMission 0
scalar OsgEarthNet.uav[46] utilizationCountIdleState 2
scalar OsgEarthNet.uav[46] utilizationFail 0
scalar OsgEarthNet.uav[46] simulationTime 259200
scalar OsgEarthNet.uav[47] utilizationSecMission 369.16643303525
scalar OsgEarthNet.uav[47] utilizationSecMaintenance 404.35423372053
scalar OsgEarthNet.uav[47] utilizationSecCharge 3130
scalar OsgEarthNet.uav[47] utilizationSecIdle 255296.47833324
scalar OsgEarthNet.uav[47] utilizationEnergyMission 1636.9633483887
scalar OsgEarthNet.uav[47] utilizationEnergyMaintenance 2050.9221916199
scalar OsgEarthNet.uav[47] utilizationEnergyCharge 3687.8842773438
scalar OsgEarthNet.uav[47] utilizationEnergyOverdrawMission 0
scalar OsgEarthNet.uav[47] utilizationEnergyOverdrawMaintenance 0
scalar OsgEarthNet.uav[47] utilizationCountMissions 1
scalar OsgEarthNet.uav[47] utilizationCountManeuversMission 6
scalar OsgEarthNet.uav[47] utilizationCountManeuversMaintenance 2
scalar OsgEarthNet.uav[47] utilizationCountChargeState 1
scalar OsgEarthNet.uav[47] utilizationCountOverdrawnAfterMission 0
scalar OsgEarthNet.uav[47] utilizationCountIdleState 2
scalar OsgEarthNet.uav[47] utilizationFail 0
scalar OsgEarthNet.uav[47] simulationTime 259200
scalar OsgEarthNet.uav[48] utilizationSecMission 694.00169469977
scalar OsgEarthNet.uav[48] utilizationSecMaintenance 229.48898285212
scalar OsgEarthNet.uav[48] utilizationSecCharge 3620
scalar OsgEarthNet.uav[48] utilizationSecIdle 254656.50832245
scalar OsgEarthNet.uav[48] utilizationEnergyMission 3348.7117462158
scalar OsgEarthNet.uav[48] utilizationEnergyMaintenance 1124.2957992554
scalar OsgEarthNet.uav[48] utilizationEnergyCharge 4464.4692382812
scalar OsgEarthNet.uav[48] utilizationEnergyOverdrawMission 0
scalar OsgEarthNet.uav[48] utilizationEnergyOverdrawMaintenance 0
scalar OsgEarthNet.uav[48] utilizationCountMissions 1
scalar OsgEarthNet.uav[48] utilizationCountManeuversMission 13
scalar OsgEarthNet.uav[48] utilizationCountManeuversMaintenance 2
scalar OsgEarthNet.uav[48] utilizationCountChargeState 1
scalar OsgEarthNet.uav[48] utilizationCountOverdrawnAfterMission 0
scalar OsgEarthNet.uav[48] utilizationCountIdleState 2
scalar OsgEarthNet.uav[48] utilizationFail 0
scalar OsgEarthNet.uav[48] simulationTime 259200
scalar OsgEarthNet.uav[49] utilizationSecMission 750.20472747826
scalar OsgEarthNet.uav[49] utilizationSecMaintenance 261.68051383311
scalar OsgEarthNet.uav[49] utilizationSecCharge 3620
scalar OsgEarthNet.uav[49] utilizationSecIdle 254568.11375869
scalar OsgEarthNet.uav[49] utilizationEnergyMission 3364.8793792725
scalar OsgEarthNet.uav[49] utilizationEnergyMaintenance 1159.3246269226
scalar OsgEarthNet.uav[49] utilizationEnergyCharge 4524.2080078125
scalar OsgEarthNet.uav[49] utilizationEnergyOverdrawMission 0
scalar OsgEarthNet.uav[49] utilizationEnergyOverdrawMaintenance 0
scalar OsgEarthNet.uav[49] utilizationCountMissions 1
scalar OsgEarthNet.uav[49] utilizationCountManeuversMission 11
scalar OsgEarthNet.uav[49] utilizationCountManeuversMaintenance 2
scalar OsgEarthNet.uav[49] utilizationCountChargeState 1
scalar OsgEarthNet.uav[49] utilizationCountOverdrawnAfterMission 0
scalar OsgEarthNet.uav[49] utilizationCountIdleState 2
scalar OsgEarthNet.uav[49] utilizationFail 0
scalar OsgEarthNet.uav[49] simulationTime 259200
scalar OsgEarthNet.uav[50] utilizationSecMission 443.5870541303
scalar OsgEarthNet.uav[50] utilizationSecMaintenance 425.80795651079
scalar OsgEarthNet.uav[50] utilizationSecCharge 3590
scalar OsgEarthNet.uav[50] utilizationSecIdle 254740.60398936
scalar OsgEarthNet.uav[50] utilizationEnergyMission 2191.5666503906
scalar OsgEarthNet.uav[50] utilizationEnergyMaintenance 2190.0926322937
scalar OsgEarthNet.uav[50] utilizationEnergyCharge 4456.033203125
scalar OsgEarthNet.uav[50] utilizationEnergyOverdrawMission 0
scalar OsgEarthNet.uav[50] utilizationEnergyOverdrawMaintenance 0
scalar OsgEarthNet.uav[50] utilizationCountMissions 1
scalar OsgEarthNet.uav[50] utilizationCountManeuversMission 7
scalar OsgEarthNet.uav[50] utilizationCountManeuversMaintenance 2
scalar OsgEarthNet.uav[50] utilizationCountChargeState 1
scalar OsgEarthNet.uav[50] utilizationCountOverdrawnAfterMission 0
scalar OsgEarthNet.uav[50] utilizationCountIdleState 2
scalar OsgEarthNet.uav[50] utilizationFail 0
scalar OsgEarthNet.uav[50] simulationTime 259200
scalar OsgEarthNet.uav[51] utilizationSecMission 21386.905264703
scalar OsgEarthNet.uav[51] utilizationSecMaintenance 14313.073461153
scalar OsgEarthNet.uav[51] utilizationSecCharge 143770
scalar OsgEarthNet.uav[51] utilizationSecIdle 79730.020274145
scalar OsgEarthNet.uav[51] utilizationEnergyMission 99245.453285217
scalar OsgEarthNet.uav[51] utilizationEnergyMaintenance 68232.553268637
scalar OsgEarthNet.uav[51] utilizationEnergyCharge 167540.67016602
scalar OsgEarthNet.uav[51] utilizationEnergyOverdrawMission 0
scalar OsgEarthNet.uav[51] utilizationEnergyOverdrawMaintenance 0
scalar OsgEarthNet.uav[51] utilizationCountMissions 47
scalar OsgEarthNet.uav[51] utilizationCountManeuversMission 347
scalar OsgEarthNet.uav[51] utilizationCountManeuversMaintenance 95
scalar OsgEarthNet.uav[51] utilizationCountChargeState 47
scalar OsgEarthNet.uav[51] utilizationCountOverdrawnAfterMission 0
scalar OsgEarthNet.uav[51] utilizationCountIdleState 48
scalar OsgEarthNet.uav[51] utilizationFail 0
scalar OsgEarthNet.uav[51] simulationTime 259200
scalar OsgEarthNet.uav[52] utilizationSecMission 19873.442946707
scalar OsgEarthNet.uav[52] utilizationSecMaintenance 9129.4902775953
scalar OsgEarthNet.uav[52] utilizationSecCharge 112270
scalar OsgEarthNet.uav[52] utilizationSecIdle 117927.0657757
scalar OsgEarthNet.uav[52] utilizationEnergyMission 91883.761384153
scalar OsgEarthNet.uav[52] utilizationEnergyMaintenance 43095.304683685
scalar OsgEarthNet.uav[52] utilizationEnergyCharge 133917.86376953
scalar OsgEarthNet.uav[52] utilizationEnergyOverdrawMission 0
scalar OsgEarthNet.uav[52] utilizationEnergyOverdrawMaintenance 0
scalar OsgEarthNet.uav[52] utilizationCountMissions 35
scalar OsgEarthNet.uav[52] utilizationCountManeuversMission 311
scalar OsgEarthNet.uav[52] utilizationCountManeuversMaintenance 71
scalar OsgEarthNet.uav[52] utilizationCountChargeState 35
scalar OsgEarthNet.uav[52] utilizationCountOverdrawnAfterMission 0
scalar OsgEarthNet.uav[52] utilizationCountIdleState 36
scalar OsgEarthNet.uav[52] utilizationFail 0
scalar OsgEarthNet.uav[52] simulationTime 259200
scalar OsgEarthNet.uav[53] utilizationSecMission 30364.416406095
scalar OsgEarthNet.uav[53] utilizationSecMaintenance 12625.346925386
scalar OsgEarthNet.uav[53] utilizationSecCharge 162958.23566852
scalar OsgEarthNet.uav[53] utilizationSecIdle 53252
scalar OsgEarthNet.uav[53] utilizationEnergyMission 139375.82598877
scalar OsgEarthNet.uav[53] utilizationEnergyMaintenance 59866.914485931
scalar OsgEarthNet.uav[53] utilizationEnergyCharge 195636.94433594
scalar OsgEarthNet.uav[53] utilizationEnergyOverdrawMission 0
scalar OsgEarthNet.uav[53] utilizationEnergyOverdrawMaintenance 0
scalar OsgEarthNet.uav[53] utilizationCountMissions 51
scalar OsgEarthNet.uav[53] utilizationCountManeuversMission 486
scalar OsgEarthNet.uav[53] utilizationCountManeuversMaintenance 101
scalar OsgEarthNet.uav[53] utilizationCountChargeState 51
scalar OsgEarthNet.uav[53] utilizationCountOverdrawnAfterMission 0
scalar OsgEarthNet.uav[53] utilizationCountIdleState 51
scalar OsgEarthNet.uav[53] utilizationFail 0
scalar OsgEarthNet.uav[53] simulationTime 259200
scalar OsgEarthNet.uav[54] utilizationSecMission 799.88740060978
scalar OsgEarthNet.uav[54] utilizationSecMaintenance 599.79051747255
scalar OsgEarthNet.uav[54] utilizationSecCharge 5750
scalar OsgEarthNet.uav[54] utilizationSecIdle 252050.32108192
scalar OsgEarthNet.uav[54] utilizationEnergyMission 3673.8811798096
scalar OsgEarthNet.uav[54] utilizationEnergyMaintenance 2777.011264801
scalar OsgEarthNet.uav[54] utilizationEnergyCharge 6450.8957519531
scalar OsgEarthNet.uav[54] utilizationEnergyOverdrawMission 0
scalar OsgEarthNet.uav[54] utilizationEnergyOverdrawMaintenance 0
scalar OsgEarthNet.uav[54] utilizationCountMissions 2
scalar OsgEarthNet.uav[54] utilizationCountManeuversMission 15
scalar OsgEarthNet.uav[54] utilizationCountManeuversMaintenance 4
scalar OsgEarthNet.uav[54] utilizationCountChargeState 2
scalar OsgEarthNet.uav[54] utilizationCountOverdrawnAfterMission 0
scalar OsgEarthNet.uav[54] utilizationCountIdleState 3
scalar OsgEarthNet.uav[54] utilizationFail 0
scalar OsgEarthNet.uav[54] simulationTime 259200
scalar OsgEarthNet.uav[55] utilizationSecMission 21026.443894761
scalar OsgEarthNet.uav[55] utilizationSecMaintenance 11691.273882167
scalar OsgEarthNet.uav[55] utilizationSecCharge 129726.27853013
scalar OsgEarthNet.uav[55] utilizationSecIdle 96756.002692942
scalar OsgEarthNet.uav[55] utilizationEnergyMission 98107.221824646
scalar OsgEarthNet.uav[55] utilizationEnergyMaintenance 54516.79101181
scalar OsgEarthNet.uav[55] utilizationEnergyCharge 151835.48413086
scalar OsgEarthNet.uav[55] utilizationEnergyOverdrawMission 0
scalar OsgEarthNet.uav[55] utilizationEnergyOverdrawMaintenance 0
scalar OsgEarthNet.uav[55] utilizationCountMissions 43
scalar OsgEarthNet.uav[55] utilizationCountManeuversMission 344
scalar OsgEarthNet.uav[55] utilizationCountManeuversMaintenance 86
scalar OsgEarthNet.uav[55] utilizationCountChargeState 43
scalar OsgEarthNet.uav[55] utilizationCountOverdrawnAfterMission 0
scalar OsgEarthNet.uav[55] utilizationCountIdleState 43
scalar OsgEarthNet.uav[55] utilizationFail 0
scalar OsgEarthNet.uav[55] simulationTime 259200
scalar OsgEarthNet.uav[56] utilizationSecMission 3273.5726461718
scalar OsgEarthNet.uav[56] utilizationSecMaintenance 1703.1743490342
scalar OsgEarthNet.uav[56] utilizationSecCharge 19450
scalar OsgEarthNet.uav[56] utilizationSecIdle 234773.25200479
scalar OsgEarthNet.uav[56] utilizationEnergyMission 15295.330352783
scalar OsgEarthNet.uav[56] utilizationEnergyMaintenance 7946.0388565063
scalar OsgEarthNet.uav[56] utilizationEnergyCharge 23269.294677734
scalar OsgEarthNet.uav[56] utilizationEnergyOverdrawMission 0
scalar OsgEarthNet.uav[56] utilizationEnergyOverdrawMaintenance 0
scalar OsgEarthNet.uav[56] utilizationCountMissions 6
scalar OsgEarthNet.uav[56] utilizationCountManeuversMission 50
scalar OsgEarthNet.uav[56] utilizationCountManeuversMaintenance 12
scalar OsgEarthNet.uav[56] utilizationCountChargeState 6
scalar OsgEarthNet.uav[56] utilizationCountOverdrawnAfterMission 0
scalar OsgEarthNet.uav[56] utilizationCountIdleState 7
scalar OsgEarthNet.uav[56] utilizationFail 0
scalar OsgEarthNet.uav[56] simulationTime 259200
scalar OsgEarthNet.uav[57] utilizationSecMission 27890.507019373
scalar OsgEarthNet.uav[57] utilizationSecMaintenance 13668.321224704
scalar OsgEarthNet.uav[57] utilizationSecCharge 162210.20677025
scalar OsgEarthNet.uav[57] utilizationSecIdle 55430.963985674
scalar OsgEarthNet.uav[57] utilizationEnergyMission 128851.16876221
scalar OsgEarthNet.uav[57] utilizationEnergyMaintenance 64330.070793152
scalar OsgEarthNet.uav[57] utilizationEnergyCharge 187538.62646484
scalar OsgEarthNet.uav[57] utilizationEnergyOverdrawMission 0
scalar OsgEarthNet.uav[57] utilizationEnergyOverdrawMaintenance 0
scalar OsgEarthNet.uav[57] utilizationCountMissions 55
scalar OsgEarthNet.uav[57] utilizationCountManeuversMission 467
scalar OsgEarthNet.uav[57] utilizationCountManeuversMaintenance 110
scalar OsgEarthNet.uav[57] utilizationCountChargeState 55
scalar OsgEarthNet.uav[57] utilizationCountOverdrawnAfterMission 0
scalar OsgEarthNet.uav[57] utilizationCountIdleState 55
scalar OsgEarthNet.uav[57] utilizationFail 0
scalar OsgEarthNet.uav[57] simulationTime 259200
scalar OsgEarthNet.uav[58] utilizationSecMission 443.5870541303
scalar OsgEarthNet.uav[58] utilizationSecMaintenance 125.81102573108
scalar OsgEarthNet.uav[58] utilizationSecCharge 2600
scalar OsgEarthNet.uav[58] utilizationSecIdle 256030.60092014
scalar OsgEarthNet.uav[58] utilizationEnergyMission 2022.957901001
scalar OsgEarthNet.uav[58] utilizationEnergyMaintenance 527.36200714112
scalar OsgEarthNet.uav[58] utilizationEnergyCharge 2711.0249023438
scalar OsgEarthNet.uav[58] utilizationEnergyOverdrawMission 0
scalar OsgEarthNet.uav[58] utilizationEnergyOverdrawMaintenance 0
scalar OsgEarthNet.uav[58] utilizationCountMissions 1
scalar OsgEarthNet.uav[58] utilizationCountManeuversMission 7
scalar OsgEarthNet.uav[58] utilizationCountManeuversMaintenance 2
scalar OsgEarthNet.uav[58] utilizationCountChargeState 1
scalar OsgEarthNet.uav[58] utilizationCountOverdrawnAfterMission 0
scalar OsgEarthNet.uav[58] utilizationCountIdleState 2
scalar OsgEarthNet.uav[58] utilizationFail 0
scalar OsgEarthNet.uav[58] simulationTime 259200
scalar OsgEarthNet.uav[59] utilizationSecMission 750.20472747826
scalar OsgEarthNet.uav[59] utilizationSecMaintenance 261.68051383311
scalar OsgEarthNet.uav[59] utilizationSecCharge 3750
scalar OsgEarthNet.uav[59] utilizationSecIdle 254438.11375869
scalar OsgEarthNet.uav[59] utilizationEnergyMission 3480.783493042
scalar OsgEarthNet.uav[59] utilizationEnergyMaintenance 1285.5285453796
scalar OsgEarthNet.uav[59] utilizationEnergyCharge 4766.3139648438
scalar OsgEarthNet.uav[59] utilizationEnergyOverdrawMission 0
scalar OsgEarthNet.uav[59] utilizationEnergyOverdrawMaintenance 0
scalar OsgEarthNet.uav[59] utilizationCountMissions 1
scalar OsgEarthNet.uav[59] utilizationCountManeuversMission 11
scalar OsgEarthNet.uav[59] utilizationCountManeuversMaintenance 2
scalar OsgEarthNet.uav[59] utilizationCountChargeState 1
scalar OsgEarthNet.uav[59] utilizationCountOverdrawnAfterMission 0
scalar OsgEarthNet.uav[59] utilizationCountIdleState 2
scalar OsgEarthNet.uav[59] utilizationFail 0
scalar OsgEarthNet.uav[59] simulationTime 259200
scalar OsgEarthNet.uav[60] utilizationSecMission 27910.73255594
scalar OsgEarthNet.uav[60] utilizationSecMaintenance 14153.092377778
scalar OsgEarthNet.uav[60] utilizationSecCharge 162550
scalar OsgEarthNet.uav[60] utilizationSecIdle 54586.174066282
scalar OsgEarthNet.uav[60] utilizationEnergyMission 129851.90641987
scalar OsgEarthNet.uav[60] utilizationEnergyMaintenance 65455.630081177
scalar OsgEarthNet.uav[60] utilizationEnergyCharge 193492.84667969
scalar OsgEarthNet.uav[60] utilizationEnergyOverdrawMission 0
scalar OsgEarthNet.uav[60] utilizationEnergyOverdrawMaintenance 0
scalar OsgEarthNet.uav[60] utilizationCountMissions 51
scalar OsgEarthNet.uav[60] utilizationCountManeuversMission 463
scalar OsgEarthNet.uav[60] utilizationCountManeuversMaintenance 103
scalar OsgEarthNet.uav[60] utilizationCountChargeState 51
scalar OsgEarthNet.uav[60] utilizationCountOverdrawnAfterMission 0
scalar OsgEarthNet.uav[60] utilizationCountIdleState 52
scalar OsgEarthNet.uav[60] utilizationFail 0
scalar OsgEarthNet.uav[60] simulationTime 259200
scalar OsgEarthNet.uav[61] utilizationSecMission 26377.418576574
scalar OsgEarthNet.uav[61] utilizationSecMaintenance 13495.27085055
scalar OsgEarthNet.uav[61] utilizationSecCharge 157749.99349105
scalar OsgEarthNet.uav[61] utilizationSecIdle 61577.316081831
scalar OsgEarthNet.uav[61] utilizationEnergyMission 123186.7859726
scalar OsgEarthNet.uav[61] utilizationEnergyMaintenance 64217.735137939
scalar OsgEarthNet.uav[61] utilizationEnergyCharge 187262.13427734
scalar OsgEarthNet.uav[61] utilizationEnergyOverdrawMission 0
scalar OsgEarthNet.uav[61] utilizationEnergyOverdrawMaintenance 0
scalar OsgEarthNet.uav[61] utilizationCountMissions 50
scalar OsgEarthNet.uav[61] utilizationCountManeuversMission 439
scalar OsgEarthNet.uav[61] utilizationCountManeuversMaintenance 100
scalar OsgEarthNet.uav[61] utilizationCountChargeState 50
scalar OsgEarthNet.uav[61] utilizationCountOverdrawnAfterMission 0
scalar OsgEarthNet.uav[61] utilizationCountIdleState 50
scalar OsgEarthNet.uav[61] utilizationFail 0
scalar OsgEarthNet.uav[61] simulationTime 259200
scalar OsgEarthNet.uav[62] utilizationSecMission 887.1741082606
scalar OsgEarthNet.uav[62] utilizationSecMaintenance 125.81102573108
scalar OsgEarthNet.uav[62] utilizationSecCharge 3620
scalar OsgEarthNet.uav[62] utilizationSecIdle 254567.01386601
scalar OsgEarthNet.uav[62] utilizationEnergyMission 3872.0194854736
scalar OsgEarthNet.uav[62] utilizationEnergyMaintenance 566.95915985108
scalar OsgEarthNet.uav[62] utilizationEnergyCharge 4497.9189453125
scalar OsgEarthNet.uav[62] utilizationEnergyOverdrawMission 0
scalar OsgEarthNet.uav[62] utilizationEnergyOverdrawMaintenance 0
scalar OsgEarthNet.uav[62] utilizationCountMissions 1
scalar OsgEarthNet.uav[62] utilizationCountManeuversMission 14
scalar OsgEarthNet.uav[62] utilizationCountManeuversMaintenance 2
scalar OsgEarthNet.uav[62] utilizationCountChargeState 1
scalar OsgEarthNet.uav[62] utilizationCountOverdrawnAfterMission 0
scalar OsgEarthNet.uav[62] utilizationCountIdleState 2
scalar OsgEarthNet.uav[62] utilizationFail 0
scalar OsgEarthNet.uav[62] simulationTime 259200
scalar OsgEarthNet.uav[63] utilizationSecMission 20277.488939356
scalar OsgEarthNet.uav[63] utilizationSecMaintenance 8898.2070081455
scalar OsgEarthNet.uav[63] utilizationSecCharge 111382.16519383
scalar OsgEarthNet.uav[63] utilizationSecIdle 118642.13785867
scalar OsgEarthNet.uav[63] utilizationEnergyMission 92843.774559021
scalar OsgEarthNet.uav[63] utilizationEnergyMaintenance 42571.730537415
scalar OsgEarthNet.uav[63] utilizationEnergyCharge 134087.52661133
scalar OsgEarthNet.uav[63] utilizationEnergyOverdrawMission 0
scalar OsgEarthNet.uav[63] utilizationEnergyOverdrawMaintenance 0
scalar OsgEarthNet.uav[63] utilizationCountMissions 35
scalar OsgEarthNet.uav[63] utilizationCountManeuversMission 314
scalar OsgEarthNet.uav[63] utilizationCountManeuversMaintenance 70
scalar OsgEarthNet.uav[63] utilizationCountChargeState 35
scalar OsgEarthNet.uav[63] utilizationCountOverdrawnAfterMission 0
scalar OsgEarthNet.uav[63] utilizationCountIdleState 35
scalar OsgEarthNet.uav[63] utilizationFail 0
scalar OsgEarthNet.uav[63] simulationTime 259200
scalar OsgEarthNet.uav[64] utilizationSecMission 15223.083145045
scalar OsgEarthNet.uav[64] utilizationSecMaintenance 12677.502989692
scalar OsgEarthNet.uav[64] utilizationSecCharge 111190
scalar OsgEarthNet.uav[64] utilizationSecIdle 120109.41286526
scalar OsgEarthNet.uav[64] utilizationEnergyMission 71147.95526886
scalar OsgEarthNet.uav[64] utilizationEnergyMaintenance 59178.724323273
scalar OsgEarthNet.uav[64] utilizationEnergyCharge 129940.42089844
scalar OsgEarthNet.uav[64] utilizationEnergyOverdrawMission 0
scalar OsgEarthNet.uav[64] utilizationEnergyOverdrawMaintenance 0
scalar OsgEarthNet.uav[64] utilizationCountMissions 36
scalar OsgEarthNet.uav[64] utilizationCountManeuversMission 254
scalar OsgEarthNet.uav[64] utilizationCountManeuversMaintenance 72
scalar OsgEarthNet.uav[64] utilizationCountChargeState 36
scalar OsgEarthNet.uav[64] utilizationCountOverdrawnAfterMission 0
scalar OsgEarthNet.uav[64] utilizationCountIdleState 37
scalar OsgEarthNet.uav[64] utilizationFail 0
scalar OsgEarthNet.uav[64] simulationTime 259200
scalar OsgEarthNet.uav[65] utilizationSecMission 22835.606409291
scalar OsgEarthNet.uav[65] utilizationSecMaintenance 13200.60434228
scalar OsgEarthNet.uav[65] utilizationSecCharge 141258.86964457
scalar OsgEarthNet.uav[65] utilizationSecIdle 81904.918603858
scalar OsgEarthNet.uav[65] utilizationEnergyMission 105173.50545502
[...]
scalar OsgEarthNet.uav[82] utilizationSecIdle 47225.659432111
scalar OsgEarthNet.uav[82] utilizationEnergyMission 139317.83259964
scalar OsgEarthNet.uav[82] utilizationEnergyMaintenance 59824.423412323
scalar OsgEarthNet.uav[82] utilizationEnergyCharge 199267.35424805
scalar OsgEarthNet.uav[82] utilizationEnergyOverdrawMission 0
scalar OsgEarthNet.uav[82] utilizationEnergyOverdrawMaintenance 0
scalar OsgEarthNet.uav[82] utilizationCountMissions 54
scalar OsgEarthNet.uav[82] utilizationCountManeuversMission 498
scalar OsgEarthNet.uav[82] utilizationCountManeuversMaintenance 108
scalar OsgEarthNet.uav[82] utilizationCountChargeState 54
scalar OsgEarthNet.uav[82] utilizationCountOverdrawnAfterMission 0
scalar OsgEarthNet.uav[82] utilizationCountIdleState 54
scalar OsgEarthNet.uav[82] utilizationFail 0
scalar OsgEarthNet.uav[82] simulationTime 259200
scalar OsgEarthNet.uav[83] utilizationSecMission 24158.364026147
scalar OsgEarthNet.uav[83] utilizationSecMaintenance 13330.741894195
scalar OsgEarthNet.uav[83] utilizationSecCharge 147242.21338412
scalar OsgEarthNet.uav[83] utilizationSecIdle 74468.679695537
scalar OsgEarthNet.uav[83] utilizationEnergyMission 112573.49337769
scalar OsgEarthNet.uav[83] utilizationEnergyMaintenance 62786.320999146
scalar OsgEarthNet.uav[83] utilizationEnergyCharge 173750.97436523
scalar OsgEarthNet.uav[83] utilizationEnergyOverdrawMission 0
scalar OsgEarthNet.uav[83] utilizationEnergyOverdrawMaintenance 0
scalar OsgEarthNet.uav[83] utilizationCountMissions 48
scalar OsgEarthNet.uav[83] utilizationCountManeuversMission 392
scalar OsgEarthNet.uav[83] utilizationCountManeuversMaintenance 96
scalar OsgEarthNet.uav[83] utilizationCountChargeState 48
scalar OsgEarthNet.uav[83] utilizationCountOverdrawnAfterMission 0
scalar OsgEarthNet.uav[83] utilizationCountIdleState 48
scalar OsgEarthNet.uav[83] utilizationFail 0
scalar OsgEarthNet.uav[83] simulationTime 259200
scalar OsgEarthNet.uav[84] utilizationSecMission 301.50602773369
scalar OsgEarthNet.uav[84] utilizationSecMaintenance 206.19350838146
scalar OsgEarthNet.uav[84] utilizationSecCharge 2510
scalar OsgEarthNet.uav[84] utilizationSecIdle 256182.29946388
scalar OsgEarthNet.uav[84] utilizationEnergyMission 1438.3030853271
scalar OsgEarthNet.uav[84] utilizationEnergyMaintenance 1059.4152450561
scalar OsgEarthNet.uav[84] utilizationEnergyCharge 2570.0388183594
scalar OsgEarthNet.uav[84] utilizationEnergyOverdrawMission 0
scalar OsgEarthNet.uav[84] utilizationEnergyOverdrawMaintenance 0
scalar OsgEarthNet.uav[84] utilizationCountMissions 1
scalar OsgEarthNet.uav[84] utilizationCountManeuversMission 6
scalar OsgEarthNet.uav[84] utilizationCountManeuversMaintenance 2
scalar OsgEarthNet.uav[84] utilizationCountChargeState 1
scalar OsgEarthNet.uav[84] utilizationCountOverdrawnAfterMission 0
scalar OsgEarthNet.uav[84] utilizationCountIdleState 2
scalar OsgEarthNet.uav[84] utilizationFail 0
scalar OsgEarthNet.uav[84] simulationTime 259200
scalar OsgEarthNet.uav[85] utilizationSecMission 694.00169469977
scalar OsgEarthNet.uav[85] utilizationSecMaintenance 229.48898285212
scalar OsgEarthNet.uav[85] utilizationSecCharge 3490
scalar OsgEarthNet.uav[85] utilizationSecIdle 254786.50832245
scalar OsgEarthNet.uav[85] utilizationEnergyMission 3354.3221359253
scalar OsgEarthNet.uav[85] utilizationEnergyMaintenance 985.79863739014
scalar OsgEarthNet.uav[85] utilizationEnergyCharge 4225.8334960938
scalar OsgEarthNet.uav[85] utilizationEnergyOverdrawMission 0
scalar OsgEarthNet.uav[85] utilizationEnergyOverdrawMaintenance 0
scalar OsgEarthNet.uav[85] utilizationCountMissions 1
scalar OsgEarthNet.uav[85] utilizationCountManeuversMission 13
scalar OsgEarthNet.uav[85] utilizationCountManeuversMaintenance 2
scalar OsgEarthNet.uav[85] utilizationCountChargeState 1
scalar OsgEarthNet.uav[85] utilizationCountOverdrawnAfterMission 0
scalar OsgEarthNet.uav[85] utilizationCountIdleState 2
scalar OsgEarthNet.uav[85] utilizationFail 0
scalar OsgEarthNet.uav[85] simulationTime 259200
scalar OsgEarthNet.uav[86] utilizationSecMission 750.20472747826
scalar OsgEarthNet.uav[86] utilizationSecMaintenance 261.68051383311
scalar OsgEarthNet.uav[86] utilizationSecCharge 3750
scalar OsgEarthNet.uav[86] utilizationSecIdle 254438.11375869
scalar OsgEarthNet.uav[86] utilizationEnergyMission 3501.1515197754
scalar OsgEarthNet.uav[86] utilizationEnergyMaintenance 1274.1694755554
scalar OsgEarthNet.uav[86] utilizationEnergyCharge 4775.3173828125
scalar OsgEarthNet.uav[86] utilizationEnergyOverdrawMission 0
scalar OsgEarthNet.uav[86] utilizationEnergyOverdrawMaintenance 0
scalar OsgEarthNet.uav[86] utilizationCountMissions 1
scalar OsgEarthNet.uav[86] utilizationCountManeuversMission 11
scalar OsgEarthNet.uav[86] utilizationCountManeuversMaintenance 2
scalar OsgEarthNet.uav[86] utilizationCountChargeState 1
scalar OsgEarthNet.uav[86] utilizationCountOverdrawnAfterMission 0
scalar OsgEarthNet.uav[86] utilizationCountIdleState 2
scalar OsgEarthNet.uav[86] utilizationFail 0
scalar OsgEarthNet.uav[86] simulationTime 259200
scalar OsgEarthNet.uav[87] utilizationSecMission 6676.3703709516
scalar OsgEarthNet.uav[87] utilizationSecMaintenance 3478.1945199833
scalar OsgEarthNet.uav[87] utilizationSecCharge 40370
scalar OsgEarthNet.uav[87] utilizationSecIdle 208675.43410907
scalar OsgEarthNet.uav[87] utilizationEnergyMission 31371.972930908
scalar OsgEarthNet.uav[87] utilizationEnergyMaintenance 16208.98134613
scalar OsgEarthNet.uav[87] utilizationEnergyCharge 47464.994873047
scalar OsgEarthNet.uav[87] utilizationEnergyOverdrawMission 0
scalar OsgEarthNet.uav[87] utilizationEnergyOverdrawMaintenance 0
scalar OsgEarthNet.uav[87] utilizationCountMissions 13
scalar OsgEarthNet.uav[87] utilizationCountManeuversMission 108
scalar OsgEarthNet.uav[87] utilizationCountManeuversMaintenance 26
scalar OsgEarthNet.uav[87] utilizationCountChargeState 13
scalar OsgEarthNet.uav[87] utilizationCountOverdrawnAfterMission 0
scalar OsgEarthNet.uav[87] utilizationCountIdleState 14
scalar OsgEarthNet.uav[87] utilizationFail 0
scalar OsgEarthNet.uav[87] simulationTime 259200
scalar OsgEarthNet.uav[88] utilizationSecMission 2082.0050840993
scalar OsgEarthNet.uav[88] utilizationSecMaintenance 668.71958354507
scalar OsgEarthNet.uav[88] utilizationSecCharge 10070
scalar OsgEarthNet.uav[88] utilizationSecIdle 246379.27433236
scalar OsgEarthNet.uav[88] utilizationEnergyMission 9422.9127044678
scalar OsgEarthNet.uav[88] utilizationEnergyMaintenance 2918.5953826904
scalar OsgEarthNet.uav[88] utilizationEnergyCharge 12210.226074219
scalar OsgEarthNet.uav[88] utilizationEnergyOverdrawMission 0
scalar OsgEarthNet.uav[88] utilizationEnergyOverdrawMaintenance 0
scalar OsgEarthNet.uav[88] utilizationCountMissions 3
scalar OsgEarthNet.uav[88] utilizationCountManeuversMission 39
scalar OsgEarthNet.uav[88] utilizationCountManeuversMaintenance 6
scalar OsgEarthNet.uav[88] utilizationCountChargeState 3
scalar OsgEarthNet.uav[88] utilizationCountOverdrawnAfterMission 0
scalar OsgEarthNet.uav[88] utilizationCountIdleState 4
scalar OsgEarthNet.uav[88] utilizationFail 0
scalar OsgEarthNet.uav[88] simulationTime 259200
scalar OsgEarthNet.uav[89] utilizationSecMission 23743.266833241
scalar OsgEarthNet.uav[89] utilizationSecMaintenance 11024.904085422
scalar OsgEarthNet.uav[89] utilizationSecCharge 137340.61723471
scalar OsgEarthNet.uav[89] utilizationSecIdle 87091.210846629
scalar OsgEarthNet.uav[89] utilizationEnergyMission 110069.42129517
scalar OsgEarthNet.uav[89] utilizationEnergyMaintenance 51064.802585602
scalar OsgEarthNet.uav[89] utilizationEnergyCharge 160677.15283203
scalar OsgEarthNet.uav[89] utilizationEnergyOverdrawMission 0
scalar OsgEarthNet.uav[89] utilizationEnergyOverdrawMaintenance 0
scalar OsgEarthNet.uav[89] utilizationCountMissions 45
scalar OsgEarthNet.uav[89] utilizationCountManeuversMission 389
scalar OsgEarthNet.uav[89] utilizationCountManeuversMaintenance 90
scalar OsgEarthNet.uav[89] utilizationCountChargeState 45
scalar OsgEarthNet.uav[89] utilizationCountOverdrawnAfterMission 0
scalar OsgEarthNet.uav[89] utilizationCountIdleState 45
scalar OsgEarthNet.uav[89] utilizationFail 0
scalar OsgEarthNet.uav[89] simulationTime 259200
scalar OsgEarthNet.uav[90] utilizationSecMission 31041.9075264
scalar OsgEarthNet.uav[90] utilizationSecMaintenance 13719.184598621
scalar OsgEarthNet.uav[90] utilizationSecCharge 170646.90687498
scalar OsgEarthNet.uav[90] utilizationSecIdle 43792
scalar OsgEarthNet.uav[90] utilizationEnergyMission 143298.65133838
scalar OsgEarthNet.uav[90] utilizationEnergyMaintenance 65040.692832947
scalar OsgEarthNet.uav[90] utilizationEnergyCharge 203624.95776367
scalar OsgEarthNet.uav[90] utilizationEnergyOverdrawMission 0
scalar OsgEarthNet.uav[90] utilizationEnergyOverdrawMaintenance 0
scalar OsgEarthNet.uav[90] utilizationCountMissions 54
scalar OsgEarthNet.uav[90] utilizationCountManeuversMission 502
scalar OsgEarthNet.uav[90] utilizationCountManeuversMaintenance 107
scalar OsgEarthNet.uav[90] utilizationCountChargeState 54
scalar OsgEarthNet.uav[90] utilizationCountOverdrawnAfterMission 0
scalar OsgEarthNet.uav[90] utilizationCountIdleState 54
scalar OsgEarthNet.uav[90] utilizationFail 0
scalar OsgEarthNet.uav[90] simulationTime 259200
scalar OsgEarthNet.uav[91] utilizationSecMission 466.91628806113
scalar OsgEarthNet.uav[91] utilizationSecMaintenance 752.4319136611
scalar OsgEarthNet.uav[91] utilizationSecCharge 5360
scalar OsgEarthNet.uav[91] utilizationSecIdle 252620.65079828
scalar OsgEarthNet.uav[91] utilizationEnergyMission 1891.6079330444
scalar OsgEarthNet.uav[91] utilizationEnergyMaintenance 3582.3556556702
scalar OsgEarthNet.uav[91] utilizationEnergyCharge 5756.7700195312
scalar OsgEarthNet.uav[91] utilizationEnergyOverdrawMission 0
scalar OsgEarthNet.uav[91] utilizationEnergyOverdrawMaintenance 0
scalar OsgEarthNet.uav[91] utilizationCountMissions 2
scalar OsgEarthNet.uav[91] utilizationCountManeuversMission 8
scalar OsgEarthNet.uav[91] utilizationCountManeuversMaintenance 4
scalar OsgEarthNet.uav[91] utilizationCountChargeState 2
scalar OsgEarthNet.uav[91] utilizationCountOverdrawnAfterMission 0
scalar OsgEarthNet.uav[91] utilizationCountIdleState 3
scalar OsgEarthNet.uav[91] utilizationFail 0
scalar OsgEarthNet.uav[91] simulationTime 259200
scalar OsgEarthNet.uav[92] utilizationSecMission 2260.1819048986
scalar OsgEarthNet.uav[92] utilizationSecMaintenance 780.25442988366
scalar OsgEarthNet.uav[92] utilizationSecCharge 12020
scalar OsgEarthNet.uav[92] utilizationSecIdle 244139.56266522
scalar OsgEarthNet.uav[92] utilizationEnergyMission 10313.138046265
scalar OsgEarthNet.uav[92] utilizationEnergyMaintenance 3494.1486320496
scalar OsgEarthNet.uav[92] utilizationEnergyCharge 13750.770751953
scalar OsgEarthNet.uav[92] utilizationEnergyOverdrawMission 0
scalar OsgEarthNet.uav[92] utilizationEnergyOverdrawMaintenance 0
scalar OsgEarthNet.uav[92] utilizationCountMissions 4
scalar OsgEarthNet.uav[92] utilizationCountManeuversMission 35
scalar OsgEarthNet.uav[92] utilizationCountManeuversMaintenance 8
scalar OsgEarthNet.uav[92] utilizationCountChargeState 4
scalar OsgEarthNet.uav[92] utilizationCountOverdrawnAfterMission 0
scalar OsgEarthNet.uav[92] utilizationCountIdleState 5
scalar OsgEarthNet.uav[92] utilizationFail 0
scalar OsgEarthNet.uav[92] simulationTime 259200
scalar OsgEarthNet.uav[93] utilizationSecMission 30103.981906726
scalar OsgEarthNet.uav[93] utilizationSecMaintenance 13027.827955499
scalar OsgEarthNet.uav[93] utilizationSecCharge 167516.674472
scalar OsgEarthNet.uav[93] utilizationSecIdle 48551.514665779
scalar OsgEarthNet.uav[93] utilizationEnergyMission 139678.98500061
scalar OsgEarthNet.uav[93] utilizationEnergyMaintenance 62543.272953033
scalar OsgEarthNet.uav[93] utilizationEnergyCharge 202178.64868164
scalar OsgEarthNet.uav[93] utilizationEnergyOverdrawMission 0
scalar OsgEarthNet.uav[93] utilizationEnergyOverdrawMaintenance 0
scalar OsgEarthNet.uav[93] utilizationCountMissions 52
scalar OsgEarthNet.uav[93] utilizationCountManeuversMission 480
scalar OsgEarthNet.uav[93] utilizationCountManeuversMaintenance 104
scalar OsgEarthNet.uav[93] utilizationCountChargeState 52
scalar OsgEarthNet.uav[93] utilizationCountOverdrawnAfterMission 0
scalar OsgEarthNet.uav[93] utilizationCountIdleState 52
scalar OsgEarthNet.uav[93] utilizationFail 0
scalar OsgEarthNet.uav[93] simulationTime 259200
scalar OsgEarthNet.uav[94] utilizationSecMission 28064.928495544
scalar OsgEarthNet.uav[94] utilizationSecMaintenance 14901.663406221
scalar OsgEarthNet.uav[94] utilizationSecCharge 167428.79520872
scalar OsgEarthNet.uav[94] utilizationSecIdle 48804.611889516
scalar OsgEarthNet.uav[94] utilizationEnergyMission 129193.979599
scalar OsgEarthNet.uav[94] utilizationEnergyMaintenance 70140.508514404
scalar OsgEarthNet.uav[94] utilizationEnergyCharge 198322.97119141
scalar OsgEarthNet.uav[94] utilizationEnergyOverdrawMission 0
scalar OsgEarthNet.uav[94] utilizationEnergyOverdrawMaintenance 0
scalar OsgEarthNet.uav[94] utilizationCountMissions 54
scalar OsgEarthNet.uav[94] utilizationCountManeuversMission 464
scalar OsgEarthNet.uav[94] utilizationCountManeuversMaintenance 108
scalar OsgEarthNet.uav[94] utilizationCountChargeState 54
scalar OsgEarthNet.uav[94] utilizationCountOverdrawnAfterMission 0
scalar OsgEarthNet.uav[94] utilizationCountIdleState 54
scalar OsgEarthNet.uav[94] utilizationFail 0
scalar OsgEarthNet.uav[94] simulationTime 259200
scalar OsgEarthNet.uav[95] utilizationSecMission 26965.227289532
scalar OsgEarthNet.uav[95] utilizationSecMaintenance 15343.804861508
scalar OsgEarthNet.uav[95] utilizationSecCharge 168218.96684896
scalar OsgEarthNet.uav[95] utilizationSecIdle 48672
scalar OsgEarthNet.uav[95] utilizationEnergyMission 124660.21921257
scalar OsgEarthNet.uav[95] utilizationEnergyMaintenance 72411.772163391
scalar OsgEarthNet.uav[95] utilizationEnergyCharge 196321.11572266
scalar OsgEarthNet.uav[95] utilizationEnergyOverdrawMission 0
scalar OsgEarthNet.uav[95] utilizationEnergyOverdrawMaintenance 0
scalar OsgEarthNet.uav[95] utilizationCountMissions 56
scalar OsgEarthNet.uav[95] utilizationCountManeuversMission 435
scalar OsgEarthNet.uav[95] utilizationCountManeuversMaintenance 111
scalar OsgEarthNet.uav[95] utilizationCountChargeState 56
scalar OsgEarthNet.uav[95] utilizationCountOverdrawnAfterMission 0
scalar OsgEarthNet.uav[95] utilizationCountIdleState 56
scalar OsgEarthNet.uav[95] utilizationFail 0
scalar OsgEarthNet.uav[95] simulationTime 259200
scalar OsgEarthNet.uav[96] utilizationSecMission 27314.860318711
scalar OsgEarthNet.uav[96] utilizationSecMaintenance 13801.792824972
scalar OsgEarthNet.uav[96] utilizationSecCharge 158585.91947521
scalar OsgEarthNet.uav[96] utilizationSecIdle 59497.426381102
scalar OsgEarthNet.uav[96] utilizationEnergyMission 125514.30380249
scalar OsgEarthNet.uav[96] utilizationEnergyMaintenance 64888.933917999
scalar OsgEarthNet.uav[96] utilizationEnergyCharge 190243.92944336
scalar OsgEarthNet.uav[96] utilizationEnergyOverdrawMission 0
scalar OsgEarthNet.uav[96] utilizationEnergyOverdrawMaintenance 0
scalar OsgEarthNet.uav[96] utilizationCountMissions 49
scalar OsgEarthNet.uav[96] utilizationCountManeuversMission 448
scalar OsgEarthNet.uav[96] utilizationCountManeuversMaintenance 98
scalar OsgEarthNet.uav[96] utilizationCountChargeState 49
scalar OsgEarthNet.uav[96] utilizationCountOverdrawnAfterMission 0
scalar OsgEarthNet.uav[96] utilizationCountIdleState 49
scalar OsgEarthNet.uav[96] utilizationFail 0
scalar OsgEarthNet.uav[96] simulationTime 259200
scalar OsgEarthNet.uav[97] utilizationSecMission 25847.796086811
scalar OsgEarthNet.uav[97] utilizationSecMaintenance 13478.534735201
scalar OsgEarthNet.uav[97] utilizationSecCharge 154170
scalar OsgEarthNet.uav[97] utilizationSecIdle 65703.668177988
scalar OsgEarthNet.uav[97] utilizationEnergyMission 117918.69167877
scalar OsgEarthNet.uav[97] utilizationEnergyMaintenance 63463.36359024
scalar OsgEarthNet.uav[97] utilizationEnergyCharge 180655.17700195
scalar OsgEarthNet.uav[97] utilizationEnergyOverdrawMission 0
scalar OsgEarthNet.uav[97] utilizationEnergyOverdrawMaintenance 0
scalar OsgEarthNet.uav[97] utilizationCountMissions 50
scalar OsgEarthNet.uav[97] utilizationCountManeuversMission 420
scalar OsgEarthNet.uav[97] utilizationCountManeuversMaintenance 101
scalar OsgEarthNet.uav[97] utilizationCountChargeState 50
scalar OsgEarthNet.uav[97] utilizationCountOverdrawnAfterMission 0
scalar OsgEarthNet.uav[97] utilizationCountIdleState 50
scalar OsgEarthNet.uav[97] utilizationFail 0
scalar OsgEarthNet.uav[97] simulationTime 259200
scalar OsgEarthNet.uav[98] utilizationSecMission 6719.5914093681
scalar OsgEarthNet.uav[98] utilizationSecMaintenance 3596.5495089893
scalar OsgEarthNet.uav[98] utilizationSecCharge 38635.909183546
scalar OsgEarthNet.uav[98] utilizationSecIdle 210247.9488981
scalar OsgEarthNet.uav[98] utilizationEnergyMission 31341.809631348
scalar OsgEarthNet.uav[98] utilizationEnergyMaintenance 17402.431846619
scalar OsgEarthNet.uav[98] utilizationEnergyCharge 46133.359130859
scalar OsgEarthNet.uav[98] utilizationEnergyOverdrawMission 0
scalar OsgEarthNet.uav[98] utilizationEnergyOverdrawMaintenance 0
scalar OsgEarthNet.uav[98] utilizationCountMissions 13
scalar OsgEarthNet.uav[98] utilizationCountManeuversMission 111
scalar OsgEarthNet.uav[98] utilizationCountManeuversMaintenance 26
scalar OsgEarthNet.uav[98] utilizationCountChargeState 13
scalar OsgEarthNet.uav[98] utilizationCountOverdrawnAfterMission 0
scalar OsgEarthNet.uav[98] utilizationCountIdleState 13
scalar OsgEarthNet.uav[98] utilizationFail 0
scalar OsgEarthNet.uav[98] simulationTime 259200
scalar OsgEarthNet.uav[99] utilizationSecMission 11212.735206414
scalar OsgEarthNet.uav[99] utilizationSecMaintenance 9920.6527071697
scalar OsgEarthNet.uav[99] utilizationSecCharge 85000
scalar OsgEarthNet.uav[99] utilizationSecIdle 153066.61108642
scalar OsgEarthNet.uav[99] utilizationEnergyMission 51749.350784302
scalar OsgEarthNet.uav[99] utilizationEnergyMaintenance 47153.107894897
scalar OsgEarthNet.uav[99] utilizationEnergyCharge 98670.423095703
scalar OsgEarthNet.uav[99] utilizationEnergyOverdrawMission 0
scalar OsgEarthNet.uav[99] utilizationEnergyOverdrawMaintenance 0
scalar OsgEarthNet.uav[99] utilizationCountMissions 28
scalar OsgEarthNet.uav[99] utilizationCountManeuversMission 179
scalar OsgEarthNet.uav[99] utilizationCountManeuversMaintenance 56
scalar OsgEarthNet.uav[99] utilizationCountChargeState 28
scalar OsgEarthNet.uav[99] utilizationCountOverdrawnAfterMission 0
scalar OsgEarthNet.uav[99] utilizationCountIdleState 29
scalar OsgEarthNet.uav[99] utilizationFail 0
scalar OsgEarthNet.uav[99] simulationTime 259200
scalar OsgEarthNet.cs[0] usedPower 330455.11653536
scalar OsgEarthNet.cs[0] chargedPower 330455.11653536
scalar OsgEarthNet.cs[0] chargedMobileNodes 126
scalar OsgEarthNet.cs[0] reservations 128
scalar OsgEarthNet.cs[1] usedPower 844863.28303956
scalar OsgEarthNet.cs[1] chargedPower 844863.28303956
scalar OsgEarthNet.cs[1] chargedMobileNodes 312
scalar OsgEarthNet.cs[1] reservations 316
scalar OsgEarthNet.cs[2] usedPower 3572051.4793575
scalar OsgEarthNet.cs[2] chargedPower 3572051.4793575
scalar OsgEarthNet.cs[2] chargedMobileNodes 938
scalar OsgEarthNet.cs[2] reservations 951
scalar OsgEarthNet.cs[3] usedPower 0
scalar OsgEarthNet.cs[3] chargedPower 0
scalar OsgEarthNet.cs[3] chargedMobileNodes 0
scalar OsgEarthNet.cs[3] reservations 0
scalar OsgEarthNet.cs[4] usedPower 999363.12905284
scalar OsgEarthNet.cs[4] chargedPower 999363.12905284
scalar OsgEarthNet.cs[4] chargedMobileNodes 229
scalar OsgEarthNet.cs[4] reservations 233
scalar OsgEarthNet.cs[5] usedPower 1544324.9831204
scalar OsgEarthNet.cs[5] chargedPower 1544324.9831204
scalar OsgEarthNet.cs[5] chargedMobileNodes 362
scalar OsgEarthNet.cs[5] reservations 367
scalar OsgEarthNet.cs[6] usedPower 1428325.3041153
scalar OsgEarthNet.cs[6] chargedPower 1428325.3041153
scalar OsgEarthNet.cs[6] chargedMobileNodes 372
scalar OsgEarthNet.cs[6] reservations 377

