version 2
run Szenario_Hotel_Gabelbach-17-20180708-23:53:55-26096
attr configname Szenario_Hotel_Gabelbach
attr datetime 20180708-23:53:55
attr experiment Szenario_Hotel_Gabelbach
attr inifile omnetpp.ini
attr iterationvars $replM=0
attr iterationvarsf replM=0-
attr measurement $replM=0
attr network OsgEarthNet
attr processid 26096
attr repetition 17
attr replication #17
attr resultdir results
attr runnumber 17
attr seedset 17
itervar replM 0
param *.osgEarthScene.scene "\"Szenario_Hotel_Gabelbach.earth\""
param *.playgroundLatitude 50.6830269
param *.playgroundLongitude 10.8538055
param *.playgroundWidth 3500m
param *.playgroundHeight 3500m
param *.numUAVs 100
param *.cs[0].posX 3537m
param *.cs[0].posY 965m
param *.cs[0].posZ 538m
param *.cs[1].posX 312m
param *.cs[1].posY 1262m
param *.cs[1].posZ 539m
param *.cs[2].posX 2185m
param *.cs[2].posY 3026m
param *.cs[2].posZ 777m
param *.cs[3].posX 10m
param *.cs[3].posY 2200m
param *.cs[3].posZ 560m
param *.cs[4].posX 750m
param *.cs[4].posY 200m
param *.cs[4].posZ 540m
param *.cs[5].posX 2450m
param *.cs[5].posY 180m
param *.cs[5].posZ 524m
param *.cs[6].posX 3140m
param *.cs[6].posY 1790m
param *.cs[6].posZ 606m
param *.numCSs 7
param *.uav[*].replacementMethod 0
param *.*.timeStep 10s
param *.uav[*].commandPreviewCommandCount 20
param *.missionControl.missionFiles "\"missions\\\\Szenario_WB_Hotel_Gabelbach_Mission_Hotel.waypoints,missions\\\\Szenario_WB_Hotel_Gabelbach_Mission_Kickelhahn.waypoints,missions\\\\Szenario_WB_Hotel_Gabelbach_Mission_Ilmenau_Sportplatz.waypoints,missions\\\\Szenario_WB_Hotel_Gabelbach_Mission_Manebach_Mitte.waypoints,missions\\\\Szenario_WB_Hotel_Gabelbach_Mission_Manebach_Sued.waypoints\""
param *.missionControl.missionFiles "\"missions\\\\Szenario_WB_Hotel_Gabelbach_Mission_Hotel.waypoints,missions\\\\Szenario_WB_Hotel_Gabelbach_Mission_Kickelhahn.waypoints,missions\\\\Szenario_WB_Hotel_Gabelbach_Mission_Ilmenau_Sportplatz.waypoints,missions\\\\Szenario_WB_Hotel_Gabelbach_Mission_Manebach_Mitte.waypoints,missions\\\\Szenario_WB_Hotel_Gabelbach_Mission_Manebach_Sued.waypoints,missions\\\\Szenario_WB_Hotel_Gabelbach_Hover_HoheSchlaufe.waypoints,missions\\\\Szenario_WB_Hotel_Gabelbach_Hover_Kickelhahn.waypoints,missions\\\\Szenario_WB_Hotel_Gabelbach_Hover_Gabelbachskopf.waypoints,missions\\\\Szenario_WB_Hotel_Gabelbach_Hover_Dachskopf.waypoints\""
param *.uav[0].startX 3537m
param *.uav[0].startY 965m
param *.uav[0].startZ 539m
param *.uav[1].startX 312m
param *.uav[1].startY 1262m
param *.uav[1].startZ 540m
param *.uav[2].startX 2185m
param *.uav[2].startY 3026m
param *.uav[2].startZ 778m
param *.uav[3].startX 3537m
param *.uav[3].startY 965m
param *.uav[3].startZ 539m
param *.uav[4].startX 312m
param *.uav[4].startY 1262m
param *.uav[4].startZ 540m
param *.uav[5].startX 2185m
param *.uav[5].startY 3026m
param *.uav[5].startZ 778m
param *.uav[6].startX 3537m
param *.uav[6].startY 965m
param *.uav[6].startZ 539m
param *.uav[7].startX 312m
param *.uav[7].startY 1262m
param *.uav[7].startZ 540m
param *.uav[8].startX 2185m
param *.uav[8].startY 3026m
param *.uav[8].startZ 778m
param *.uav[9].startX 3537m
param *.uav[9].startY 965m
param *.uav[9].startZ 539m
param *.uav[10].startX 3537m
param *.uav[10].startY 965m
param *.uav[10].startZ 539m
param *.uav[11].startX 312m
param *.uav[11].startY 1262m
param *.uav[11].startZ 540m
param *.uav[12].startX 2185m
param *.uav[12].startY 3026m
param *.uav[12].startZ 778m
param *.uav[13].startX 3537m
param *.uav[13].startY 965m
param *.uav[13].startZ 539m
param *.uav[14].startX 312m
param *.uav[14].startY 1262m
param *.uav[14].startZ 540m
param *.uav[15].startX 2185m
param *.uav[15].startY 3026m
param *.uav[15].startZ 778m
param *.uav[16].startX 3537m
param *.uav[16].startY 965m
param *.uav[16].startZ 539m
param *.uav[17].startX 312m
param *.uav[17].startY 1262m
param *.uav[17].startZ 540m
param *.uav[18].startX 2185m
param *.uav[18].startY 3026m
param *.uav[18].startZ 778m
param *.uav[19].startX 3537m
param *.uav[19].startY 965m
param *.uav[19].startZ 539m
param *.uav[20].startX 3537m
param *.uav[20].startY 965m
param *.uav[20].startZ 539m
param *.uav[21].startX 312m
param *.uav[21].startY 1262m
param *.uav[21].startZ 540m
param *.uav[22].startX 2185m
param *.uav[22].startY 3026m
param *.uav[22].startZ 778m
param *.uav[23].startX 3537m
param *.uav[23].startY 965m
param *.uav[23].startZ 539m
param *.uav[24].startX 312m
param *.uav[24].startY 1262m
param *.uav[24].startZ 540m
param *.uav[25].startX 2185m
param *.uav[25].startY 3026m
param *.uav[25].startZ 778m
param *.uav[26].startX 3537m
param *.uav[26].startY 965m
param *.uav[26].startZ 539m
param *.uav[27].startX 312m
param *.uav[27].startY 1262m
param *.uav[27].startZ 540m
param *.uav[28].startX 2185m
param *.uav[28].startY 3026m
param *.uav[28].startZ 778m
param *.uav[29].startX 3537m
param *.uav[29].startY 965m
param *.uav[29].startZ 539m
param *.uav[30].startX 3537m
param *.uav[30].startY 965m
param *.uav[30].startZ 539m
param *.uav[31].startX 312m
param *.uav[31].startY 1262m
param *.uav[31].startZ 540m
param *.uav[32].startX 2185m
param *.uav[32].startY 3026m
param *.uav[32].startZ 778m
param *.uav[33].startX 3537m
param *.uav[33].startY 965m
param *.uav[33].startZ 539m
param *.uav[34].startX 312m
param *.uav[34].startY 1262m
param *.uav[34].startZ 540m
param *.uav[35].startX 2185m
param *.uav[35].startY 3026m
param *.uav[35].startZ 778m
param *.uav[36].startX 3537m
param *.uav[36].startY 965m
param *.uav[36].startZ 539m
param *.uav[37].startX 312m
param *.uav[37].startY 1262m
param *.uav[37].startZ 540m
param *.uav[38].startX 2185m
param *.uav[38].startY 3026m
param *.uav[38].startZ 778m
param *.uav[39].startX 3537m
param *.uav[39].startY 965m
param *.uav[39].startZ 539m
param *.uav[40].startX 3537m
param *.uav[40].startY 965m
param *.uav[40].startZ 539m
param *.uav[41].startX 312m
param *.uav[41].startY 1262m
param *.uav[41].startZ 540m
param *.uav[42].startX 2185m
param *.uav[42].startY 3026m
param *.uav[42].startZ 778m
param *.uav[43].startX 3537m
param *.uav[43].startY 965m
param *.uav[43].startZ 539m
param *.uav[44].startX 312m
param *.uav[44].startY 1262m
param *.uav[44].startZ 540m
param *.uav[45].startX 2185m
param *.uav[45].startY 3026m
param *.uav[45].startZ 778m
param *.uav[46].startX 3537m
param *.uav[46].startY 965m
param *.uav[46].startZ 539m
param *.uav[47].startX 312m
param *.uav[47].startY 1262m
param *.uav[47].startZ 540m
param *.uav[48].startX 2185m
param *.uav[48].startY 3026m
param *.uav[48].startZ 778m
param *.uav[49].startX 3537m
param *.uav[49].startY 965m
param *.uav[49].startZ 539m
param *.uav[50].startX 3537m
param *.uav[50].startY 965m
param *.uav[50].startZ 539m
param *.uav[51].startX 312m
param *.uav[51].startY 1262m
param *.uav[51].startZ 540m
param *.uav[52].startX 2185m
param *.uav[52].startY 3026m
param *.uav[52].startZ 778m
param *.uav[53].startX 3537m
param *.uav[53].startY 965m
param *.uav[53].startZ 539m
param *.uav[54].startX 312m
param *.uav[54].startY 1262m
param *.uav[54].startZ 540m
param *.uav[55].startX 2185m
param *.uav[55].startY 3026m
param *.uav[55].startZ 778m
param *.uav[56].startX 3537m
param *.uav[56].startY 965m
param *.uav[56].startZ 539m
param *.uav[57].startX 312m
param *.uav[57].startY 1262m
param *.uav[57].startZ 540m
param *.uav[58].startX 2185m
param *.uav[58].startY 3026m
param *.uav[58].startZ 778m
param *.uav[59].startX 3537m
param *.uav[59].startY 965m
param *.uav[59].startZ 539m
param *.uav[60].startX 3537m
param *.uav[60].startY 965m
param *.uav[60].startZ 539m
param *.uav[61].startX 312m
param *.uav[61].startY 1262m
param *.uav[61].startZ 540m
param *.uav[62].startX 2185m
param *.uav[62].startY 3026m
param *.uav[62].startZ 778m
param *.uav[63].startX 3537m
param *.uav[63].startY 965m
param *.uav[63].startZ 539m
param *.uav[64].startX 312m
param *.uav[64].startY 1262m
param *.uav[64].startZ 540m
param *.uav[65].startX 2185m
param *.uav[65].startY 3026m
param *.uav[65].startZ 778m
param *.uav[66].startX 3537m
param *.uav[66].startY 965m
param *.uav[66].startZ 539m
param *.uav[67].startX 312m
param *.uav[67].startY 1262m
param *.uav[67].startZ 540m
param *.uav[68].startX 2185m
param *.uav[68].startY 3026m
param *.uav[68].startZ 778m
param *.uav[69].startX 3537m
param *.uav[69].startY 965m
param *.uav[69].startZ 539m
param *.uav[70].startX 3537m
param *.uav[70].startY 965m
param *.uav[70].startZ 539m
param *.uav[71].startX 312m
param *.uav[71].startY 1262m
param *.uav[71].startZ 540m
param *.uav[72].startX 2185m
param *.uav[72].startY 3026m
param *.uav[72].startZ 778m
param *.uav[73].startX 3537m
param *.uav[73].startY 965m
param *.uav[73].startZ 539m
param *.uav[74].startX 312m
param *.uav[74].startY 1262m
param *.uav[74].startZ 540m
param *.uav[75].startX 2185m
param *.uav[75].startY 3026m
param *.uav[75].startZ 778m
param *.uav[76].startX 3537m
param *.uav[76].startY 965m
param *.uav[76].startZ 539m
param *.uav[77].startX 312m
param *.uav[77].startY 1262m
param *.uav[77].startZ 540m
param *.uav[78].startX 2185m
param *.uav[78].startY 3026m
param *.uav[78].startZ 778m
param *.uav[79].startX 3537m
param *.uav[79].startY 965m
param *.uav[79].startZ 539m
param *.uav[80].startX 3537m
param *.uav[80].startY 965m
param *.uav[80].startZ 539m
param *.uav[81].startX 312m
param *.uav[81].startY 1262m
param *.uav[81].startZ 540m
param *.uav[82].startX 2185m
param *.uav[82].startY 3026m
param *.uav[82].startZ 778m
param *.uav[83].startX 3537m
param *.uav[83].startY 965m
param *.uav[83].startZ 539m
param *.uav[84].startX 312m
param *.uav[84].startY 1262m
param *.uav[84].startZ 540m
param *.uav[85].startX 2185m
param *.uav[85].startY 3026m
param *.uav[85].startZ 778m
param *.uav[86].startX 3537m
param *.uav[86].startY 965m
param *.uav[86].startZ 539m
param *.uav[87].startX 312m
param *.uav[87].startY 1262m
param *.uav[87].startZ 540m
param *.uav[88].startX 2185m
param *.uav[88].startY 3026m
param *.uav[88].startZ 778m
param *.uav[89].startX 3537m
param *.uav[89].startY 965m
param *.uav[89].startZ 539m
param *.uav[90].startX 3537m
param *.uav[90].startY 965m
param *.uav[90].startZ 539m
param *.uav[91].startX 312m
param *.uav[91].startY 1262m
param *.uav[91].startZ 540m
param *.uav[92].startX 2185m
param *.uav[92].startY 3026m
param *.uav[92].startZ 778m
param *.uav[93].startX 3537m
param *.uav[93].startY 965m
param *.uav[93].startZ 539m
param *.uav[94].startX 312m
param *.uav[94].startY 1262m
param *.uav[94].startZ 540m
param *.uav[95].startX 2185m
param *.uav[95].startY 3026m
param *.uav[95].startZ 778m
param *.uav[96].startX 3537m
param *.uav[96].startY 965m
param *.uav[96].startZ 539m
param *.uav[97].startX 312m
param *.uav[97].startY 1262m
param *.uav[97].startZ 540m
param *.uav[98].startX 2185m
param *.uav[98].startY 3026m
param *.uav[98].startZ 778m
param *.uav[99].startX 3537m
param *.uav[99].startY 965m
param *.uav[99].startZ 539m
param *.osgEarthScene.scene "\"boston.earth\""
param *.playgroundLatitude 42.3558
param *.playgroundLongitude -71.0677
param *.playgroundWidth 400m
param *.playgroundHeight 200m
param *.channelController.connectionColor "\"#0000FF40\""
param *.channelController.showConnections false
param *.uav[*].modelURL "\"quadrocopter.small.obj.15.scale.0,0,90.rot\""
param *.uav[*].labelColor "\"#FF7C00CC\""
param *.uav[*].label2Color "\"#FF7C00EE\""
param *.uav[*].batteryCapacity 5200mAh
param *.uav[*].batteryRemaining uav[index].batteryCapacity
param *.uav[*].predictionQuantile 0.95
param *.uav[*].replacementMethod 2
param *.uav[*].weightedSumWeight 0.5
param *.cs[*].modelURL "\"chargingstation_v1.osgt.2.scale.0,0,0.rot.0,0,-15e-1.trans\""
param *.cs[*].spotsWaiting 999
param *.cs[*].spotsCharging 999
param *.cs[*].chargeEffectivenessPercentage 100
param *.cs[*].nonLinearPhaseStartPercentage 85
param *.cs[*].chargeCurrent 6.0A
param *.cs[*].prioritizeFastCharge true
param *.missionControl.replacementSearchMethod 0
param *.*.timeStep 9s

scalar OsgEarthNet.uav[0] utilizationSecMission 836.77707522227
scalar OsgEarthNet.uav[0] utilizationSecMaintenance 217.0347828456
scalar OsgEarthNet.uav[0] utilizationSecCharge 3740
scalar OsgEarthNet.uav[0] utilizationSecIdle 254406.18714193
scalar OsgEarthNet.uav[0] utilizationEnergyMission 3712.1378097534
scalar OsgEarthNet.uav[0] utilizationEnergyMaintenance 994.84132003784
scalar OsgEarthNet.uav[0] utilizationEnergyCharge 4706.9780273438
scalar OsgEarthNet.uav[0] utilizationEnergyOverdrawMission 0
scalar OsgEarthNet.uav[0] utilizationEnergyOverdrawMaintenance 0
scalar OsgEarthNet.uav[0] utilizationCountMissions 1
scalar OsgEarthNet.uav[0] utilizationCountManeuversMission 13
scalar OsgEarthNet.uav[0] utilizationCountManeuversMaintenance 2
scalar OsgEarthNet.uav[0] utilizationCountChargeState 1
scalar OsgEarthNet.uav[0] utilizationCountOverdrawnAfterMission 0
scalar OsgEarthNet.uav[0] utilizationCountIdleState 2
scalar OsgEarthNet.uav[0] utilizationFail 0
scalar OsgEarthNet.uav[0] simulationTime 259200
scalar OsgEarthNet.uav[1] utilizationSecMission 27848.96736603
scalar OsgEarthNet.uav[1] utilizationSecMaintenance 9888.3437498128
scalar OsgEarthNet.uav[1] utilizationSecCharge 136594.10574196
scalar OsgEarthNet.uav[1] utilizationSecIdle 84868.582142193
scalar OsgEarthNet.uav[1] utilizationEnergyMission 129144.97745514
scalar OsgEarthNet.uav[1] utilizationEnergyMaintenance 46016.134181976
scalar OsgEarthNet.uav[1] utilizationEnergyCharge 172428.3046875
scalar OsgEarthNet.uav[1] utilizationEnergyOverdrawMission 0
scalar OsgEarthNet.uav[1] utilizationEnergyOverdrawMaintenance 0
scalar OsgEarthNet.uav[1] utilizationCountMissions 37
scalar OsgEarthNet.uav[1] utilizationCountManeuversMission 462
scalar OsgEarthNet.uav[1] utilizationCountManeuversMaintenance 74
scalar OsgEarthNet.uav[1] utilizationCountChargeState 37
scalar OsgEarthNet.uav[1] utilizationCountOverdrawnAfterMission 0
scalar OsgEarthNet.uav[1] utilizationCountIdleState 37
scalar OsgEarthNet.uav[1] utilizationFail 0
scalar OsgEarthNet.uav[1] simulationTime 259200
scalar OsgEarthNet.uav[2] utilizationSecMission 694.00169469977
scalar OsgEarthNet.uav[2] utilizationSecMaintenance 338.49695459722
scalar OsgEarthNet.uav[2] utilizationSecCharge 3710
scalar OsgEarthNet.uav[2] utilizationSecIdle 254457.5003507
scalar OsgEarthNet.uav[2] utilizationEnergyMission 3050.8900604248
scalar OsgEarthNet.uav[2] utilizationEnergyMaintenance 1573.5471916199
scalar OsgEarthNet.uav[2] utilizationEnergyCharge 4624.4326171875
scalar OsgEarthNet.uav[2] utilizationEnergyOverdrawMission 0
scalar OsgEarthNet.uav[2] utilizationEnergyOverdrawMaintenance 0
scalar OsgEarthNet.uav[2] utilizationCountMissions 1
scalar OsgEarthNet.uav[2] utilizationCountManeuversMission 13
scalar OsgEarthNet.uav[2] utilizationCountManeuversMaintenance 2
scalar OsgEarthNet.uav[2] utilizationCountChargeState 1
scalar OsgEarthNet.uav[2] utilizationCountOverdrawnAfterMission 0
scalar OsgEarthNet.uav[2] utilizationCountIdleState 2
scalar OsgEarthNet.uav[2] utilizationFail 0
scalar OsgEarthNet.uav[2] simulationTime 259200
scalar OsgEarthNet.uav[3] utilizationSecMission 650.68693590098
scalar OsgEarthNet.uav[3] utilizationSecMaintenance 350.31285707965
scalar OsgEarthNet.uav[3] utilizationSecCharge 3660
scalar OsgEarthNet.uav[3] utilizationSecIdle 254538.99920702
scalar OsgEarthNet.uav[3] utilizationEnergyMission 2901.3606109619
scalar OsgEarthNet.uav[3] utilizationEnergyMaintenance 1643.3993148804
scalar OsgEarthNet.uav[3] utilizationEnergyCharge 4544.7607421875
scalar OsgEarthNet.uav[3] utilizationEnergyOverdrawMission 0
scalar OsgEarthNet.uav[3] utilizationEnergyOverdrawMaintenance 0
scalar OsgEarthNet.uav[3] utilizationCountMissions 1
scalar OsgEarthNet.uav[3] utilizationCountManeuversMission 9
scalar OsgEarthNet.uav[3] utilizationCountManeuversMaintenance 2
scalar OsgEarthNet.uav[3] utilizationCountChargeState 1
scalar OsgEarthNet.uav[3] utilizationCountOverdrawnAfterMission 0
scalar OsgEarthNet.uav[3] utilizationCountIdleState 2
scalar OsgEarthNet.uav[3] utilizationFail 0
scalar OsgEarthNet.uav[3] simulationTime 259200
scalar OsgEarthNet.uav[4] utilizationSecMission 29375.652768388
scalar OsgEarthNet.uav[4] utilizationSecMaintenance 13559.539592545
scalar OsgEarthNet.uav[4] utilizationSecCharge 158484.10134458
scalar OsgEarthNet.uav[4] utilizationSecIdle 57780.705294484
scalar OsgEarthNet.uav[4] utilizationEnergyMission 135547.96886063
scalar OsgEarthNet.uav[4] utilizationEnergyMaintenance 63952.627841949
scalar OsgEarthNet.uav[4] utilizationEnergyCharge 199053.43359375
scalar OsgEarthNet.uav[4] utilizationEnergyOverdrawMission 0
scalar OsgEarthNet.uav[4] utilizationEnergyOverdrawMaintenance 0
scalar OsgEarthNet.uav[4] utilizationCountMissions 43
scalar OsgEarthNet.uav[4] utilizationCountManeuversMission 476
scalar OsgEarthNet.uav[4] utilizationCountManeuversMaintenance 86
scalar OsgEarthNet.uav[4] utilizationCountChargeState 43
scalar OsgEarthNet.uav[4] utilizationCountOverdrawnAfterMission 0
scalar OsgEarthNet.uav[4] utilizationCountIdleState 43
scalar OsgEarthNet.uav[4] utilizationFail 0
scalar OsgEarthNet.uav[4] simulationTime 259200
scalar OsgEarthNet.uav[5] utilizationSecMission 30735.267122843
scalar OsgEarthNet.uav[5] utilizationSecMaintenance 12409.450950262
scalar OsgEarthNet.uav[5] utilizationSecCharge 155946.10581648
scalar OsgEarthNet.uav[5] utilizationSecIdle 60109.175110411
scalar OsgEarthNet.uav[5] utilizationEnergyMission 142206.54444885
scalar OsgEarthNet.uav[5] utilizationEnergyMaintenance 58304.983600617
scalar OsgEarthNet.uav[5] utilizationEnergyCharge 195501.7298584
scalar OsgEarthNet.uav[5] utilizationEnergyOverdrawMission 0
scalar OsgEarthNet.uav[5] utilizationEnergyOverdrawMaintenance 0
scalar OsgEarthNet.uav[5] utilizationCountMissions 43
scalar OsgEarthNet.uav[5] utilizationCountManeuversMission 491
scalar OsgEarthNet.uav[5] utilizationCountManeuversMaintenance 86
scalar OsgEarthNet.uav[5] utilizationCountChargeState 43
scalar OsgEarthNet.uav[5] utilizationCountOverdrawnAfterMission 0
scalar OsgEarthNet.uav[5] utilizationCountIdleState 43
scalar OsgEarthNet.uav[5] utilizationFail 0
scalar OsgEarthNet.uav[5] simulationTime 259200
scalar OsgEarthNet.uav[6] utilizationSecMission 26894.156911976
scalar OsgEarthNet.uav[6] utilizationSecMaintenance 15272.961083399
scalar OsgEarthNet.uav[6] utilizationSecCharge 156080
scalar OsgEarthNet.uav[6] utilizationSecIdle 60952.881004625
scalar OsgEarthNet.uav[6] utilizationEnergyMission 124562.92227936
scalar OsgEarthNet.uav[6] utilizationEnergyMaintenance 71113.236942291
scalar OsgEarthNet.uav[6] utilizationEnergyCharge 195596.58154297
scalar OsgEarthNet.uav[6] utilizationEnergyOverdrawMission 0
scalar OsgEarthNet.uav[6] utilizationEnergyOverdrawMaintenance 0
scalar OsgEarthNet.uav[6] utilizationCountMissions 42
scalar OsgEarthNet.uav[6] utilizationCountManeuversMission 432
scalar OsgEarthNet.uav[6] utilizationCountManeuversMaintenance 84
scalar OsgEarthNet.uav[6] utilizationCountChargeState 42
scalar OsgEarthNet.uav[6] utilizationCountOverdrawnAfterMission 0
scalar OsgEarthNet.uav[6] utilizationCountIdleState 43
scalar OsgEarthNet.uav[6] utilizationFail 0
scalar OsgEarthNet.uav[6] simulationTime 259200
scalar OsgEarthNet.uav[7] utilizationSecMission 648.09208854277
scalar OsgEarthNet.uav[7] utilizationSecMaintenance 399.17886017656
scalar OsgEarthNet.uav[7] utilizationSecCharge 3740
scalar OsgEarthNet.uav[7] utilizationSecIdle 254412.72805128
scalar OsgEarthNet.uav[7] utilizationEnergyMission 2872.9024200439
scalar OsgEarthNet.uav[7] utilizationEnergyMaintenance 1870.0894584656
scalar OsgEarthNet.uav[7] utilizationEnergyCharge 4661.4692382812
scalar OsgEarthNet.uav[7] utilizationEnergyOverdrawMission 0
scalar OsgEarthNet.uav[7] utilizationEnergyOverdrawMaintenance 0
scalar OsgEarthNet.uav[7] utilizationCountMissions 1
scalar OsgEarthNet.uav[7] utilizationCountManeuversMission 10
scalar OsgEarthNet.uav[7] utilizationCountManeuversMaintenance 2
scalar OsgEarthNet.uav[7] utilizationCountChargeState 1
scalar OsgEarthNet.uav[7] utilizationCountOverdrawnAfterMission 0
scalar OsgEarthNet.uav[7] utilizationCountIdleState 2
scalar OsgEarthNet.uav[7] utilizationFail 0
scalar OsgEarthNet.uav[7] simulationTime 259200
scalar OsgEarthNet.uav[8] utilizationSecMission 694.00169469977
scalar OsgEarthNet.uav[8] utilizationSecMaintenance 338.49695459722
scalar OsgEarthNet.uav[8] utilizationSecCharge 3710
scalar OsgEarthNet.uav[8] utilizationSecIdle 254457.5003507
scalar OsgEarthNet.uav[8] utilizationEnergyMission 3089.6875762939
scalar OsgEarthNet.uav[8] utilizationEnergyMaintenance 1526.0532341003
scalar OsgEarthNet.uav[8] utilizationEnergyCharge 4615.740234375
scalar OsgEarthNet.uav[8] utilizationEnergyOverdrawMission 0
scalar OsgEarthNet.uav[8] utilizationEnergyOverdrawMaintenance 0
scalar OsgEarthNet.uav[8] utilizationCountMissions 1
scalar OsgEarthNet.uav[8] utilizationCountManeuversMission 13
scalar OsgEarthNet.uav[8] utilizationCountManeuversMaintenance 2
scalar OsgEarthNet.uav[8] utilizationCountChargeState 1
scalar OsgEarthNet.uav[8] utilizationCountOverdrawnAfterMission 0
scalar OsgEarthNet.uav[8] utilizationCountIdleState 2
scalar OsgEarthNet.uav[8] utilizationFail 0
scalar OsgEarthNet.uav[8] simulationTime 259200
scalar OsgEarthNet.uav[9] utilizationSecMission 27597.770631782
scalar OsgEarthNet.uav[9] utilizationSecMaintenance 14563.833714464
scalar OsgEarthNet.uav[9] utilizationSecCharge 155826.25484061
scalar OsgEarthNet.uav[9] utilizationSecIdle 61212.139813144
scalar OsgEarthNet.uav[9] utilizationEnergyMission 126582.12361908
scalar OsgEarthNet.uav[9] utilizationEnergyMaintenance 68439.649196625
scalar OsgEarthNet.uav[9] utilizationEnergyCharge 194974.19189453
scalar OsgEarthNet.uav[9] utilizationEnergyOverdrawMission 0
scalar OsgEarthNet.uav[9] utilizationEnergyOverdrawMaintenance 0
scalar OsgEarthNet.uav[9] utilizationCountMissions 42
scalar OsgEarthNet.uav[9] utilizationCountManeuversMission 441
scalar OsgEarthNet.uav[9] utilizationCountManeuversMaintenance 84
scalar OsgEarthNet.uav[9] utilizationCountChargeState 42
scalar OsgEarthNet.uav[9] utilizationCountOverdrawnAfterMission 0
scalar OsgEarthNet.uav[9] utilizationCountIdleState 42
scalar OsgEarthNet.uav[9] utilizationFail 0
scalar OsgEarthNet.uav[9] simulationTime 259200
scalar OsgEarthNet.uav[10] utilizationSecMission 836.77707522227
scalar OsgEarthNet.uav[10] utilizationSecMaintenance 217.0347828456
scalar OsgEarthNet.uav[10] utilizationSecCharge 3770
scalar OsgEarthNet.uav[10] utilizationSecIdle 254376.18714193
scalar OsgEarthNet.uav[10] utilizationEnergyMission 3728.2724761963
scalar OsgEarthNet.uav[10] utilizationEnergyMaintenance 1054.984172821
scalar OsgEarthNet.uav[10] utilizationEnergyCharge 4783.2524414062
scalar OsgEarthNet.uav[10] utilizationEnergyOverdrawMission 0
scalar OsgEarthNet.uav[10] utilizationEnergyOverdrawMaintenance 0
scalar OsgEarthNet.uav[10] utilizationCountMissions 1
scalar OsgEarthNet.uav[10] utilizationCountManeuversMission 13
scalar OsgEarthNet.uav[10] utilizationCountManeuversMaintenance 2
scalar OsgEarthNet.uav[10] utilizationCountChargeState 1
scalar OsgEarthNet.uav[10] utilizationCountOverdrawnAfterMission 0
scalar OsgEarthNet.uav[10] utilizationCountIdleState 2
scalar OsgEarthNet.uav[10] utilizationFail 0
scalar OsgEarthNet.uav[10] simulationTime 259200
scalar OsgEarthNet.uav[11] utilizationSecMission 454.19906291044
scalar OsgEarthNet.uav[11] utilizationSecMaintenance 531.61543982806
scalar OsgEarthNet.uav[11] utilizationSecCharge 3710
scalar OsgEarthNet.uav[11] utilizationSecIdle 254504.18449726
scalar OsgEarthNet.uav[11] utilizationEnergyMission 2189.3397369385
scalar OsgEarthNet.uav[11] utilizationEnergyMaintenance 2520.2277450562
scalar OsgEarthNet.uav[11] utilizationEnergyCharge 4709.5659179688
scalar OsgEarthNet.uav[11] utilizationEnergyOverdrawMission 0
scalar OsgEarthNet.uav[11] utilizationEnergyOverdrawMaintenance 0
scalar OsgEarthNet.uav[11] utilizationCountMissions 1
scalar OsgEarthNet.uav[11] utilizationCountManeuversMission 8
scalar OsgEarthNet.uav[11] utilizationCountManeuversMaintenance 2
scalar OsgEarthNet.uav[11] utilizationCountChargeState 1
scalar OsgEarthNet.uav[11] utilizationCountOverdrawnAfterMission 0
scalar OsgEarthNet.uav[11] utilizationCountIdleState 2
scalar OsgEarthNet.uav[11] utilizationFail 0
scalar OsgEarthNet.uav[11] simulationTime 259200
scalar OsgEarthNet.uav[12] utilizationSecMission 766.82734763767
scalar OsgEarthNet.uav[12] utilizationSecMaintenance 306.92101052153
scalar OsgEarthNet.uav[12] utilizationSecCharge 3850
scalar OsgEarthNet.uav[12] utilizationSecIdle 254276.25064184
scalar OsgEarthNet.uav[12] utilizationEnergyMission 3413.2049102783
scalar OsgEarthNet.uav[12] utilizationEnergyMaintenance 1487.7802352905
scalar OsgEarthNet.uav[12] utilizationEnergyCharge 4857.642578125
scalar OsgEarthNet.uav[12] utilizationEnergyOverdrawMission 0
scalar OsgEarthNet.uav[12] utilizationEnergyOverdrawMaintenance 0
scalar OsgEarthNet.uav[12] utilizationCountMissions 1
scalar OsgEarthNet.uav[12] utilizationCountManeuversMission 14
scalar OsgEarthNet.uav[12] utilizationCountManeuversMaintenance 2
scalar OsgEarthNet.uav[12] utilizationCountChargeState 1
scalar OsgEarthNet.uav[12] utilizationCountOverdrawnAfterMission 0
scalar OsgEarthNet.uav[12] utilizationCountIdleState 2
scalar OsgEarthNet.uav[12] utilizationFail 0
scalar OsgEarthNet.uav[12] simulationTime 259200
scalar OsgEarthNet.uav[13] utilizationSecMission 760.62515258028
scalar OsgEarthNet.uav[13] utilizationSecMaintenance 223.6438949726
scalar OsgEarthNet.uav[13] utilizationSecCharge 3810
scalar OsgEarthNet.uav[13] utilizationSecIdle 254405.72995245
scalar OsgEarthNet.uav[13] utilizationEnergyMission 3726.3191223145
scalar OsgEarthNet.uav[13] utilizationEnergyMaintenance 1111.4147453308
scalar OsgEarthNet.uav[13] utilizationEnergyCharge 4837.7368164062
scalar OsgEarthNet.uav[13] utilizationEnergyOverdrawMission 0
scalar OsgEarthNet.uav[13] utilizationEnergyOverdrawMaintenance 0
scalar OsgEarthNet.uav[13] utilizationCountMissions 1
scalar OsgEarthNet.uav[13] utilizationCountManeuversMission 12
scalar OsgEarthNet.uav[13] utilizationCountManeuversMaintenance 2
scalar OsgEarthNet.uav[13] utilizationCountChargeState 1
scalar OsgEarthNet.uav[13] utilizationCountOverdrawnAfterMission 0
scalar OsgEarthNet.uav[13] utilizationCountIdleState 2
scalar OsgEarthNet.uav[13] utilizationFail 0
scalar OsgEarthNet.uav[13] simulationTime 259200
scalar OsgEarthNet.uav[14] utilizationSecMission 28413.159005675
scalar OsgEarthNet.uav[14] utilizationSecMaintenance 12957.558433241
scalar OsgEarthNet.uav[14] utilizationSecCharge 149637.19434996
scalar OsgEarthNet.uav[14] utilizationSecIdle 68192.087211124
scalar OsgEarthNet.uav[14] utilizationEnergyMission 130664.05592346
scalar OsgEarthNet.uav[14] utilizationEnergyMaintenance 61379.724224091
scalar OsgEarthNet.uav[14] utilizationEnergyCharge 187904.08178711
scalar OsgEarthNet.uav[14] utilizationEnergyOverdrawMission 0
scalar OsgEarthNet.uav[14] utilizationEnergyOverdrawMaintenance 0
scalar OsgEarthNet.uav[14] utilizationCountMissions 41
scalar OsgEarthNet.uav[14] utilizationCountManeuversMission 463
scalar OsgEarthNet.uav[14] utilizationCountManeuversMaintenance 82
scalar OsgEarthNet.uav[14] utilizationCountChargeState 41
scalar OsgEarthNet.uav[14] utilizationCountOverdrawnAfterMission 0
scalar OsgEarthNet.uav[14] utilizationCountIdleState 41
scalar OsgEarthNet.uav[14] utilizationFail 0
scalar OsgEarthNet.uav[14] simulationTime 259200
scalar OsgEarthNet.uav[15] utilizationSecMission 29038.777933478
scalar OsgEarthNet.uav[15] utilizationSecMaintenance 13695.353753592
scalar OsgEarthNet.uav[15] utilizationSecCharge 158240
scalar OsgEarthNet.uav[15] utilizationSecIdle 58225.86731293
scalar OsgEarthNet.uav[15] utilizationEnergyMission 134777.18500519
scalar OsgEarthNet.uav[15] utilizationEnergyMaintenance 64241.734363556
scalar OsgEarthNet.uav[15] utilizationEnergyCharge 197860.70996094
scalar OsgEarthNet.uav[15] utilizationEnergyOverdrawMission 0
scalar OsgEarthNet.uav[15] utilizationEnergyOverdrawMaintenance 0
scalar OsgEarthNet.uav[15] utilizationCountMissions 43
scalar OsgEarthNet.uav[15] utilizationCountManeuversMission 491
scalar OsgEarthNet.uav[15] utilizationCountManeuversMaintenance 86
scalar OsgEarthNet.uav[15] utilizationCountChargeState 43
scalar OsgEarthNet.uav[15] utilizationCountOverdrawnAfterMission 0
scalar OsgEarthNet.uav[15] utilizationCountIdleState 44
scalar OsgEarthNet.uav[15] utilizationFail 0
scalar OsgEarthNet.uav[15] simulationTime 259200
scalar OsgEarthNet.uav[16] utilizationSecMission 574.46784406449
scalar OsgEarthNet.uav[16] utilizationSecMaintenance 438.99680222315
scalar OsgEarthNet.uav[16] utilizationSecCharge 3820
scalar OsgEarthNet.uav[16] utilizationSecIdle 254366.53435371
scalar OsgEarthNet.uav[16] utilizationEnergyMission 2588.6787567139
scalar OsgEarthNet.uav[16] utilizationEnergyMaintenance 2183.0439567566
scalar OsgEarthNet.uav[16] utilizationEnergyCharge 4788.3081054688
scalar OsgEarthNet.uav[16] utilizationEnergyOverdrawMission 0
scalar OsgEarthNet.uav[16] utilizationEnergyOverdrawMaintenance 0
scalar OsgEarthNet.uav[16] utilizationCountMissions 1
scalar OsgEarthNet.uav[16] utilizationCountManeuversMission 9
scalar OsgEarthNet.uav[16] utilizationCountManeuversMaintenance 2
scalar OsgEarthNet.uav[16] utilizationCountChargeState 1
scalar OsgEarthNet.uav[16] utilizationCountOverdrawnAfterMission 0
scalar OsgEarthNet.uav[16] utilizationCountIdleState 2
scalar OsgEarthNet.uav[16] utilizationFail 0
scalar OsgEarthNet.uav[16] simulationTime 259200
scalar OsgEarthNet.uav[17] utilizationSecMission 743.20678019818
scalar OsgEarthNet.uav[17] utilizationSecMaintenance 295.89994741134
scalar OsgEarthNet.uav[17] utilizationSecCharge 3900
scalar OsgEarthNet.uav[17] utilizationSecIdle 254260.89227239
scalar OsgEarthNet.uav[17] utilizationEnergyMission 3514.5354919434
scalar OsgEarthNet.uav[17] utilizationEnergyMaintenance 1470.1366195679
scalar OsgEarthNet.uav[17] utilizationEnergyCharge 4984.6743164062
scalar OsgEarthNet.uav[17] utilizationEnergyOverdrawMission 0
scalar OsgEarthNet.uav[17] utilizationEnergyOverdrawMaintenance 0
scalar OsgEarthNet.uav[17] utilizationCountMissions 1
scalar OsgEarthNet.uav[17] utilizationCountManeuversMission 12
scalar OsgEarthNet.uav[17] utilizationCountManeuversMaintenance 2
scalar OsgEarthNet.uav[17] utilizationCountChargeState 1
scalar OsgEarthNet.uav[17] utilizationCountOverdrawnAfterMission 0
scalar OsgEarthNet.uav[17] utilizationCountIdleState 2
scalar OsgEarthNet.uav[17] utilizationFail 0
scalar OsgEarthNet.uav[17] simulationTime 259200
scalar OsgEarthNet.uav[18] utilizationSecMission 929.66633852757
scalar OsgEarthNet.uav[18] utilizationSecMaintenance 183.39004742748
scalar OsgEarthNet.uav[18] utilizationSecCharge 3860
scalar OsgEarthNet.uav[18] utilizationSecIdle 254226.94261404
scalar OsgEarthNet.uav[18] utilizationEnergyMission 4147.4140777588
scalar OsgEarthNet.uav[18] utilizationEnergyMaintenance 836.66793060303
scalar OsgEarthNet.uav[18] utilizationEnergyCharge 4901.666015625
scalar OsgEarthNet.uav[18] utilizationEnergyOverdrawMission 0
scalar OsgEarthNet.uav[18] utilizationEnergyOverdrawMaintenance 0
scalar OsgEarthNet.uav[18] utilizationCountMissions 1
scalar OsgEarthNet.uav[18] utilizationCountManeuversMission 15
scalar OsgEarthNet.uav[18] utilizationCountManeuversMaintenance 2
scalar OsgEarthNet.uav[18] utilizationCountChargeState 1
scalar OsgEarthNet.uav[18] utilizationCountOverdrawnAfterMission 0
scalar OsgEarthNet.uav[18] utilizationCountIdleState 2
scalar OsgEarthNet.uav[18] utilizationFail 0
scalar OsgEarthNet.uav[18] simulationTime 259200
scalar OsgEarthNet.uav[19] utilizationSecMission 684.4732299383
scalar OsgEarthNet.uav[19] utilizationSecMaintenance 298.56834692969
scalar OsgEarthNet.uav[19] utilizationSecCharge 3760
scalar OsgEarthNet.uav[19] utilizationSecIdle 254456.95742313
scalar OsgEarthNet.uav[19] utilizationEnergyMission 3127.4331130981
scalar OsgEarthNet.uav[19] utilizationEnergyMaintenance 1605.8371810913
scalar OsgEarthNet.uav[19] utilizationEnergyCharge 4733.2729492188
scalar OsgEarthNet.uav[19] utilizationEnergyOverdrawMission 0
scalar OsgEarthNet.uav[19] utilizationEnergyOverdrawMaintenance 0
scalar OsgEarthNet.uav[19] utilizationCountMissions 1
scalar OsgEarthNet.uav[19] utilizationCountManeuversMission 11
scalar OsgEarthNet.uav[19] utilizationCountManeuversMaintenance 2
scalar OsgEarthNet.uav[19] utilizationCountChargeState 1
scalar OsgEarthNet.uav[19] utilizationCountOverdrawnAfterMission 0
scalar OsgEarthNet.uav[19] utilizationCountIdleState 2
scalar OsgEarthNet.uav[19] utilizationFail 0
scalar OsgEarthNet.uav[19] simulationTime 259200
scalar OsgEarthNet.uav[20] utilizationSecMission 760.62515258028
scalar OsgEarthNet.uav[20] utilizationSecMaintenance 291.95923480269
scalar OsgEarthNet.uav[20] utilizationSecCharge 3980
scalar OsgEarthNet.uav[20] utilizationSecIdle 254167.41461262
scalar OsgEarthNet.uav[20] utilizationEnergyMission 3598.043045044
scalar OsgEarthNet.uav[20] utilizationEnergyMaintenance 1534.4388046265
scalar OsgEarthNet.uav[20] utilizationEnergyCharge 5132.4794921875
scalar OsgEarthNet.uav[20] utilizationEnergyOverdrawMission 0
scalar OsgEarthNet.uav[20] utilizationEnergyOverdrawMaintenance 0
scalar OsgEarthNet.uav[20] utilizationCountMissions 1
scalar OsgEarthNet.uav[20] utilizationCountManeuversMission 12
scalar OsgEarthNet.uav[20] utilizationCountManeuversMaintenance 2
scalar OsgEarthNet.uav[20] utilizationCountChargeState 1
scalar OsgEarthNet.uav[20] utilizationCountOverdrawnAfterMission 0
scalar OsgEarthNet.uav[20] utilizationCountIdleState 2
scalar OsgEarthNet.uav[20] utilizationFail 0
scalar OsgEarthNet.uav[20] simulationTime 259200
scalar OsgEarthNet.uav[21] utilizationSecMission 30153.450103429
scalar OsgEarthNet.uav[21] utilizationSecMaintenance 14311.257100978
scalar OsgEarthNet.uav[21] utilizationSecCharge 165320
scalar OsgEarthNet.uav[21] utilizationSecIdle 49415.291795593
scalar OsgEarthNet.uav[21] utilizationEnergyMission 139365.6522789
scalar OsgEarthNet.uav[21] utilizationEnergyMaintenance 68551.234554291
scalar OsgEarthNet.uav[21] utilizationEnergyCharge 207395.51611328
scalar OsgEarthNet.uav[21] utilizationEnergyOverdrawMission 0
scalar OsgEarthNet.uav[21] utilizationEnergyOverdrawMaintenance 0
scalar OsgEarthNet.uav[21] utilizationCountMissions 44
scalar OsgEarthNet.uav[21] utilizationCountManeuversMission 489
scalar OsgEarthNet.uav[21] utilizationCountManeuversMaintenance 88
scalar OsgEarthNet.uav[21] utilizationCountChargeState 44
scalar OsgEarthNet.uav[21] utilizationCountOverdrawnAfterMission 0
scalar OsgEarthNet.uav[21] utilizationCountIdleState 45
scalar OsgEarthNet.uav[21] utilizationFail 0
scalar OsgEarthNet.uav[21] simulationTime 259200
scalar OsgEarthNet.uav[22] utilizationSecMission 887.1741082606
scalar OsgEarthNet.uav[22] utilizationSecMaintenance 171.13387461676
scalar OsgEarthNet.uav[22] utilizationSecCharge 3760
scalar OsgEarthNet.uav[22] utilizationSecIdle 254381.69101712
scalar OsgEarthNet.uav[22] utilizationEnergyMission 4310.2625732422
scalar OsgEarthNet.uav[22] utilizationEnergyMaintenance 674.29096221924
scalar OsgEarthNet.uav[22] utilizationEnergyCharge 4710.6557617188
scalar OsgEarthNet.uav[22] utilizationEnergyOverdrawMission 0
scalar OsgEarthNet.uav[22] utilizationEnergyOverdrawMaintenance 0
scalar OsgEarthNet.uav[22] utilizationCountMissions 1
scalar OsgEarthNet.uav[22] utilizationCountManeuversMission 14
scalar OsgEarthNet.uav[22] utilizationCountManeuversMaintenance 2
scalar OsgEarthNet.uav[22] utilizationCountChargeState 1
scalar OsgEarthNet.uav[22] utilizationCountOverdrawnAfterMission 0
scalar OsgEarthNet.uav[22] utilizationCountIdleState 2
scalar OsgEarthNet.uav[22] utilizationFail 0
scalar OsgEarthNet.uav[22] simulationTime 259200
scalar OsgEarthNet.uav[23] utilizationSecMission 581.19640448947
scalar OsgEarthNet.uav[23] utilizationSecMaintenance 393.71026136566
scalar OsgEarthNet.uav[23] utilizationSecCharge 3690
scalar OsgEarthNet.uav[23] utilizationSecIdle 254535.09233414
scalar OsgEarthNet.uav[23] utilizationEnergyMission 2591.2884979248
scalar OsgEarthNet.uav[23] utilizationEnergyMaintenance 2077.0277328491
scalar OsgEarthNet.uav[23] utilizationEnergyCharge 4582.1806640625
scalar OsgEarthNet.uav[23] utilizationEnergyOverdrawMission 0
scalar OsgEarthNet.uav[23] utilizationEnergyOverdrawMaintenance 0
scalar OsgEarthNet.uav[23] utilizationCountMissions 1
scalar OsgEarthNet.uav[23] utilizationCountManeuversMission 9
scalar OsgEarthNet.uav[23] utilizationCountManeuversMaintenance 2
scalar OsgEarthNet.uav[23] utilizationCountChargeState 1
scalar OsgEarthNet.uav[23] utilizationCountOverdrawnAfterMission 0
scalar OsgEarthNet.uav[23] utilizationCountIdleState 2
scalar OsgEarthNet.uav[23] utilizationFail 0
scalar OsgEarthNet.uav[23] simulationTime 259200
scalar OsgEarthNet.uav[24] utilizationSecMission 755.56130602732
scalar OsgEarthNet.uav[24] utilizationSecMaintenance 384.23905502454
scalar OsgEarthNet.uav[24] utilizationSecCharge 3920
scalar OsgEarthNet.uav[24] utilizationSecIdle 254140.19863895
scalar OsgEarthNet.uav[24] utilizationEnergyMission 3365.845375061
scalar OsgEarthNet.uav[24] utilizationEnergyMaintenance 1688.0622673035
scalar OsgEarthNet.uav[24] utilizationEnergyCharge 4996.6196289062
scalar OsgEarthNet.uav[24] utilizationEnergyOverdrawMission 0
scalar OsgEarthNet.uav[24] utilizationEnergyOverdrawMaintenance 0
scalar OsgEarthNet.uav[24] utilizationCountMissions 1
scalar OsgEarthNet.uav[24] utilizationCountManeuversMission 14
scalar OsgEarthNet.uav[24] utilizationCountManeuversMaintenance 2
scalar OsgEarthNet.uav[24] utilizationCountChargeState 1
scalar OsgEarthNet.uav[24] utilizationCountOverdrawnAfterMission 0
scalar OsgEarthNet.uav[24] utilizationCountIdleState 2
scalar OsgEarthNet.uav[24] utilizationFail 0
scalar OsgEarthNet.uav[24] simulationTime 259200
scalar OsgEarthNet.uav[25] utilizationSecMission 694.00169469977
scalar OsgEarthNet.uav[25] utilizationSecMaintenance 338.49695459722
scalar OsgEarthNet.uav[25] utilizationSecCharge 3990
scalar OsgEarthNet.uav[25] utilizationSecIdle 254177.5003507
scalar OsgEarthNet.uav[25] utilizationEnergyMission 3496.3348236084
scalar OsgEarthNet.uav[25] utilizationEnergyMaintenance 1618.3033561707
scalar OsgEarthNet.uav[25] utilizationEnergyCharge 5114.638671875
scalar OsgEarthNet.uav[25] utilizationEnergyOverdrawMission 0
scalar OsgEarthNet.uav[25] utilizationEnergyOverdrawMaintenance 0
scalar OsgEarthNet.uav[25] utilizationCountMissions 1
scalar OsgEarthNet.uav[25] utilizationCountManeuversMission 13
scalar OsgEarthNet.uav[25] utilizationCountManeuversMaintenance 2
scalar OsgEarthNet.uav[25] utilizationCountChargeState 1
scalar OsgEarthNet.uav[25] utilizationCountOverdrawnAfterMission 0
scalar OsgEarthNet.uav[25] utilizationCountIdleState 2
scalar OsgEarthNet.uav[25] utilizationFail 0
scalar OsgEarthNet.uav[25] simulationTime 259200
scalar OsgEarthNet.uav[26] utilizationSecMission 836.77707522227
scalar OsgEarthNet.uav[26] utilizationSecMaintenance 217.0347828456
scalar OsgEarthNet.uav[26] utilizationSecCharge 3680
scalar OsgEarthNet.uav[26] utilizationSecIdle 254466.18714193
scalar OsgEarthNet.uav[26] utilizationEnergyMission 3471.109375
scalar OsgEarthNet.uav[26] utilizationEnergyMaintenance 1141.8402824402
scalar OsgEarthNet.uav[26] utilizationEnergyCharge 4612.953125
scalar OsgEarthNet.uav[26] utilizationEnergyOverdrawMission 0
scalar OsgEarthNet.uav[26] utilizationEnergyOverdrawMaintenance 0
scalar OsgEarthNet.uav[26] utilizationCountMissions 1
scalar OsgEarthNet.uav[26] utilizationCountManeuversMission 13
scalar OsgEarthNet.uav[26] utilizationCountManeuversMaintenance 2
scalar OsgEarthNet.uav[26] utilizationCountChargeState 1
scalar OsgEarthNet.uav[26] utilizationCountOverdrawnAfterMission 0
scalar OsgEarthNet.uav[26] utilizationCountIdleState 2
scalar OsgEarthNet.uav[26] utilizationFail 0
scalar OsgEarthNet.uav[26] simulationTime 259200
scalar OsgEarthNet.uav[27] utilizationSecMission 22774.456409396
scalar OsgEarthNet.uav[27] utilizationSecMaintenance 10292.957746701
scalar OsgEarthNet.uav[27] utilizationSecCharge 118550
scalar OsgEarthNet.uav[27] utilizationSecIdle 107582.5848439
scalar OsgEarthNet.uav[27] utilizationEnergyMission 104273.5215758
scalar OsgEarthNet.uav[27] utilizationEnergyMaintenance 48184.636306763
scalar OsgEarthNet.uav[27] utilizationEnergyCharge 148453.68896484
scalar OsgEarthNet.uav[27] utilizationEnergyOverdrawMission 0
scalar OsgEarthNet.uav[27] utilizationEnergyOverdrawMaintenance 0
scalar OsgEarthNet.uav[27] utilizationCountMissions 32
scalar OsgEarthNet.uav[27] utilizationCountManeuversMission 370
scalar OsgEarthNet.uav[27] utilizationCountManeuversMaintenance 65
scalar OsgEarthNet.uav[27] utilizationCountChargeState 32
scalar OsgEarthNet.uav[27] utilizationCountOverdrawnAfterMission 0
scalar OsgEarthNet.uav[27] utilizationCountIdleState 33
scalar OsgEarthNet.uav[27] utilizationFail 0
scalar OsgEarthNet.uav[27] simulationTime 259200
scalar OsgEarthNet.uav[28] utilizationSecMission 25440.72078636
scalar OsgEarthNet.uav[28] utilizationSecMaintenance 12604.935088772
scalar OsgEarthNet.uav[28] utilizationSecCharge 141290
scalar OsgEarthNet.uav[28] utilizationSecIdle 79864.343124867
scalar OsgEarthNet.uav[28] utilizationEnergyMission 117455.38963318
scalar OsgEarthNet.uav[28] utilizationEnergyMaintenance 59994.740196228
scalar OsgEarthNet.uav[28] utilizationEnergyCharge 176952.15966797
scalar OsgEarthNet.uav[28] utilizationEnergyOverdrawMission 0
scalar OsgEarthNet.uav[28] utilizationEnergyOverdrawMaintenance 0
scalar OsgEarthNet.uav[28] utilizationCountMissions 38
scalar OsgEarthNet.uav[28] utilizationCountManeuversMission 415
scalar OsgEarthNet.uav[28] utilizationCountManeuversMaintenance 76
scalar OsgEarthNet.uav[28] utilizationCountChargeState 38
scalar OsgEarthNet.uav[28] utilizationCountOverdrawnAfterMission 0
scalar OsgEarthNet.uav[28] utilizationCountIdleState 39
scalar OsgEarthNet.uav[28] utilizationFail 0
scalar OsgEarthNet.uav[28] simulationTime 259200
scalar OsgEarthNet.uav[29] utilizationSecMission 581.19640448947
scalar OsgEarthNet.uav[29] utilizationSecMaintenance 393.71026136566
scalar OsgEarthNet.uav[29] utilizationSecCharge 3650
scalar OsgEarthNet.uav[29] utilizationSecIdle 254575.09233414
scalar OsgEarthNet.uav[29] utilizationEnergyMission 2627.6327209473
scalar OsgEarthNet.uav[29] utilizationEnergyMaintenance 1928.0598373413
scalar OsgEarthNet.uav[29] utilizationEnergyCharge 4499.279296875
scalar OsgEarthNet.uav[29] utilizationEnergyOverdrawMission 0
scalar OsgEarthNet.uav[29] utilizationEnergyOverdrawMaintenance 0
scalar OsgEarthNet.uav[29] utilizationCountMissions 1
scalar OsgEarthNet.uav[29] utilizationCountManeuversMission 9
scalar OsgEarthNet.uav[29] utilizationCountManeuversMaintenance 2
scalar OsgEarthNet.uav[29] utilizationCountChargeState 1
scalar OsgEarthNet.uav[29] utilizationCountOverdrawnAfterMission 0
scalar OsgEarthNet.uav[29] utilizationCountIdleState 2
scalar OsgEarthNet.uav[29] utilizationFail 0
scalar OsgEarthNet.uav[29] simulationTime 259200
scalar OsgEarthNet.uav[30] utilizationSecMission 684.4732299383
scalar OsgEarthNet.uav[30] utilizationSecMaintenance 298.56834692969
scalar OsgEarthNet.uav[30] utilizationSecCharge 3670
scalar OsgEarthNet.uav[30] utilizationSecIdle 254546.95742313
scalar OsgEarthNet.uav[30] utilizationEnergyMission 3133.7292327881
scalar OsgEarthNet.uav[30] utilizationEnergyMaintenance 1469.3977279663
scalar OsgEarthNet.uav[30] utilizationEnergyCharge 4603.125
scalar OsgEarthNet.uav[30] utilizationEnergyOverdrawMission 0
scalar OsgEarthNet.uav[30] utilizationEnergyOverdrawMaintenance 0
scalar OsgEarthNet.uav[30] utilizationCountMissions 1
scalar OsgEarthNet.uav[30] utilizationCountManeuversMission 11
scalar OsgEarthNet.uav[30] utilizationCountManeuversMaintenance 2
scalar OsgEarthNet.uav[30] utilizationCountChargeState 1
scalar OsgEarthNet.uav[30] utilizationCountOverdrawnAfterMission 0
scalar OsgEarthNet.uav[30] utilizationCountIdleState 2
scalar OsgEarthNet.uav[30] utilizationFail 0
scalar OsgEarthNet.uav[30] simulationTime 259200
scalar OsgEarthNet.uav[31] utilizationSecMission 26792.923497395
scalar OsgEarthNet.uav[31] utilizationSecMaintenance 13624.011099639
scalar OsgEarthNet.uav[31] utilizationSecCharge 149320
scalar OsgEarthNet.uav[31] utilizationSecIdle 69463.064402966
scalar OsgEarthNet.uav[31] utilizationEnergyMission 124164.05329895
scalar OsgEarthNet.uav[31] utilizationEnergyMaintenance 63273.862926483
scalar OsgEarthNet.uav[31] utilizationEnergyCharge 187305.95507812
scalar OsgEarthNet.uav[31] utilizationEnergyOverdrawMission 0
scalar OsgEarthNet.uav[31] utilizationEnergyOverdrawMaintenance 0
scalar OsgEarthNet.uav[31] utilizationCountMissions 40
scalar OsgEarthNet.uav[31] utilizationCountManeuversMission 443
scalar OsgEarthNet.uav[31] utilizationCountManeuversMaintenance 80
scalar OsgEarthNet.uav[31] utilizationCountChargeState 40
scalar OsgEarthNet.uav[31] utilizationCountOverdrawnAfterMission 0
scalar OsgEarthNet.uav[31] utilizationCountIdleState 41
scalar OsgEarthNet.uav[31] utilizationFail 0
scalar OsgEarthNet.uav[31] simulationTime 259200
scalar OsgEarthNet.uav[32] utilizationSecMission 26437.510589131
scalar OsgEarthNet.uav[32] utilizationSecMaintenance 14709.785743151
scalar OsgEarthNet.uav[32] utilizationSecCharge 152740
scalar OsgEarthNet.uav[32] utilizationSecIdle 65312.702667718
scalar OsgEarthNet.uav[32] utilizationEnergyMission 122025.51613998
scalar OsgEarthNet.uav[32] utilizationEnergyMaintenance 69566.31131669
scalar OsgEarthNet.uav[32] utilizationEnergyCharge 191552.24414062
scalar OsgEarthNet.uav[32] utilizationEnergyOverdrawMission 0
scalar OsgEarthNet.uav[32] utilizationEnergyOverdrawMaintenance 0
scalar OsgEarthNet.uav[32] utilizationCountMissions 41
scalar OsgEarthNet.uav[32] utilizationCountManeuversMission 446
scalar OsgEarthNet.uav[32] utilizationCountManeuversMaintenance 83
scalar OsgEarthNet.uav[32] utilizationCountChargeState 41
scalar OsgEarthNet.uav[32] utilizationCountOverdrawnAfterMission 0
scalar OsgEarthNet.uav[32] utilizationCountIdleState 42
scalar OsgEarthNet.uav[32] utilizationFail 0
scalar OsgEarthNet.uav[32] simulationTime 259200
scalar OsgEarthNet.uav[33] utilizationSecMission 760.62515258028
scalar OsgEarthNet.uav[33] utilizationSecMaintenance 291.95923480269
scalar OsgEarthNet.uav[33] utilizationSecCharge 3750
scalar OsgEarthNet.uav[33] utilizationSecIdle 254397.41461262
scalar OsgEarthNet.uav[33] utilizationEnergyMission 3328.4015350342
scalar OsgEarthNet.uav[33] utilizationEnergyMaintenance 1405.6668319702
scalar OsgEarthNet.uav[33] utilizationEnergyCharge 4734.06640625
scalar OsgEarthNet.uav[33] utilizationEnergyOverdrawMission 0
scalar OsgEarthNet.uav[33] utilizationEnergyOverdrawMaintenance 0
scalar OsgEarthNet.uav[33] utilizationCountMissions 1
scalar OsgEarthNet.uav[33] utilizationCountManeuversMission 12
scalar OsgEarthNet.uav[33] utilizationCountManeuversMaintenance 2
scalar OsgEarthNet.uav[33] utilizationCountChargeState 1
scalar OsgEarthNet.uav[33] utilizationCountOverdrawnAfterMission 0
scalar OsgEarthNet.uav[33] utilizationCountIdleState 2
scalar OsgEarthNet.uav[33] utilizationFail 0
scalar OsgEarthNet.uav[33] simulationTime 259200
scalar OsgEarthNet.uav[34] utilizationSecMission 26486.335883305
scalar OsgEarthNet.uav[34] utilizationSecMaintenance 12680.708612234
scalar OsgEarthNet.uav[34] utilizationSecCharge 145230
scalar OsgEarthNet.uav[34] utilizationSecIdle 74802.954504462
scalar OsgEarthNet.uav[34] utilizationEnergyMission 121826.67528534
scalar OsgEarthNet.uav[34] utilizationEnergyMaintenance 59798.617557526
scalar OsgEarthNet.uav[34] utilizationEnergyCharge 182232.0546875
scalar OsgEarthNet.uav[34] utilizationEnergyOverdrawMission 0
scalar OsgEarthNet.uav[34] utilizationEnergyOverdrawMaintenance 0
scalar OsgEarthNet.uav[34] utilizationCountMissions 39
scalar OsgEarthNet.uav[34] utilizationCountManeuversMission 445
scalar OsgEarthNet.uav[34] utilizationCountManeuversMaintenance 78
scalar OsgEarthNet.uav[34] utilizationCountChargeState 39
scalar OsgEarthNet.uav[34] utilizationCountOverdrawnAfterMission 0
scalar OsgEarthNet.uav[34] utilizationCountIdleState 40
scalar OsgEarthNet.uav[34] utilizationFail 0
scalar OsgEarthNet.uav[34] simulationTime 259200
scalar OsgEarthNet.uav[35] utilizationSecMission 10885.520594451
scalar OsgEarthNet.uav[35] utilizationSecMaintenance 5580.253967071
scalar OsgEarthNet.uav[35] utilizationSecCharge 57903.516381112
scalar OsgEarthNet.uav[35] utilizationSecIdle 184830.70805737
scalar OsgEarthNet.uav[35] utilizationEnergyMission 50207.565551758
scalar OsgEarthNet.uav[35] utilizationEnergyMaintenance 25135.120666504
scalar OsgEarthNet.uav[35] utilizationEnergyCharge 73412.018798828
scalar OsgEarthNet.uav[35] utilizationEnergyOverdrawMission 0
scalar OsgEarthNet.uav[35] utilizationEnergyOverdrawMaintenance 0
scalar OsgEarthNet.uav[35] utilizationCountMissions 16
scalar OsgEarthNet.uav[35] utilizationCountManeuversMission 184
scalar OsgEarthNet.uav[35] utilizationCountManeuversMaintenance 32
scalar OsgEarthNet.uav[35] utilizationCountChargeState 16
scalar OsgEarthNet.uav[35] utilizationCountOverdrawnAfterMission 0
scalar OsgEarthNet.uav[35] utilizationCountIdleState 16
scalar OsgEarthNet.uav[35] utilizationFail 0
scalar OsgEarthNet.uav[35] simulationTime 259200
scalar OsgEarthNet.uav[36] utilizationSecMission 7507.6374833426
scalar OsgEarthNet.uav[36] utilizationSecMaintenance 3609.5328227149
scalar OsgEarthNet.uav[36] utilizationSecCharge 41440
scalar OsgEarthNet.uav[36] utilizationSecIdle 206642.82869394
scalar OsgEarthNet.uav[36] utilizationEnergyMission 34552.48796463
scalar OsgEarthNet.uav[36] utilizationEnergyMaintenance 17535.71434021
scalar OsgEarthNet.uav[36] utilizationEnergyCharge 52016.764160156
scalar OsgEarthNet.uav[36] utilizationEnergyOverdrawMission 0
scalar OsgEarthNet.uav[36] utilizationEnergyOverdrawMaintenance 0
scalar OsgEarthNet.uav[36] utilizationCountMissions 11
scalar OsgEarthNet.uav[36] utilizationCountManeuversMission 123
scalar OsgEarthNet.uav[36] utilizationCountManeuversMaintenance 22
scalar OsgEarthNet.uav[36] utilizationCountChargeState 11
scalar OsgEarthNet.uav[36] utilizationCountOverdrawnAfterMission 0
scalar OsgEarthNet.uav[36] utilizationCountIdleState 12
scalar OsgEarthNet.uav[36] utilizationFail 0
scalar OsgEarthNet.uav[36] simulationTime 259200
scalar OsgEarthNet.uav[37] utilizationSecMission 29651.349935351
scalar OsgEarthNet.uav[37] utilizationSecMaintenance 13617.306786058
scalar OsgEarthNet.uav[37] utilizationSecCharge 157867.58326809
scalar OsgEarthNet.uav[37] utilizationSecIdle 58063.759010499
scalar OsgEarthNet.uav[37] utilizationEnergyMission 136776.39192963
scalar OsgEarthNet.uav[37] utilizationEnergyMaintenance 64355.800476074
scalar OsgEarthNet.uav[37] utilizationEnergyCharge 198406.09851074
scalar OsgEarthNet.uav[37] utilizationEnergyOverdrawMission 0
scalar OsgEarthNet.uav[37] utilizationEnergyOverdrawMaintenance 0
scalar OsgEarthNet.uav[37] utilizationCountMissions 43
scalar OsgEarthNet.uav[37] utilizationCountManeuversMission 497
scalar OsgEarthNet.uav[37] utilizationCountManeuversMaintenance 86
scalar OsgEarthNet.uav[37] utilizationCountChargeState 43
scalar OsgEarthNet.uav[37] utilizationCountOverdrawnAfterMission 0
scalar OsgEarthNet.uav[37] utilizationCountIdleState 43
scalar OsgEarthNet.uav[37] utilizationFail 0
scalar OsgEarthNet.uav[37] simulationTime 259200
scalar OsgEarthNet.uav[38] utilizationSecMission 27391.049242596
scalar OsgEarthNet.uav[38] utilizationSecMaintenance 11394.257333195
scalar OsgEarthNet.uav[38] utilizationSecCharge 139237.98706167
scalar OsgEarthNet.uav[38] utilizationSecIdle 81176.705362542
scalar OsgEarthNet.uav[38] utilizationEnergyMission 126353.80769348
scalar OsgEarthNet.uav[38] utilizationEnergyMaintenance 52780.310554504
scalar OsgEarthNet.uav[38] utilizationEnergyCharge 175294.56640625
scalar OsgEarthNet.uav[38] utilizationEnergyOverdrawMission 0
scalar OsgEarthNet.uav[38] utilizationEnergyOverdrawMaintenance 0
scalar OsgEarthNet.uav[38] utilizationCountMissions 38
scalar OsgEarthNet.uav[38] utilizationCountManeuversMission 441
scalar OsgEarthNet.uav[38] utilizationCountManeuversMaintenance 76
scalar OsgEarthNet.uav[38] utilizationCountChargeState 38
scalar OsgEarthNet.uav[38] utilizationCountOverdrawnAfterMission 0
scalar OsgEarthNet.uav[38] utilizationCountIdleState 38
scalar OsgEarthNet.uav[38] utilizationFail 0
scalar OsgEarthNet.uav[38] simulationTime 259200
scalar OsgEarthNet.uav[39] utilizationSecMission 29476.118226313
scalar OsgEarthNet.uav[39] utilizationSecMaintenance 12664.751074031
scalar OsgEarthNet.uav[39] utilizationSecCharge 156066.36373432
scalar OsgEarthNet.uav[39] utilizationSecIdle 60992.765965339
scalar OsgEarthNet.uav[39] utilizationEnergyMission 137083.77121735
scalar OsgEarthNet.uav[39] utilizationEnergyMaintenance 59191.141010284
scalar OsgEarthNet.uav[39] utilizationEnergyCharge 196225.57617188
scalar OsgEarthNet.uav[39] utilizationEnergyOverdrawMission 0
scalar OsgEarthNet.uav[39] utilizationEnergyOverdrawMaintenance 0
scalar OsgEarthNet.uav[39] utilizationCountMissions 42
scalar OsgEarthNet.uav[39] utilizationCountManeuversMission 479
scalar OsgEarthNet.uav[39] utilizationCountManeuversMaintenance 84
scalar OsgEarthNet.uav[39] utilizationCountChargeState 42
scalar OsgEarthNet.uav[39] utilizationCountOverdrawnAfterMission 0
scalar OsgEarthNet.uav[39] utilizationCountIdleState 42
scalar OsgEarthNet.uav[39] utilizationFail 0
scalar OsgEarthNet.uav[39] simulationTime 259200
scalar OsgEarthNet.uav[40] utilizationSecMission 760.62515258028
scalar OsgEarthNet.uav[40] utilizationSecMaintenance 291.95923480269
scalar OsgEarthNet.uav[40] utilizationSecCharge 3760
scalar OsgEarthNet.uav[40] utilizationSecIdle 254387.41461262
scalar OsgEarthNet.uav[40] utilizationEnergyMission 3475.3097381592
scalar OsgEarthNet.uav[40] utilizationEnergyMaintenance 1321.7455062866
scalar OsgEarthNet.uav[40] utilizationEnergyCharge 4797.0537109375
scalar OsgEarthNet.uav[40] utilizationEnergyOverdrawMission 0
scalar OsgEarthNet.uav[40] utilizationEnergyOverdrawMaintenance 0
scalar OsgEarthNet.uav[40] utilizationCountMissions 1
scalar OsgEarthNet.uav[40] utilizationCountManeuversMission 12
scalar OsgEarthNet.uav[40] utilizationCountManeuversMaintenance 2
scalar OsgEarthNet.uav[40] utilizationCountChargeState 1
scalar OsgEarthNet.uav[40] utilizationCountOverdrawnAfterMission 0
scalar OsgEarthNet.uav[40] utilizationCountIdleState 2
scalar OsgEarthNet.uav[40] utilizationFail 0
scalar OsgEarthNet.uav[40] simulationTime 259200
scalar OsgEarthNet.uav[41] utilizationSecMission 27631.236827702
scalar OsgEarthNet.uav[41] utilizationSecMaintenance 13788.185433525
scalar OsgEarthNet.uav[41] utilizationSecCharge 152460
scalar OsgEarthNet.uav[41] utilizationSecIdle 65320.576738773
scalar OsgEarthNet.uav[41] utilizationEnergyMission 127161.03977966
scalar OsgEarthNet.uav[41] utilizationEnergyMaintenance 64578.848319224
scalar OsgEarthNet.uav[41] utilizationEnergyCharge 191166.70166016
scalar OsgEarthNet.uav[41] utilizationEnergyOverdrawMission 0
scalar OsgEarthNet.uav[41] utilizationEnergyOverdrawMaintenance 0
scalar OsgEarthNet.uav[41] utilizationCountMissions 41
scalar OsgEarthNet.uav[41] utilizationCountManeuversMission 462
scalar OsgEarthNet.uav[41] utilizationCountManeuversMaintenance 83
scalar OsgEarthNet.uav[41] utilizationCountChargeState 41
scalar OsgEarthNet.uav[41] utilizationCountOverdrawnAfterMission 0
scalar OsgEarthNet.uav[41] utilizationCountIdleState 42
scalar OsgEarthNet.uav[41] utilizationFail 0
scalar OsgEarthNet.uav[41] simulationTime 259200
scalar OsgEarthNet.uav[42] utilizationSecMission 30376.167587676
scalar OsgEarthNet.uav[42] utilizationSecMaintenance 13552.713079941
scalar OsgEarthNet.uav[42] utilizationSecCharge 161460
scalar OsgEarthNet.uav[42] utilizationSecIdle 53811.118332383
scalar OsgEarthNet.uav[42] utilizationEnergyMission 139798.86074829
scalar OsgEarthNet.uav[42] utilizationEnergyMaintenance 62819.78004837
scalar OsgEarthNet.uav[42] utilizationEnergyCharge 202940.52636719
scalar OsgEarthNet.uav[42] utilizationEnergyOverdrawMission 0
scalar OsgEarthNet.uav[42] utilizationEnergyOverdrawMaintenance 0
scalar OsgEarthNet.uav[42] utilizationCountMissions 43
scalar OsgEarthNet.uav[42] utilizationCountManeuversMission 500
scalar OsgEarthNet.uav[42] utilizationCountManeuversMaintenance 86
scalar OsgEarthNet.uav[42] utilizationCountChargeState 43
scalar OsgEarthNet.uav[42] utilizationCountOverdrawnAfterMission 0
scalar OsgEarthNet.uav[42] utilizationCountIdleState 44
scalar OsgEarthNet.uav[42] utilizationFail 0
scalar OsgEarthNet.uav[42] simulationTime 259200
scalar OsgEarthNet.uav[43] utilizationSecMission 760.62515258028
scalar OsgEarthNet.uav[43] utilizationSecMaintenance 223.6438949726
scalar OsgEarthNet.uav[43] utilizationSecCharge 3730
scalar OsgEarthNet.uav[43] utilizationSecIdle 254485.72995245
scalar OsgEarthNet.uav[43] utilizationEnergyMission 3613.9743804932
scalar OsgEarthNet.uav[43] utilizationEnergyMaintenance 1063.0463371277
scalar OsgEarthNet.uav[43] utilizationEnergyCharge 4677.0205078125
scalar OsgEarthNet.uav[43] utilizationEnergyOverdrawMission 0
scalar OsgEarthNet.uav[43] utilizationEnergyOverdrawMaintenance 0
scalar OsgEarthNet.uav[43] utilizationCountMissions 1
scalar OsgEarthNet.uav[43] utilizationCountManeuversMission 12
scalar OsgEarthNet.uav[43] utilizationCountManeuversMaintenance 2
scalar OsgEarthNet.uav[43] utilizationCountChargeState 1
scalar OsgEarthNet.uav[43] utilizationCountOverdrawnAfterMission 0
scalar OsgEarthNet.uav[43] utilizationCountIdleState 2
scalar OsgEarthNet.uav[43] utilizationFail 0
scalar OsgEarthNet.uav[43] simulationTime 259200
scalar OsgEarthNet.uav[44] utilizationSecMission 31106.539963357
scalar OsgEarthNet.uav[44] utilizationSecMaintenance 14981.459036643
scalar OsgEarthNet.uav[44] utilizationSecCharge 166660
scalar OsgEarthNet.uav[44] utilizationSecIdle 46452
scalar OsgEarthNet.uav[44] utilizationEnergyMission 142847.44765472
scalar OsgEarthNet.uav[44] utilizationEnergyMaintenance 70060.613687597
scalar OsgEarthNet.uav[44] utilizationEnergyCharge 208175.74853516
scalar OsgEarthNet.uav[44] utilizationEnergyOverdrawMission 0
scalar OsgEarthNet.uav[44] utilizationEnergyOverdrawMaintenance 0
scalar OsgEarthNet.uav[44] utilizationCountMissions 46
scalar OsgEarthNet.uav[44] utilizationCountManeuversMission 522
scalar OsgEarthNet.uav[44] utilizationCountManeuversMaintenance 91
scalar OsgEarthNet.uav[44] utilizationCountChargeState 45
scalar OsgEarthNet.uav[44] utilizationCountOverdrawnAfterMission 0
scalar OsgEarthNet.uav[44] utilizationCountIdleState 46
scalar OsgEarthNet.uav[44] utilizationFail 0
scalar OsgEarthNet.uav[44] simulationTime 259200
scalar OsgEarthNet.uav[45] utilizationSecMission 31287.962986904
scalar OsgEarthNet.uav[45] utilizationSecMaintenance 12841.946887749
scalar OsgEarthNet.uav[45] utilizationSecCharge 163668.08912535
scalar OsgEarthNet.uav[45] utilizationSecIdle 51402
scalar OsgEarthNet.uav[45] utilizationEnergyMission 145265.9871194
scalar OsgEarthNet.uav[45] utilizationEnergyMaintenance 59504.366775513
scalar OsgEarthNet.uav[45] utilizationEnergyCharge 205351.33691406
scalar OsgEarthNet.uav[45] utilizationEnergyOverdrawMission 0
scalar OsgEarthNet.uav[45] utilizationEnergyOverdrawMaintenance 0
scalar OsgEarthNet.uav[45] utilizationCountMissions 44
scalar OsgEarthNet.uav[45] utilizationCountManeuversMission 513
scalar OsgEarthNet.uav[45] utilizationCountManeuversMaintenance 87
scalar OsgEarthNet.uav[45] utilizationCountChargeState 44
scalar OsgEarthNet.uav[45] utilizationCountOverdrawnAfterMission 0
scalar OsgEarthNet.uav[45] utilizationCountIdleState 44
scalar OsgEarthNet.uav[45] utilizationFail 0
scalar OsgEarthNet.uav[45] simulationTime 259200
scalar OsgEarthNet.uav[46] utilizationSecMission 1812.5322801419
scalar OsgEarthNet.uav[46] utilizationSecMaintenance 1268.8090105461
scalar OsgEarthNet.uav[46] utilizationSecCharge 11170
scalar OsgEarthNet.uav[46] utilizationSecIdle 244948.65770931
scalar OsgEarthNet.uav[46] utilizationEnergyMission 8637.0890197754
scalar OsgEarthNet.uav[46] utilizationEnergyMaintenance 5368.0938568115
scalar OsgEarthNet.uav[46] utilizationEnergyCharge 13986.722167969
scalar OsgEarthNet.uav[46] utilizationEnergyOverdrawMission 0
scalar OsgEarthNet.uav[46] utilizationEnergyOverdrawMaintenance 0
scalar OsgEarthNet.uav[46] utilizationCountMissions 3
scalar OsgEarthNet.uav[46] utilizationCountManeuversMission 30
scalar OsgEarthNet.uav[46] utilizationCountManeuversMaintenance 6
scalar OsgEarthNet.uav[46] utilizationCountChargeState 3
scalar OsgEarthNet.uav[46] utilizationCountOverdrawnAfterMission 0
scalar OsgEarthNet.uav[46] utilizationCountIdleState 4
scalar OsgEarthNet.uav[46] utilizationFail 0
scalar OsgEarthNet.uav[46] simulationTime 259200
scalar OsgEarthNet.uav[47] utilizationSecMission 27303.768714258
scalar OsgEarthNet.uav[47] utilizationSecMaintenance 14700.32318623
scalar OsgEarthNet.uav[47] utilizationSecCharge 153010
scalar OsgEarthNet.uav[47] utilizationSecIdle 64185.907099512
scalar OsgEarthNet.uav[47] utilizationEnergyMission 126870.08345595
scalar OsgEarthNet.uav[47] utilizationEnergyMaintenance 68960.343345642
scalar OsgEarthNet.uav[47] utilizationEnergyCharge 192176.81542969
scalar OsgEarthNet.uav[47] utilizationEnergyOverdrawMission 0
scalar OsgEarthNet.uav[47] utilizationEnergyOverdrawMaintenance 0
scalar OsgEarthNet.uav[47] utilizationCountMissions 41
scalar OsgEarthNet.uav[47] utilizationCountManeuversMission 437
scalar OsgEarthNet.uav[47] utilizationCountManeuversMaintenance 83
scalar OsgEarthNet.uav[47] utilizationCountChargeState 41
scalar OsgEarthNet.uav[47] utilizationCountOverdrawnAfterMission 0
scalar OsgEarthNet.uav[47] utilizationCountIdleState 42
scalar OsgEarthNet.uav[47] utilizationFail 0
scalar OsgEarthNet.uav[47] simulationTime 259200
scalar OsgEarthNet.uav[48] utilizationSecMission 621.17604176187
scalar OsgEarthNet.uav[48] utilizationSecMaintenance 313.76167006775
scalar OsgEarthNet.uav[48] utilizationSecCharge 3630
scalar OsgEarthNet.uav[48] utilizationSecIdle 254635.06128817
scalar OsgEarthNet.uav[48] utilizationEnergyMission 3047.0252151489
scalar OsgEarthNet.uav[48] utilizationEnergyMaintenance 1437.7615470886
scalar OsgEarthNet.uav[48] utilizationEnergyCharge 4484.7846679688
scalar OsgEarthNet.uav[48] utilizationEnergyOverdrawMission 0
scalar OsgEarthNet.uav[48] utilizationEnergyOverdrawMaintenance 0
scalar OsgEarthNet.uav[48] utilizationCountMissions 1
scalar OsgEarthNet.uav[48] utilizationCountManeuversMission 12
scalar OsgEarthNet.uav[48] utilizationCountManeuversMaintenance 2
scalar OsgEarthNet.uav[48] utilizationCountChargeState 1
scalar OsgEarthNet.uav[48] utilizationCountOverdrawnAfterMission 0
scalar OsgEarthNet.uav[48] utilizationCountIdleState 2
scalar OsgEarthNet.uav[48] utilizationFail 0
scalar OsgEarthNet.uav[48] simulationTime 259200
scalar OsgEarthNet.uav[49] utilizationSecMission 30432.585658178
scalar OsgEarthNet.uav[49] utilizationSecMaintenance 15858.440806342
scalar OsgEarthNet.uav[49] utilizationSecCharge 169866.97253548
scalar OsgEarthNet.uav[49] utilizationSecIdle 43042
scalar OsgEarthNet.uav[49] utilizationEnergyMission 142288.10652542
scalar OsgEarthNet.uav[49] utilizationEnergyMaintenance 74314.598335266
scalar OsgEarthNet.uav[49] utilizationEnergyCharge 214025.74121094
scalar OsgEarthNet.uav[49] utilizationEnergyOverdrawMission 0
scalar OsgEarthNet.uav[49] utilizationEnergyOverdrawMaintenance 0
scalar OsgEarthNet.uav[49] utilizationCountMissions 46
scalar OsgEarthNet.uav[49] utilizationCountManeuversMission 489
scalar OsgEarthNet.uav[49] utilizationCountManeuversMaintenance 91
scalar OsgEarthNet.uav[49] utilizationCountChargeState 46
scalar OsgEarthNet.uav[49] utilizationCountOverdrawnAfterMission 0
scalar OsgEarthNet.uav[49] utilizationCountIdleState 46
scalar OsgEarthNet.uav[49] utilizationFail 0
scalar OsgEarthNet.uav[49] simulationTime 259200
scalar OsgEarthNet.uav[50] utilizationSecMission 545.05972348896
scalar OsgEarthNet.uav[50] utilizationSecMaintenance 427.36308650536
scalar OsgEarthNet.uav[50] utilizationSecCharge 3560
scalar OsgEarthNet.uav[50] utilizationSecIdle 254667.57619001
scalar OsgEarthNet.uav[50] utilizationEnergyMission 2354.5958404541
scalar OsgEarthNet.uav[50] utilizationEnergyMaintenance 1993.3982162476
scalar OsgEarthNet.uav[50] utilizationEnergyCharge 4354.021484375
scalar OsgEarthNet.uav[50] utilizationEnergyOverdrawMission 0
scalar OsgEarthNet.uav[50] utilizationEnergyOverdrawMaintenance 0
scalar OsgEarthNet.uav[50] utilizationCountMissions 1
scalar OsgEarthNet.uav[50] utilizationCountManeuversMission 9
scalar OsgEarthNet.uav[50] utilizationCountManeuversMaintenance 2
scalar OsgEarthNet.uav[50] utilizationCountChargeState 1
scalar OsgEarthNet.uav[50] utilizationCountOverdrawnAfterMission 0
scalar OsgEarthNet.uav[50] utilizationCountIdleState 2
scalar OsgEarthNet.uav[50] utilizationFail 0
scalar OsgEarthNet.uav[50] simulationTime 259200
scalar OsgEarthNet.uav[51] utilizationSecMission 29107.176572808
scalar OsgEarthNet.uav[51] utilizationSecMaintenance 15089.618519432
scalar OsgEarthNet.uav[51] utilizationSecCharge 164200
scalar OsgEarthNet.uav[51] utilizationSecIdle 50803.20390776
scalar OsgEarthNet.uav[51] utilizationEnergyMission 135912.11968861
scalar OsgEarthNet.uav[51] utilizationEnergyMaintenance 70972.824733734
scalar OsgEarthNet.uav[51] utilizationEnergyCharge 205920.51855469
scalar OsgEarthNet.uav[51] utilizationEnergyOverdrawMission 0
scalar OsgEarthNet.uav[51] utilizationEnergyOverdrawMaintenance 0
scalar OsgEarthNet.uav[51] utilizationCountMissions 44
scalar OsgEarthNet.uav[51] utilizationCountManeuversMission 485
scalar OsgEarthNet.uav[51] utilizationCountManeuversMaintenance 89
scalar OsgEarthNet.uav[51] utilizationCountChargeState 44
scalar OsgEarthNet.uav[51] utilizationCountOverdrawnAfterMission 0
scalar OsgEarthNet.uav[51] utilizationCountIdleState 45
scalar OsgEarthNet.uav[51] utilizationFail 0
scalar OsgEarthNet.uav[51] simulationTime 259200
scalar OsgEarthNet.uav[52] utilizationSecMission 10970.051328717
scalar OsgEarthNet.uav[52] utilizationSecMaintenance 5375.5753638718
scalar OsgEarthNet.uav[52] utilizationSecCharge 60620
scalar OsgEarthNet.uav[52] utilizationSecIdle 182234.37230741
scalar OsgEarthNet.uav[52] utilizationEnergyMission 50911.766742706
scalar OsgEarthNet.uav[52] utilizationEnergyMaintenance 25213.810882568
scalar OsgEarthNet.uav[52] utilizationEnergyCharge 76388.924316406
scalar OsgEarthNet.uav[52] utilizationEnergyOverdrawMission 0
scalar OsgEarthNet.uav[52] utilizationEnergyOverdrawMaintenance 0
scalar OsgEarthNet.uav[52] utilizationCountMissions 16
scalar OsgEarthNet.uav[52] utilizationCountManeuversMission 177
scalar OsgEarthNet.uav[52] utilizationCountManeuversMaintenance 32
scalar OsgEarthNet.uav[52] utilizationCountChargeState 16
scalar OsgEarthNet.uav[52] utilizationCountOverdrawnAfterMission 0
scalar OsgEarthNet.uav[52] utilizationCountIdleState 17
scalar OsgEarthNet.uav[52] utilizationFail 0
scalar OsgEarthNet.uav[52] simulationTime 259200
scalar OsgEarthNet.uav[53] utilizationSecMission 760.62515258028
scalar OsgEarthNet.uav[53] utilizationSecMaintenance 291.95923480269
scalar OsgEarthNet.uav[53] utilizationSecCharge 3880
scalar OsgEarthNet.uav[53] utilizationSecIdle 254267.41461262
scalar OsgEarthNet.uav[53] utilizationEnergyMission 3422.4139099121
scalar OsgEarthNet.uav[53] utilizationEnergyMaintenance 1520.3168563843
scalar OsgEarthNet.uav[53] utilizationEnergyCharge 4942.734375
scalar OsgEarthNet.uav[53] utilizationEnergyOverdrawMission 0
scalar OsgEarthNet.uav[53] utilizationEnergyOverdrawMaintenance 0
scalar OsgEarthNet.uav[53] utilizationCountMissions 1
scalar OsgEarthNet.uav[53] utilizationCountManeuversMission 12
scalar OsgEarthNet.uav[53] utilizationCountManeuversMaintenance 2
scalar OsgEarthNet.uav[53] utilizationCountChargeState 1
scalar OsgEarthNet.uav[53] utilizationCountOverdrawnAfterMission 0
scalar OsgEarthNet.uav[53] utilizationCountIdleState 2
scalar OsgEarthNet.uav[53] utilizationFail 0
scalar OsgEarthNet.uav[53] simulationTime 259200
scalar OsgEarthNet.uav[54] utilizationSecMission 648.09208854277
scalar OsgEarthNet.uav[54] utilizationSecMaintenance 399.17886017656
scalar OsgEarthNet.uav[54] utilizationSecCharge 3820
scalar OsgEarthNet.uav[54] utilizationSecIdle 254332.72805128
scalar OsgEarthNet.uav[54] utilizationEnergyMission 2851.9487304688
scalar OsgEarthNet.uav[54] utilizationEnergyMaintenance 1984.1500053406
scalar OsgEarthNet.uav[54] utilizationEnergyCharge 4820.5302734375
scalar OsgEarthNet.uav[54] utilizationEnergyOverdrawMission 0
scalar OsgEarthNet.uav[54] utilizationEnergyOverdrawMaintenance 0
scalar OsgEarthNet.uav[54] utilizationCountMissions 1
scalar OsgEarthNet.uav[54] utilizationCountManeuversMission 10
scalar OsgEarthNet.uav[54] utilizationCountManeuversMaintenance 2
scalar OsgEarthNet.uav[54] utilizationCountChargeState 1
scalar OsgEarthNet.uav[54] utilizationCountOverdrawnAfterMission 0
scalar OsgEarthNet.uav[54] utilizationCountIdleState 2
scalar OsgEarthNet.uav[54] utilizationFail 0
scalar OsgEarthNet.uav[54] simulationTime 259200
scalar OsgEarthNet.uav[55] utilizationSecMission 29034.644705042
scalar OsgEarthNet.uav[55] utilizationSecMaintenance 13817.600518551
scalar OsgEarthNet.uav[55] utilizationSecCharge 156450
scalar OsgEarthNet.uav[55] utilizationSecIdle 59897.753776406
scalar OsgEarthNet.uav[55] utilizationEnergyMission 133964.87963867
scalar OsgEarthNet.uav[55] utilizationEnergyMaintenance 63512.075490656
scalar OsgEarthNet.uav[55] utilizationEnergyCharge 196135.93359375
scalar OsgEarthNet.uav[55] utilizationEnergyOverdrawMission 0
scalar OsgEarthNet.uav[55] utilizationEnergyOverdrawMaintenance 0
scalar OsgEarthNet.uav[55] utilizationCountMissions 42
scalar OsgEarthNet.uav[55] utilizationCountManeuversMission 463
scalar OsgEarthNet.uav[55] utilizationCountManeuversMaintenance 85
scalar OsgEarthNet.uav[55] utilizationCountChargeState 42
scalar OsgEarthNet.uav[55] utilizationCountOverdrawnAfterMission 0
scalar OsgEarthNet.uav[55] utilizationCountIdleState 43
scalar OsgEarthNet.uav[55] utilizationFail 0
scalar OsgEarthNet.uav[55] simulationTime 259200
scalar OsgEarthNet.uav[56] utilizationSecMission 760.62515258028
scalar OsgEarthNet.uav[56] utilizationSecMaintenance 291.95923480269
scalar OsgEarthNet.uav[56] utilizationSecCharge 3940
scalar OsgEarthNet.uav[56] utilizationSecIdle 254207.41461262
scalar OsgEarthNet.uav[56] utilizationEnergyMission 3624.4848022461
scalar OsgEarthNet.uav[56] utilizationEnergyMaintenance 1422.4845809937
scalar OsgEarthNet.uav[56] utilizationEnergyCharge 5046.96875
scalar OsgEarthNet.uav[56] utilizationEnergyOverdrawMission 0
scalar OsgEarthNet.uav[56] utilizationEnergyOverdrawMaintenance 0
scalar OsgEarthNet.uav[56] utilizationCountMissions 1
scalar OsgEarthNet.uav[56] utilizationCountManeuversMission 12
scalar OsgEarthNet.uav[56] utilizationCountManeuversMaintenance 2
scalar OsgEarthNet.uav[56] utilizationCountChargeState 1
scalar OsgEarthNet.uav[56] utilizationCountOverdrawnAfterMission 0
scalar OsgEarthNet.uav[56] utilizationCountIdleState 2
scalar OsgEarthNet.uav[56] utilizationFail 0
scalar OsgEarthNet.uav[56] simulationTime 259200
scalar OsgEarthNet.uav[57] utilizationSecMission 28911.70557383
scalar OsgEarthNet.uav[57] utilizationSecMaintenance 13506.99325875
scalar OsgEarthNet.uav[57] utilizationSecCharge 154604.72613036
scalar OsgEarthNet.uav[57] utilizationSecIdle 62176.574037063
scalar OsgEarthNet.uav[57] utilizationEnergyMission 133901.12132263
scalar OsgEarthNet.uav[57] utilizationEnergyMaintenance 63623.816337585
scalar OsgEarthNet.uav[57] utilizationEnergyCharge 194679.40576172
scalar OsgEarthNet.uav[57] utilizationEnergyOverdrawMission 0
scalar OsgEarthNet.uav[57] utilizationEnergyOverdrawMaintenance 0
scalar OsgEarthNet.uav[57] utilizationCountMissions 42
scalar OsgEarthNet.uav[57] utilizationCountManeuversMission 479
scalar OsgEarthNet.uav[57] utilizationCountManeuversMaintenance 84
scalar OsgEarthNet.uav[57] utilizationCountChargeState 42
scalar OsgEarthNet.uav[57] utilizationCountOverdrawnAfterMission 0
scalar OsgEarthNet.uav[57] utilizationCountIdleState 42
scalar OsgEarthNet.uav[57] utilizationFail 0
scalar OsgEarthNet.uav[57] simulationTime 259200
scalar OsgEarthNet.uav[58] utilizationSecMission 19875.912422839
scalar OsgEarthNet.uav[58] utilizationSecMaintenance 9217.7590341364
scalar OsgEarthNet.uav[58] utilizationSecCharge 106982.80221179
scalar OsgEarthNet.uav[58] utilizationSecIdle 123123.52533123
scalar OsgEarthNet.uav[58] utilizationEnergyMission 93083.163963318
scalar OsgEarthNet.uav[58] utilizationEnergyMaintenance 43447.418331146
scalar OsgEarthNet.uav[58] utilizationEnergyCharge 135294.77783203
scalar OsgEarthNet.uav[58] utilizationEnergyOverdrawMission 0
scalar OsgEarthNet.uav[58] utilizationEnergyOverdrawMaintenance 0
scalar OsgEarthNet.uav[58] utilizationCountMissions 29
scalar OsgEarthNet.uav[58] utilizationCountManeuversMission 319
scalar OsgEarthNet.uav[58] utilizationCountManeuversMaintenance 58
scalar OsgEarthNet.uav[58] utilizationCountChargeState 29
scalar OsgEarthNet.uav[58] utilizationCountOverdrawnAfterMission 0
scalar OsgEarthNet.uav[58] utilizationCountIdleState 29
scalar OsgEarthNet.uav[58] utilizationFail 0
scalar OsgEarthNet.uav[58] simulationTime 259200
scalar OsgEarthNet.uav[59] utilizationSecMission 684.4732299383
scalar OsgEarthNet.uav[59] utilizationSecMaintenance 298.56834692969
scalar OsgEarthNet.uav[59] utilizationSecCharge 3790
scalar OsgEarthNet.uav[59] utilizationSecIdle 254426.95742313
scalar OsgEarthNet.uav[59] utilizationEnergyMission 3269.5771102905
scalar OsgEarthNet.uav[59] utilizationEnergyMaintenance 1534.9973373413
scalar OsgEarthNet.uav[59] utilizationEnergyCharge 4804.5756835938
scalar OsgEarthNet.uav[59] utilizationEnergyOverdrawMission 0
scalar OsgEarthNet.uav[59] utilizationEnergyOverdrawMaintenance 0
scalar OsgEarthNet.uav[59] utilizationCountMissions 1
scalar OsgEarthNet.uav[59] utilizationCountManeuversMission 11
scalar OsgEarthNet.uav[59] utilizationCountManeuversMaintenance 2
scalar OsgEarthNet.uav[59] utilizationCountChargeState 1
scalar OsgEarthNet.uav[59] utilizationCountOverdrawnAfterMission 0
scalar OsgEarthNet.uav[59] utilizationCountIdleState 2
scalar OsgEarthNet.uav[59] utilizationFail 0
scalar OsgEarthNet.uav[59] simulationTime 259200
scalar OsgEarthNet.uav[60] utilizationSecMission 31478.517102602
scalar OsgEarthNet.uav[60] utilizationSecMaintenance 11659.481897398
scalar OsgEarthNet.uav[60] utilizationSecCharge 156460
scalar OsgEarthNet.uav[60] utilizationSecIdle 59602
scalar OsgEarthNet.uav[60] utilizationEnergyMission 145864.54526296
scalar OsgEarthNet.uav[60] utilizationEnergyMaintenance 54582.218833923
scalar OsgEarthNet.uav[60] utilizationEnergyCharge 196125.78271484
scalar OsgEarthNet.uav[60] utilizationEnergyOverdrawMission 0
scalar OsgEarthNet.uav[60] utilizationEnergyOverdrawMaintenance 0
scalar OsgEarthNet.uav[60] utilizationCountMissions 42
scalar OsgEarthNet.uav[60] utilizationCountManeuversMission 504
scalar OsgEarthNet.uav[60] utilizationCountManeuversMaintenance 84
scalar OsgEarthNet.uav[60] utilizationCountChargeState 42
scalar OsgEarthNet.uav[60] utilizationCountOverdrawnAfterMission 0
scalar OsgEarthNet.uav[60] utilizationCountIdleState 43
scalar OsgEarthNet.uav[60] utilizationFail 0
scalar OsgEarthNet.uav[60] simulationTime 259200
scalar OsgEarthNet.uav[61] utilizationSecMission 17269.487878966
scalar OsgEarthNet.uav[61] utilizationSecMaintenance 8752.0915504371
scalar OsgEarthNet.uav[61] utilizationSecCharge 96590
scalar OsgEarthNet.uav[61] utilizationSecIdle 136588.4195706
scalar OsgEarthNet.uav[61] utilizationEnergyMission 80258.585624695
scalar OsgEarthNet.uav[61] utilizationEnergyMaintenance 40888.538871765
scalar OsgEarthNet.uav[61] utilizationEnergyCharge 121008.39648438
scalar OsgEarthNet.uav[61] utilizationEnergyOverdrawMission 0
scalar OsgEarthNet.uav[61] utilizationEnergyOverdrawMaintenance 0
scalar OsgEarthNet.uav[61] utilizationCountMissions 26
scalar OsgEarthNet.uav[61] utilizationCountManeuversMission 280
scalar OsgEarthNet.uav[61] utilizationCountManeuversMaintenance 52
scalar OsgEarthNet.uav[61] utilizationCountChargeState 26
scalar OsgEarthNet.uav[61] utilizationCountOverdrawnAfterMission 0
scalar OsgEarthNet.uav[61] utilizationCountIdleState 27
scalar OsgEarthNet.uav[61] utilizationFail 0
scalar OsgEarthNet.uav[61] simulationTime 259200
scalar OsgEarthNet.uav[62] utilizationSecMission 844.68187799363
scalar OsgEarthNet.uav[62] utilizationSecMaintenance 168.94893785192
scalar OsgEarthNet.uav[62] utilizationSecCharge 3700
scalar OsgEarthNet.uav[62] utilizationSecIdle 254486.36818415
scalar OsgEarthNet.uav[62] utilizationEnergyMission 3647.0702667236
scalar OsgEarthNet.uav[62] utilizationEnergyMaintenance 618.74604415894
scalar OsgEarthNet.uav[62] utilizationEnergyCharge 4600.5581054688
scalar OsgEarthNet.uav[62] utilizationEnergyOverdrawMission 0
scalar OsgEarthNet.uav[62] utilizationEnergyOverdrawMaintenance 0
scalar OsgEarthNet.uav[62] utilizationCountMissions 1
scalar OsgEarthNet.uav[62] utilizationCountManeuversMission 13
scalar OsgEarthNet.uav[62] utilizationCountManeuversMaintenance 2
scalar OsgEarthNet.uav[62] utilizationCountChargeState 1
scalar OsgEarthNet.uav[62] utilizationCountOverdrawnAfterMission 0
scalar OsgEarthNet.uav[62] utilizationCountIdleState 2
scalar OsgEarthNet.uav[62] utilizationFail 0
scalar OsgEarthNet.uav[62] simulationTime 259200
scalar OsgEarthNet.uav[63] utilizationSecMission 19210.366631687
scalar OsgEarthNet.uav[63] utilizationSecMaintenance 9544.5186738281
scalar OsgEarthNet.uav[63] utilizationSecCharge 107700
scalar OsgEarthNet.uav[63] utilizationSecIdle 122745.11369449
scalar OsgEarthNet.uav[63] utilizationEnergyMission 90242.547409058
scalar OsgEarthNet.uav[63] utilizationEnergyMaintenance 44584.937770843
scalar OsgEarthNet.uav[63] utilizationEnergyCharge 134946.18652344
scalar OsgEarthNet.uav[63] utilizationEnergyOverdrawMission 0
scalar OsgEarthNet.uav[63] utilizationEnergyOverdrawMaintenance 0
scalar OsgEarthNet.uav[63] utilizationCountMissions 29
scalar OsgEarthNet.uav[63] utilizationCountManeuversMission 298
scalar OsgEarthNet.uav[63] utilizationCountManeuversMaintenance 58
scalar OsgEarthNet.uav[63] utilizationCountChargeState 29
scalar OsgEarthNet.uav[63] utilizationCountOverdrawnAfterMission 0
scalar OsgEarthNet.uav[63] utilizationCountIdleState 30
scalar OsgEarthNet.uav[63] utilizationFail 0
scalar OsgEarthNet.uav[63] simulationTime 259200
scalar OsgEarthNet.uav[64] utilizationSecMission 28664.812227291
scalar OsgEarthNet.uav[64] utilizationSecMaintenance 15220.478088897
scalar OsgEarthNet.uav[64] utilizationSecCharge 163680
scalar OsgEarthNet.uav[64] utilizationSecIdle 51634.708683811
scalar OsgEarthNet.uav[64] utilizationEnergyMission 132288.40937805
scalar OsgEarthNet.uav[64] utilizationEnergyMaintenance 72803.401378632
scalar OsgEarthNet.uav[64] utilizationEnergyCharge 204651.98925781
scalar OsgEarthNet.uav[64] utilizationEnergyOverdrawMission 0
scalar OsgEarthNet.uav[64] utilizationEnergyOverdrawMaintenance 0
scalar OsgEarthNet.uav[64] utilizationCountMissions 44
scalar OsgEarthNet.uav[64] utilizationCountManeuversMission 470
scalar OsgEarthNet.uav[64] utilizationCountManeuversMaintenance 88
scalar OsgEarthNet.uav[64] utilizationCountChargeState 44
scalar OsgEarthNet.uav[64] utilizationCountOverdrawnAfterMission 0
scalar OsgEarthNet.uav[64] utilizationCountIdleState 45
scalar OsgEarthNet.uav[64] utilizationFail 0
scalar OsgEarthNet.uav[64] simulationTime 259200
scalar OsgEarthNet.uav[65] utilizationSecMission 30889.878608911
scalar OsgEarthNet.uav[65] utilizationSecMaintenance 12616.575602311
scalar OsgEarthNet.uav[65] utilizationSecCharge 158406.09452475
scalar OsgEarthNet.uav[65] utilizationSecIdle 57287.450264031
scalar OsgEarthNet.uav[65] utilizationEnergyMission 144231.55356598
scalar OsgEarthNet.uav[65] utilizationEnergyMaintenance 58513.906890869
[...]
scalar OsgEarthNet.uav[82] utilizationSecIdle 254317.5003507
scalar OsgEarthNet.uav[82] utilizationEnergyMission 3292.8618774414
scalar OsgEarthNet.uav[82] utilizationEnergyMaintenance 1581.3726921082
scalar OsgEarthNet.uav[82] utilizationEnergyCharge 4874.234375
scalar OsgEarthNet.uav[82] utilizationEnergyOverdrawMission 0
scalar OsgEarthNet.uav[82] utilizationEnergyOverdrawMaintenance 0
scalar OsgEarthNet.uav[82] utilizationCountMissions 1
scalar OsgEarthNet.uav[82] utilizationCountManeuversMission 13
scalar OsgEarthNet.uav[82] utilizationCountManeuversMaintenance 2
scalar OsgEarthNet.uav[82] utilizationCountChargeState 1
scalar OsgEarthNet.uav[82] utilizationCountOverdrawnAfterMission 0
scalar OsgEarthNet.uav[82] utilizationCountIdleState 2
scalar OsgEarthNet.uav[82] utilizationFail 0
scalar OsgEarthNet.uav[82] simulationTime 259200
scalar OsgEarthNet.uav[83] utilizationSecMission 2517.7754845895
scalar OsgEarthNet.uav[83] utilizationSecMaintenance 1506.291341338
scalar OsgEarthNet.uav[83] utilizationSecCharge 14820
scalar OsgEarthNet.uav[83] utilizationSecIdle 240355.93217407
scalar OsgEarthNet.uav[83] utilizationEnergyMission 11369.061950684
scalar OsgEarthNet.uav[83] utilizationEnergyMaintenance 7204.0734710693
scalar OsgEarthNet.uav[83] utilizationEnergyCharge 18573.129394531
scalar OsgEarthNet.uav[83] utilizationEnergyOverdrawMission 0
scalar OsgEarthNet.uav[83] utilizationEnergyOverdrawMaintenance 0
scalar OsgEarthNet.uav[83] utilizationCountMissions 4
scalar OsgEarthNet.uav[83] utilizationCountManeuversMission 39
scalar OsgEarthNet.uav[83] utilizationCountManeuversMaintenance 8
scalar OsgEarthNet.uav[83] utilizationCountChargeState 4
scalar OsgEarthNet.uav[83] utilizationCountOverdrawnAfterMission 0
scalar OsgEarthNet.uav[83] utilizationCountIdleState 5
scalar OsgEarthNet.uav[83] utilizationFail 0
scalar OsgEarthNet.uav[83] simulationTime 259200
scalar OsgEarthNet.uav[84] utilizationSecMission 28838.736079881
scalar OsgEarthNet.uav[84] utilizationSecMaintenance 13690.462427797
scalar OsgEarthNet.uav[84] utilizationSecCharge 157310
scalar OsgEarthNet.uav[84] utilizationSecIdle 59360.800492322
scalar OsgEarthNet.uav[84] utilizationEnergyMission 132971.46808624
scalar OsgEarthNet.uav[84] utilizationEnergyMaintenance 64806.380149841
scalar OsgEarthNet.uav[84] utilizationEnergyCharge 197606.10205078
scalar OsgEarthNet.uav[84] utilizationEnergyOverdrawMission 0
scalar OsgEarthNet.uav[84] utilizationEnergyOverdrawMaintenance 0
scalar OsgEarthNet.uav[84] utilizationCountMissions 42
scalar OsgEarthNet.uav[84] utilizationCountManeuversMission 472
scalar OsgEarthNet.uav[84] utilizationCountManeuversMaintenance 84
scalar OsgEarthNet.uav[84] utilizationCountChargeState 42
scalar OsgEarthNet.uav[84] utilizationCountOverdrawnAfterMission 0
scalar OsgEarthNet.uav[84] utilizationCountIdleState 43
scalar OsgEarthNet.uav[84] utilizationFail 0
scalar OsgEarthNet.uav[84] simulationTime 259200
scalar OsgEarthNet.uav[85] utilizationSecMission 21632.442641362
scalar OsgEarthNet.uav[85] utilizationSecMaintenance 9503.5811100471
scalar OsgEarthNet.uav[85] utilizationSecCharge 112397.11620242
scalar OsgEarthNet.uav[85] utilizationSecIdle 115666.85904617
scalar OsgEarthNet.uav[85] utilizationEnergyMission 100100.50283813
scalar OsgEarthNet.uav[85] utilizationEnergyMaintenance 43907.673160553
scalar OsgEarthNet.uav[85] utilizationEnergyCharge 141081.83569336
scalar OsgEarthNet.uav[85] utilizationEnergyOverdrawMission 0
scalar OsgEarthNet.uav[85] utilizationEnergyOverdrawMaintenance 0
scalar OsgEarthNet.uav[85] utilizationCountMissions 31
scalar OsgEarthNet.uav[85] utilizationCountManeuversMission 356
scalar OsgEarthNet.uav[85] utilizationCountManeuversMaintenance 62
scalar OsgEarthNet.uav[85] utilizationCountChargeState 31
scalar OsgEarthNet.uav[85] utilizationCountOverdrawnAfterMission 0
scalar OsgEarthNet.uav[85] utilizationCountIdleState 31
scalar OsgEarthNet.uav[85] utilizationFail 0
scalar OsgEarthNet.uav[85] simulationTime 259200
scalar OsgEarthNet.uav[86] utilizationSecMission 750.20472747826
scalar OsgEarthNet.uav[86] utilizationSecMaintenance 261.68051383311
scalar OsgEarthNet.uav[86] utilizationSecCharge 3790
scalar OsgEarthNet.uav[86] utilizationSecIdle 254398.11375869
scalar OsgEarthNet.uav[86] utilizationEnergyMission 3530.1481781006
scalar OsgEarthNet.uav[86] utilizationEnergyMaintenance 1285.8327140808
scalar OsgEarthNet.uav[86] utilizationEnergyCharge 4815.9809570312
scalar OsgEarthNet.uav[86] utilizationEnergyOverdrawMission 0
scalar OsgEarthNet.uav[86] utilizationEnergyOverdrawMaintenance 0
scalar OsgEarthNet.uav[86] utilizationCountMissions 1
scalar OsgEarthNet.uav[86] utilizationCountManeuversMission 11
scalar OsgEarthNet.uav[86] utilizationCountManeuversMaintenance 2
scalar OsgEarthNet.uav[86] utilizationCountChargeState 1
scalar OsgEarthNet.uav[86] utilizationCountOverdrawnAfterMission 0
scalar OsgEarthNet.uav[86] utilizationCountIdleState 2
scalar OsgEarthNet.uav[86] utilizationFail 0
scalar OsgEarthNet.uav[86] simulationTime 259200
scalar OsgEarthNet.uav[87] utilizationSecMission 25694.9530353
scalar OsgEarthNet.uav[87] utilizationSecMaintenance 11228.18650436
scalar OsgEarthNet.uav[87] utilizationSecCharge 136062.69111719
scalar OsgEarthNet.uav[87] utilizationSecIdle 86214.168343145
scalar OsgEarthNet.uav[87] utilizationEnergyMission 117513.68995667
scalar OsgEarthNet.uav[87] utilizationEnergyMaintenance 53199.075206757
scalar OsgEarthNet.uav[87] utilizationEnergyCharge 170735.86279297
scalar OsgEarthNet.uav[87] utilizationEnergyOverdrawMission 0
scalar OsgEarthNet.uav[87] utilizationEnergyOverdrawMaintenance 0
scalar OsgEarthNet.uav[87] utilizationCountMissions 37
scalar OsgEarthNet.uav[87] utilizationCountManeuversMission 423
scalar OsgEarthNet.uav[87] utilizationCountManeuversMaintenance 74
scalar OsgEarthNet.uav[87] utilizationCountChargeState 37
scalar OsgEarthNet.uav[87] utilizationCountOverdrawnAfterMission 0
scalar OsgEarthNet.uav[87] utilizationCountIdleState 37
scalar OsgEarthNet.uav[87] utilizationFail 0
scalar OsgEarthNet.uav[87] simulationTime 259200
scalar OsgEarthNet.uav[88] utilizationSecMission 887.1741082606
scalar OsgEarthNet.uav[88] utilizationSecMaintenance 171.13387461676
scalar OsgEarthNet.uav[88] utilizationSecCharge 3890
scalar OsgEarthNet.uav[88] utilizationSecIdle 254251.69101712
scalar OsgEarthNet.uav[88] utilizationEnergyMission 4249.1265563965
scalar OsgEarthNet.uav[88] utilizationEnergyMaintenance 800.81307220459
scalar OsgEarthNet.uav[88] utilizationEnergyCharge 4936.3178710938
scalar OsgEarthNet.uav[88] utilizationEnergyOverdrawMission 0
scalar OsgEarthNet.uav[88] utilizationEnergyOverdrawMaintenance 0
scalar OsgEarthNet.uav[88] utilizationCountMissions 1
scalar OsgEarthNet.uav[88] utilizationCountManeuversMission 14
scalar OsgEarthNet.uav[88] utilizationCountManeuversMaintenance 2
scalar OsgEarthNet.uav[88] utilizationCountChargeState 1
scalar OsgEarthNet.uav[88] utilizationCountOverdrawnAfterMission 0
scalar OsgEarthNet.uav[88] utilizationCountIdleState 2
scalar OsgEarthNet.uav[88] utilizationFail 0
scalar OsgEarthNet.uav[88] simulationTime 259200
scalar OsgEarthNet.uav[89] utilizationSecMission 684.4732299383
scalar OsgEarthNet.uav[89] utilizationSecMaintenance 298.56834692969
scalar OsgEarthNet.uav[89] utilizationSecCharge 3650
scalar OsgEarthNet.uav[89] utilizationSecIdle 254566.95742313
scalar OsgEarthNet.uav[89] utilizationEnergyMission 3139.0496063232
scalar OsgEarthNet.uav[89] utilizationEnergyMaintenance 1390.0040817261
scalar OsgEarthNet.uav[89] utilizationEnergyCharge 4529.0556640625
scalar OsgEarthNet.uav[89] utilizationEnergyOverdrawMission 0
scalar OsgEarthNet.uav[89] utilizationEnergyOverdrawMaintenance 0
scalar OsgEarthNet.uav[89] utilizationCountMissions 1
scalar OsgEarthNet.uav[89] utilizationCountManeuversMission 11
scalar OsgEarthNet.uav[89] utilizationCountManeuversMaintenance 2
scalar OsgEarthNet.uav[89] utilizationCountChargeState 1
scalar OsgEarthNet.uav[89] utilizationCountOverdrawnAfterMission 0
scalar OsgEarthNet.uav[89] utilizationCountIdleState 2
scalar OsgEarthNet.uav[89] utilizationFail 0
scalar OsgEarthNet.uav[89] simulationTime 259200
scalar OsgEarthNet.uav[90] utilizationSecMission 702.6942798579
scalar OsgEarthNet.uav[90] utilizationSecMaintenance 282.29565405678
scalar OsgEarthNet.uav[90] utilizationSecCharge 3740
scalar OsgEarthNet.uav[90] utilizationSecIdle 254475.00906609
scalar OsgEarthNet.uav[90] utilizationEnergyMission 3284.0239868164
scalar OsgEarthNet.uav[90] utilizationEnergyMaintenance 1424.6176567078
scalar OsgEarthNet.uav[90] utilizationEnergyCharge 4708.6420898438
scalar OsgEarthNet.uav[90] utilizationEnergyOverdrawMission 0
scalar OsgEarthNet.uav[90] utilizationEnergyOverdrawMaintenance 0
scalar OsgEarthNet.uav[90] utilizationCountMissions 1
scalar OsgEarthNet.uav[90] utilizationCountManeuversMission 10
scalar OsgEarthNet.uav[90] utilizationCountManeuversMaintenance 2
scalar OsgEarthNet.uav[90] utilizationCountChargeState 1
scalar OsgEarthNet.uav[90] utilizationCountOverdrawnAfterMission 0
scalar OsgEarthNet.uav[90] utilizationCountIdleState 2
scalar OsgEarthNet.uav[90] utilizationFail 0
scalar OsgEarthNet.uav[90] simulationTime 259200
scalar OsgEarthNet.uav[91] utilizationSecMission 23130.119031703
scalar OsgEarthNet.uav[91] utilizationSecMaintenance 12131.678358203
scalar OsgEarthNet.uav[91] utilizationSecCharge 128554.90916302
scalar OsgEarthNet.uav[91] utilizationSecIdle 95383.292447074
scalar OsgEarthNet.uav[91] utilizationEnergyMission 107345.7375946
scalar OsgEarthNet.uav[91] utilizationEnergyMaintenance 57030.378952026
scalar OsgEarthNet.uav[91] utilizationEnergyCharge 162011.01074219
scalar OsgEarthNet.uav[91] utilizationEnergyOverdrawMission 0
scalar OsgEarthNet.uav[91] utilizationEnergyOverdrawMaintenance 0
scalar OsgEarthNet.uav[91] utilizationCountMissions 35
scalar OsgEarthNet.uav[91] utilizationCountManeuversMission 376
scalar OsgEarthNet.uav[91] utilizationCountManeuversMaintenance 70
scalar OsgEarthNet.uav[91] utilizationCountChargeState 35
scalar OsgEarthNet.uav[91] utilizationCountOverdrawnAfterMission 0
scalar OsgEarthNet.uav[91] utilizationCountIdleState 35
scalar OsgEarthNet.uav[91] utilizationFail 0
scalar OsgEarthNet.uav[91] simulationTime 259200
scalar OsgEarthNet.uav[92] utilizationSecMission 3536.8087460268
scalar OsgEarthNet.uav[92] utilizationSecMaintenance 2479.4021040923
scalar OsgEarthNet.uav[92] utilizationSecCharge 22270
scalar OsgEarthNet.uav[92] utilizationSecIdle 230913.78814988
scalar OsgEarthNet.uav[92] utilizationEnergyMission 16527.766590118
scalar OsgEarthNet.uav[92] utilizationEnergyMaintenance 11429.831916809
scalar OsgEarthNet.uav[92] utilizationEnergyCharge 27833.838378906
scalar OsgEarthNet.uav[92] utilizationEnergyOverdrawMission 0
scalar OsgEarthNet.uav[92] utilizationEnergyOverdrawMaintenance 0
scalar OsgEarthNet.uav[92] utilizationCountMissions 6
scalar OsgEarthNet.uav[92] utilizationCountManeuversMission 64
scalar OsgEarthNet.uav[92] utilizationCountManeuversMaintenance 12
scalar OsgEarthNet.uav[92] utilizationCountChargeState 6
scalar OsgEarthNet.uav[92] utilizationCountOverdrawnAfterMission 0
scalar OsgEarthNet.uav[92] utilizationCountIdleState 7
scalar OsgEarthNet.uav[92] utilizationFail 0
scalar OsgEarthNet.uav[92] simulationTime 259200
scalar OsgEarthNet.uav[93] utilizationSecMission 760.62515258028
scalar OsgEarthNet.uav[93] utilizationSecMaintenance 291.95923480269
scalar OsgEarthNet.uav[93] utilizationSecCharge 3720
scalar OsgEarthNet.uav[93] utilizationSecIdle 254427.41461262
scalar OsgEarthNet.uav[93] utilizationEnergyMission 3316.5056610107
scalar OsgEarthNet.uav[93] utilizationEnergyMaintenance 1332.0305404663
scalar OsgEarthNet.uav[93] utilizationEnergyCharge 4648.5375976562
scalar OsgEarthNet.uav[93] utilizationEnergyOverdrawMission 0
scalar OsgEarthNet.uav[93] utilizationEnergyOverdrawMaintenance 0
scalar OsgEarthNet.uav[93] utilizationCountMissions 1
scalar OsgEarthNet.uav[93] utilizationCountManeuversMission 12
scalar OsgEarthNet.uav[93] utilizationCountManeuversMaintenance 2
scalar OsgEarthNet.uav[93] utilizationCountChargeState 1
scalar OsgEarthNet.uav[93] utilizationCountOverdrawnAfterMission 0
scalar OsgEarthNet.uav[93] utilizationCountIdleState 2
scalar OsgEarthNet.uav[93] utilizationFail 0
scalar OsgEarthNet.uav[93] simulationTime 259200
scalar OsgEarthNet.uav[94] utilizationSecMission 22888.996352387
scalar OsgEarthNet.uav[94] utilizationSecMaintenance 12095.481739396
scalar OsgEarthNet.uav[94] utilizationSecCharge 127670
scalar OsgEarthNet.uav[94] utilizationSecIdle 96545.520908217
scalar OsgEarthNet.uav[94] utilizationEnergyMission 106816.33649936
scalar OsgEarthNet.uav[94] utilizationEnergyMaintenance 56184.397098541
scalar OsgEarthNet.uav[94] utilizationEnergyCharge 160498.50341797
scalar OsgEarthNet.uav[94] utilizationEnergyOverdrawMission 0
scalar OsgEarthNet.uav[94] utilizationEnergyOverdrawMaintenance 0
scalar OsgEarthNet.uav[94] utilizationCountMissions 34
scalar OsgEarthNet.uav[94] utilizationCountManeuversMission 376
scalar OsgEarthNet.uav[94] utilizationCountManeuversMaintenance 69
scalar OsgEarthNet.uav[94] utilizationCountChargeState 34
scalar OsgEarthNet.uav[94] utilizationCountOverdrawnAfterMission 0
scalar OsgEarthNet.uav[94] utilizationCountIdleState 35
scalar OsgEarthNet.uav[94] utilizationFail 0
scalar OsgEarthNet.uav[94] simulationTime 259200
scalar OsgEarthNet.uav[95] utilizationSecMission 30829.950630044
scalar OsgEarthNet.uav[95] utilizationSecMaintenance 14423.197402057
scalar OsgEarthNet.uav[95] utilizationSecCharge 166474.8509679
scalar OsgEarthNet.uav[95] utilizationSecIdle 47472
scalar OsgEarthNet.uav[95] utilizationEnergyMission 142279.1830577
scalar OsgEarthNet.uav[95] utilizationEnergyMaintenance 66503.208049774
scalar OsgEarthNet.uav[95] utilizationEnergyCharge 208901.50732422
scalar OsgEarthNet.uav[95] utilizationEnergyOverdrawMission 0
scalar OsgEarthNet.uav[95] utilizationEnergyOverdrawMaintenance 0
scalar OsgEarthNet.uav[95] utilizationCountMissions 45
scalar OsgEarthNet.uav[95] utilizationCountManeuversMission 503
scalar OsgEarthNet.uav[95] utilizationCountManeuversMaintenance 89
scalar OsgEarthNet.uav[95] utilizationCountChargeState 45
scalar OsgEarthNet.uav[95] utilizationCountOverdrawnAfterMission 0
scalar OsgEarthNet.uav[95] utilizationCountIdleState 45
scalar OsgEarthNet.uav[95] utilizationFail 0
scalar OsgEarthNet.uav[95] simulationTime 259200
scalar OsgEarthNet.uav[96] utilizationSecMission 836.77707522227
scalar OsgEarthNet.uav[96] utilizationSecMaintenance 217.0347828456
scalar OsgEarthNet.uav[96] utilizationSecCharge 3760
scalar OsgEarthNet.uav[96] utilizationSecIdle 254386.18714193
scalar OsgEarthNet.uav[96] utilizationEnergyMission 3748.6715393066
scalar OsgEarthNet.uav[96] utilizationEnergyMaintenance 1053.7711601257
scalar OsgEarthNet.uav[96] utilizationEnergyCharge 4746.794921875
scalar OsgEarthNet.uav[96] utilizationEnergyOverdrawMission 0
scalar OsgEarthNet.uav[96] utilizationEnergyOverdrawMaintenance 0
scalar OsgEarthNet.uav[96] utilizationCountMissions 1
scalar OsgEarthNet.uav[96] utilizationCountManeuversMission 13
scalar OsgEarthNet.uav[96] utilizationCountManeuversMaintenance 2
scalar OsgEarthNet.uav[96] utilizationCountChargeState 1
scalar OsgEarthNet.uav[96] utilizationCountOverdrawnAfterMission 0
scalar OsgEarthNet.uav[96] utilizationCountIdleState 2
scalar OsgEarthNet.uav[96] utilizationFail 0
scalar OsgEarthNet.uav[96] simulationTime 259200
scalar OsgEarthNet.uav[97] utilizationSecMission 1842.20245231
scalar OsgEarthNet.uav[97] utilizationSecMaintenance 1163.0992883163
scalar OsgEarthNet.uav[97] utilizationSecCharge 11020
scalar OsgEarthNet.uav[97] utilizationSecIdle 245174.69725937
scalar OsgEarthNet.uav[97] utilizationEnergyMission 8298.1699523926
scalar OsgEarthNet.uav[97] utilizationEnergyMaintenance 5345.5400123596
scalar OsgEarthNet.uav[97] utilizationEnergyCharge 13821.395019531
scalar OsgEarthNet.uav[97] utilizationEnergyOverdrawMission 0
scalar OsgEarthNet.uav[97] utilizationEnergyOverdrawMaintenance 0
scalar OsgEarthNet.uav[97] utilizationCountMissions 3
scalar OsgEarthNet.uav[97] utilizationCountManeuversMission 34
scalar OsgEarthNet.uav[97] utilizationCountManeuversMaintenance 6
scalar OsgEarthNet.uav[97] utilizationCountChargeState 3
scalar OsgEarthNet.uav[97] utilizationCountOverdrawnAfterMission 0
scalar OsgEarthNet.uav[97] utilizationCountIdleState 4
scalar OsgEarthNet.uav[97] utilizationFail 0
scalar OsgEarthNet.uav[97] simulationTime 259200
scalar OsgEarthNet.uav[98] utilizationSecMission 1366.5997468304
scalar OsgEarthNet.uav[98] utilizationSecMaintenance 738.15432747122
scalar OsgEarthNet.uav[98] utilizationSecCharge 7610
scalar OsgEarthNet.uav[98] utilizationSecIdle 249485.2449257
scalar OsgEarthNet.uav[98] utilizationEnergyMission 6215.0465087891
scalar OsgEarthNet.uav[98] utilizationEnergyMaintenance 3170.5015792847
scalar OsgEarthNet.uav[98] utilizationEnergyCharge 9593.3740234375
scalar OsgEarthNet.uav[98] utilizationEnergyOverdrawMission 0
scalar OsgEarthNet.uav[98] utilizationEnergyOverdrawMaintenance 0
scalar OsgEarthNet.uav[98] utilizationCountMissions 2
scalar OsgEarthNet.uav[98] utilizationCountManeuversMission 21
scalar OsgEarthNet.uav[98] utilizationCountManeuversMaintenance 4
scalar OsgEarthNet.uav[98] utilizationCountChargeState 2
scalar OsgEarthNet.uav[98] utilizationCountOverdrawnAfterMission 0
scalar OsgEarthNet.uav[98] utilizationCountIdleState 3
scalar OsgEarthNet.uav[98] utilizationFail 0
scalar OsgEarthNet.uav[98] simulationTime 259200
scalar OsgEarthNet.uav[99] utilizationSecMission 10267.239738349
scalar OsgEarthNet.uav[99] utilizationSecMaintenance 6793.7119124797
scalar OsgEarthNet.uav[99] utilizationSecCharge 63170
scalar OsgEarthNet.uav[99] utilizationSecIdle 178969.04734917
scalar OsgEarthNet.uav[99] utilizationEnergyMission 47819.766586304
scalar OsgEarthNet.uav[99] utilizationEnergyMaintenance 31209.17830658
scalar OsgEarthNet.uav[99] utilizationEnergyCharge 79289.32421875
scalar OsgEarthNet.uav[99] utilizationEnergyOverdrawMission 0
scalar OsgEarthNet.uav[99] utilizationEnergyOverdrawMaintenance 0
scalar OsgEarthNet.uav[99] utilizationCountMissions 17
scalar OsgEarthNet.uav[99] utilizationCountManeuversMission 170
scalar OsgEarthNet.uav[99] utilizationCountManeuversMaintenance 34
scalar OsgEarthNet.uav[99] utilizationCountChargeState 17
scalar OsgEarthNet.uav[99] utilizationCountOverdrawnAfterMission 0
scalar OsgEarthNet.uav[99] utilizationCountIdleState 18
scalar OsgEarthNet.uav[99] utilizationFail 0
scalar OsgEarthNet.uav[99] simulationTime 259200
scalar OsgEarthNet.cs[0] usedPower 480135.90931809
scalar OsgEarthNet.cs[0] chargedPower 480135.90931809
scalar OsgEarthNet.cs[0] chargedMobileNodes 99
scalar OsgEarthNet.cs[0] reservations 104
scalar OsgEarthNet.cs[1] usedPower 1092925.041707
scalar OsgEarthNet.cs[1] chargedPower 1092925.041707
scalar OsgEarthNet.cs[1] chargedMobileNodes 232
scalar OsgEarthNet.cs[1] reservations 235
scalar OsgEarthNet.cs[2] usedPower 2633951.6001448
scalar OsgEarthNet.cs[2] chargedPower 2633951.6001448
scalar OsgEarthNet.cs[2] chargedMobileNodes 555
scalar OsgEarthNet.cs[2] reservations 561
scalar OsgEarthNet.cs[3] usedPower 789307.42801605
scalar OsgEarthNet.cs[3] chargedPower 789307.42801605
scalar OsgEarthNet.cs[3] chargedMobileNodes 169
scalar OsgEarthNet.cs[3] reservations 173
scalar OsgEarthNet.cs[4] usedPower 696173.90276277
scalar OsgEarthNet.cs[4] chargedPower 696173.90276277
scalar OsgEarthNet.cs[4] chargedMobileNodes 150
scalar OsgEarthNet.cs[4] reservations 152
scalar OsgEarthNet.cs[5] usedPower 521024.41266964
scalar OsgEarthNet.cs[5] chargedPower 521024.41266964
scalar OsgEarthNet.cs[5] chargedMobileNodes 109
scalar OsgEarthNet.cs[5] reservations 110
scalar OsgEarthNet.cs[6] usedPower 2536110.0978351
scalar OsgEarthNet.cs[6] chargedPower 2536110.0978351
scalar OsgEarthNet.cs[6] chargedMobileNodes 541
scalar OsgEarthNet.cs[6] reservations 546

