version 2
run Szenario_Hotel_Gabelbach-11-20180708-23:29:37-51832
attr configname Szenario_Hotel_Gabelbach
attr datetime 20180708-23:29:37
attr experiment Szenario_Hotel_Gabelbach
attr inifile omnetpp.ini
attr iterationvars $replM=0
attr iterationvarsf replM=0-
attr measurement $replM=0
attr network OsgEarthNet
attr processid 51832
attr repetition 11
attr replication #11
attr resultdir results
attr runnumber 11
attr seedset 11
itervar replM 0
param *.osgEarthScene.scene "\"Szenario_Hotel_Gabelbach.earth\""
param *.playgroundLatitude 50.6830269
param *.playgroundLongitude 10.8538055
param *.playgroundWidth 3500m
param *.playgroundHeight 3500m
param *.numUAVs 100
param *.cs[0].posX 3537m
param *.cs[0].posY 965m
param *.cs[0].posZ 538m
param *.cs[1].posX 312m
param *.cs[1].posY 1262m
param *.cs[1].posZ 539m
param *.cs[2].posX 2185m
param *.cs[2].posY 3026m
param *.cs[2].posZ 777m
param *.cs[3].posX 10m
param *.cs[3].posY 2200m
param *.cs[3].posZ 560m
param *.cs[4].posX 750m
param *.cs[4].posY 200m
param *.cs[4].posZ 540m
param *.cs[5].posX 2450m
param *.cs[5].posY 180m
param *.cs[5].posZ 524m
param *.cs[6].posX 3140m
param *.cs[6].posY 1790m
param *.cs[6].posZ 606m
param *.numCSs 7
param *.uav[*].replacementMethod 0
param *.*.timeStep 10s
param *.uav[*].commandPreviewCommandCount 20
param *.missionControl.missionFiles "\"missions\\\\Szenario_WB_Hotel_Gabelbach_Mission_Hotel.waypoints,missions\\\\Szenario_WB_Hotel_Gabelbach_Mission_Kickelhahn.waypoints,missions\\\\Szenario_WB_Hotel_Gabelbach_Mission_Ilmenau_Sportplatz.waypoints,missions\\\\Szenario_WB_Hotel_Gabelbach_Mission_Manebach_Mitte.waypoints,missions\\\\Szenario_WB_Hotel_Gabelbach_Mission_Manebach_Sued.waypoints\""
param *.missionControl.missionFiles "\"missions\\\\Szenario_WB_Hotel_Gabelbach_Mission_Hotel.waypoints,missions\\\\Szenario_WB_Hotel_Gabelbach_Mission_Kickelhahn.waypoints,missions\\\\Szenario_WB_Hotel_Gabelbach_Mission_Ilmenau_Sportplatz.waypoints,missions\\\\Szenario_WB_Hotel_Gabelbach_Mission_Manebach_Mitte.waypoints,missions\\\\Szenario_WB_Hotel_Gabelbach_Mission_Manebach_Sued.waypoints,missions\\\\Szenario_WB_Hotel_Gabelbach_Hover_HoheSchlaufe.waypoints,missions\\\\Szenario_WB_Hotel_Gabelbach_Hover_Kickelhahn.waypoints,missions\\\\Szenario_WB_Hotel_Gabelbach_Hover_Gabelbachskopf.waypoints,missions\\\\Szenario_WB_Hotel_Gabelbach_Hover_Dachskopf.waypoints\""
param *.uav[0].startX 3537m
param *.uav[0].startY 965m
param *.uav[0].startZ 539m
param *.uav[1].startX 312m
param *.uav[1].startY 1262m
param *.uav[1].startZ 540m
param *.uav[2].startX 2185m
param *.uav[2].startY 3026m
param *.uav[2].startZ 778m
param *.uav[3].startX 3537m
param *.uav[3].startY 965m
param *.uav[3].startZ 539m
param *.uav[4].startX 312m
param *.uav[4].startY 1262m
param *.uav[4].startZ 540m
param *.uav[5].startX 2185m
param *.uav[5].startY 3026m
param *.uav[5].startZ 778m
param *.uav[6].startX 3537m
param *.uav[6].startY 965m
param *.uav[6].startZ 539m
param *.uav[7].startX 312m
param *.uav[7].startY 1262m
param *.uav[7].startZ 540m
param *.uav[8].startX 2185m
param *.uav[8].startY 3026m
param *.uav[8].startZ 778m
param *.uav[9].startX 3537m
param *.uav[9].startY 965m
param *.uav[9].startZ 539m
param *.uav[10].startX 3537m
param *.uav[10].startY 965m
param *.uav[10].startZ 539m
param *.uav[11].startX 312m
param *.uav[11].startY 1262m
param *.uav[11].startZ 540m
param *.uav[12].startX 2185m
param *.uav[12].startY 3026m
param *.uav[12].startZ 778m
param *.uav[13].startX 3537m
param *.uav[13].startY 965m
param *.uav[13].startZ 539m
param *.uav[14].startX 312m
param *.uav[14].startY 1262m
param *.uav[14].startZ 540m
param *.uav[15].startX 2185m
param *.uav[15].startY 3026m
param *.uav[15].startZ 778m
param *.uav[16].startX 3537m
param *.uav[16].startY 965m
param *.uav[16].startZ 539m
param *.uav[17].startX 312m
param *.uav[17].startY 1262m
param *.uav[17].startZ 540m
param *.uav[18].startX 2185m
param *.uav[18].startY 3026m
param *.uav[18].startZ 778m
param *.uav[19].startX 3537m
param *.uav[19].startY 965m
param *.uav[19].startZ 539m
param *.uav[20].startX 3537m
param *.uav[20].startY 965m
param *.uav[20].startZ 539m
param *.uav[21].startX 312m
param *.uav[21].startY 1262m
param *.uav[21].startZ 540m
param *.uav[22].startX 2185m
param *.uav[22].startY 3026m
param *.uav[22].startZ 778m
param *.uav[23].startX 3537m
param *.uav[23].startY 965m
param *.uav[23].startZ 539m
param *.uav[24].startX 312m
param *.uav[24].startY 1262m
param *.uav[24].startZ 540m
param *.uav[25].startX 2185m
param *.uav[25].startY 3026m
param *.uav[25].startZ 778m
param *.uav[26].startX 3537m
param *.uav[26].startY 965m
param *.uav[26].startZ 539m
param *.uav[27].startX 312m
param *.uav[27].startY 1262m
param *.uav[27].startZ 540m
param *.uav[28].startX 2185m
param *.uav[28].startY 3026m
param *.uav[28].startZ 778m
param *.uav[29].startX 3537m
param *.uav[29].startY 965m
param *.uav[29].startZ 539m
param *.uav[30].startX 3537m
param *.uav[30].startY 965m
param *.uav[30].startZ 539m
param *.uav[31].startX 312m
param *.uav[31].startY 1262m
param *.uav[31].startZ 540m
param *.uav[32].startX 2185m
param *.uav[32].startY 3026m
param *.uav[32].startZ 778m
param *.uav[33].startX 3537m
param *.uav[33].startY 965m
param *.uav[33].startZ 539m
param *.uav[34].startX 312m
param *.uav[34].startY 1262m
param *.uav[34].startZ 540m
param *.uav[35].startX 2185m
param *.uav[35].startY 3026m
param *.uav[35].startZ 778m
param *.uav[36].startX 3537m
param *.uav[36].startY 965m
param *.uav[36].startZ 539m
param *.uav[37].startX 312m
param *.uav[37].startY 1262m
param *.uav[37].startZ 540m
param *.uav[38].startX 2185m
param *.uav[38].startY 3026m
param *.uav[38].startZ 778m
param *.uav[39].startX 3537m
param *.uav[39].startY 965m
param *.uav[39].startZ 539m
param *.uav[40].startX 3537m
param *.uav[40].startY 965m
param *.uav[40].startZ 539m
param *.uav[41].startX 312m
param *.uav[41].startY 1262m
param *.uav[41].startZ 540m
param *.uav[42].startX 2185m
param *.uav[42].startY 3026m
param *.uav[42].startZ 778m
param *.uav[43].startX 3537m
param *.uav[43].startY 965m
param *.uav[43].startZ 539m
param *.uav[44].startX 312m
param *.uav[44].startY 1262m
param *.uav[44].startZ 540m
param *.uav[45].startX 2185m
param *.uav[45].startY 3026m
param *.uav[45].startZ 778m
param *.uav[46].startX 3537m
param *.uav[46].startY 965m
param *.uav[46].startZ 539m
param *.uav[47].startX 312m
param *.uav[47].startY 1262m
param *.uav[47].startZ 540m
param *.uav[48].startX 2185m
param *.uav[48].startY 3026m
param *.uav[48].startZ 778m
param *.uav[49].startX 3537m
param *.uav[49].startY 965m
param *.uav[49].startZ 539m
param *.uav[50].startX 3537m
param *.uav[50].startY 965m
param *.uav[50].startZ 539m
param *.uav[51].startX 312m
param *.uav[51].startY 1262m
param *.uav[51].startZ 540m
param *.uav[52].startX 2185m
param *.uav[52].startY 3026m
param *.uav[52].startZ 778m
param *.uav[53].startX 3537m
param *.uav[53].startY 965m
param *.uav[53].startZ 539m
param *.uav[54].startX 312m
param *.uav[54].startY 1262m
param *.uav[54].startZ 540m
param *.uav[55].startX 2185m
param *.uav[55].startY 3026m
param *.uav[55].startZ 778m
param *.uav[56].startX 3537m
param *.uav[56].startY 965m
param *.uav[56].startZ 539m
param *.uav[57].startX 312m
param *.uav[57].startY 1262m
param *.uav[57].startZ 540m
param *.uav[58].startX 2185m
param *.uav[58].startY 3026m
param *.uav[58].startZ 778m
param *.uav[59].startX 3537m
param *.uav[59].startY 965m
param *.uav[59].startZ 539m
param *.uav[60].startX 3537m
param *.uav[60].startY 965m
param *.uav[60].startZ 539m
param *.uav[61].startX 312m
param *.uav[61].startY 1262m
param *.uav[61].startZ 540m
param *.uav[62].startX 2185m
param *.uav[62].startY 3026m
param *.uav[62].startZ 778m
param *.uav[63].startX 3537m
param *.uav[63].startY 965m
param *.uav[63].startZ 539m
param *.uav[64].startX 312m
param *.uav[64].startY 1262m
param *.uav[64].startZ 540m
param *.uav[65].startX 2185m
param *.uav[65].startY 3026m
param *.uav[65].startZ 778m
param *.uav[66].startX 3537m
param *.uav[66].startY 965m
param *.uav[66].startZ 539m
param *.uav[67].startX 312m
param *.uav[67].startY 1262m
param *.uav[67].startZ 540m
param *.uav[68].startX 2185m
param *.uav[68].startY 3026m
param *.uav[68].startZ 778m
param *.uav[69].startX 3537m
param *.uav[69].startY 965m
param *.uav[69].startZ 539m
param *.uav[70].startX 3537m
param *.uav[70].startY 965m
param *.uav[70].startZ 539m
param *.uav[71].startX 312m
param *.uav[71].startY 1262m
param *.uav[71].startZ 540m
param *.uav[72].startX 2185m
param *.uav[72].startY 3026m
param *.uav[72].startZ 778m
param *.uav[73].startX 3537m
param *.uav[73].startY 965m
param *.uav[73].startZ 539m
param *.uav[74].startX 312m
param *.uav[74].startY 1262m
param *.uav[74].startZ 540m
param *.uav[75].startX 2185m
param *.uav[75].startY 3026m
param *.uav[75].startZ 778m
param *.uav[76].startX 3537m
param *.uav[76].startY 965m
param *.uav[76].startZ 539m
param *.uav[77].startX 312m
param *.uav[77].startY 1262m
param *.uav[77].startZ 540m
param *.uav[78].startX 2185m
param *.uav[78].startY 3026m
param *.uav[78].startZ 778m
param *.uav[79].startX 3537m
param *.uav[79].startY 965m
param *.uav[79].startZ 539m
param *.uav[80].startX 3537m
param *.uav[80].startY 965m
param *.uav[80].startZ 539m
param *.uav[81].startX 312m
param *.uav[81].startY 1262m
param *.uav[81].startZ 540m
param *.uav[82].startX 2185m
param *.uav[82].startY 3026m
param *.uav[82].startZ 778m
param *.uav[83].startX 3537m
param *.uav[83].startY 965m
param *.uav[83].startZ 539m
param *.uav[84].startX 312m
param *.uav[84].startY 1262m
param *.uav[84].startZ 540m
param *.uav[85].startX 2185m
param *.uav[85].startY 3026m
param *.uav[85].startZ 778m
param *.uav[86].startX 3537m
param *.uav[86].startY 965m
param *.uav[86].startZ 539m
param *.uav[87].startX 312m
param *.uav[87].startY 1262m
param *.uav[87].startZ 540m
param *.uav[88].startX 2185m
param *.uav[88].startY 3026m
param *.uav[88].startZ 778m
param *.uav[89].startX 3537m
param *.uav[89].startY 965m
param *.uav[89].startZ 539m
param *.uav[90].startX 3537m
param *.uav[90].startY 965m
param *.uav[90].startZ 539m
param *.uav[91].startX 312m
param *.uav[91].startY 1262m
param *.uav[91].startZ 540m
param *.uav[92].startX 2185m
param *.uav[92].startY 3026m
param *.uav[92].startZ 778m
param *.uav[93].startX 3537m
param *.uav[93].startY 965m
param *.uav[93].startZ 539m
param *.uav[94].startX 312m
param *.uav[94].startY 1262m
param *.uav[94].startZ 540m
param *.uav[95].startX 2185m
param *.uav[95].startY 3026m
param *.uav[95].startZ 778m
param *.uav[96].startX 3537m
param *.uav[96].startY 965m
param *.uav[96].startZ 539m
param *.uav[97].startX 312m
param *.uav[97].startY 1262m
param *.uav[97].startZ 540m
param *.uav[98].startX 2185m
param *.uav[98].startY 3026m
param *.uav[98].startZ 778m
param *.uav[99].startX 3537m
param *.uav[99].startY 965m
param *.uav[99].startZ 539m
param *.osgEarthScene.scene "\"boston.earth\""
param *.playgroundLatitude 42.3558
param *.playgroundLongitude -71.0677
param *.playgroundWidth 400m
param *.playgroundHeight 200m
param *.channelController.connectionColor "\"#0000FF40\""
param *.channelController.showConnections false
param *.uav[*].modelURL "\"quadrocopter.small.obj.15.scale.0,0,90.rot\""
param *.uav[*].labelColor "\"#FF7C00CC\""
param *.uav[*].label2Color "\"#FF7C00EE\""
param *.uav[*].batteryCapacity 5200mAh
param *.uav[*].batteryRemaining uav[index].batteryCapacity
param *.uav[*].predictionQuantile 0.95
param *.uav[*].replacementMethod 2
param *.uav[*].weightedSumWeight 0.5
param *.cs[*].modelURL "\"chargingstation_v1.osgt.2.scale.0,0,0.rot.0,0,-15e-1.trans\""
param *.cs[*].spotsWaiting 999
param *.cs[*].spotsCharging 999
param *.cs[*].chargeEffectivenessPercentage 100
param *.cs[*].nonLinearPhaseStartPercentage 85
param *.cs[*].chargeCurrent 6.0A
param *.cs[*].prioritizeFastCharge true
param *.missionControl.replacementSearchMethod 0
param *.*.timeStep 9s

scalar OsgEarthNet.uav[0] utilizationSecMission 684.4732299383
scalar OsgEarthNet.uav[0] utilizationSecMaintenance 298.56834692969
scalar OsgEarthNet.uav[0] utilizationSecCharge 3690
scalar OsgEarthNet.uav[0] utilizationSecIdle 254526.95742313
scalar OsgEarthNet.uav[0] utilizationEnergyMission 3093.1839294434
scalar OsgEarthNet.uav[0] utilizationEnergyMaintenance 1535.3646469116
scalar OsgEarthNet.uav[0] utilizationEnergyCharge 4628.552734375
scalar OsgEarthNet.uav[0] utilizationEnergyOverdrawMission 0
scalar OsgEarthNet.uav[0] utilizationEnergyOverdrawMaintenance 0
scalar OsgEarthNet.uav[0] utilizationCountMissions 1
scalar OsgEarthNet.uav[0] utilizationCountManeuversMission 11
scalar OsgEarthNet.uav[0] utilizationCountManeuversMaintenance 2
scalar OsgEarthNet.uav[0] utilizationCountChargeState 1
scalar OsgEarthNet.uav[0] utilizationCountOverdrawnAfterMission 0
scalar OsgEarthNet.uav[0] utilizationCountIdleState 2
scalar OsgEarthNet.uav[0] utilizationFail 0
scalar OsgEarthNet.uav[0] simulationTime 259200
scalar OsgEarthNet.uav[1] utilizationSecMission 597.53391521556
scalar OsgEarthNet.uav[1] utilizationSecMaintenance 388.71128889908
scalar OsgEarthNet.uav[1] utilizationSecCharge 3790
scalar OsgEarthNet.uav[1] utilizationSecIdle 254423.75379589
scalar OsgEarthNet.uav[1] utilizationEnergyMission 2815.5566558838
scalar OsgEarthNet.uav[1] utilizationEnergyMaintenance 1907.9449272156
scalar OsgEarthNet.uav[1] utilizationEnergyCharge 4786.025390625
scalar OsgEarthNet.uav[1] utilizationEnergyOverdrawMission 0
scalar OsgEarthNet.uav[1] utilizationEnergyOverdrawMaintenance 0
scalar OsgEarthNet.uav[1] utilizationCountMissions 1
scalar OsgEarthNet.uav[1] utilizationCountManeuversMission 9
scalar OsgEarthNet.uav[1] utilizationCountManeuversMaintenance 2
scalar OsgEarthNet.uav[1] utilizationCountChargeState 1
scalar OsgEarthNet.uav[1] utilizationCountOverdrawnAfterMission 0
scalar OsgEarthNet.uav[1] utilizationCountIdleState 2
scalar OsgEarthNet.uav[1] utilizationFail 0
scalar OsgEarthNet.uav[1] simulationTime 259200
scalar OsgEarthNet.uav[2] utilizationSecMission 750.20472747826
scalar OsgEarthNet.uav[2] utilizationSecMaintenance 300.8347882699
scalar OsgEarthNet.uav[2] utilizationSecCharge 3870
scalar OsgEarthNet.uav[2] utilizationSecIdle 254278.95948425
scalar OsgEarthNet.uav[2] utilizationEnergyMission 3527.5620117188
scalar OsgEarthNet.uav[2] utilizationEnergyMaintenance 1371.8528556824
scalar OsgEarthNet.uav[2] utilizationEnergyCharge 4899.416015625
scalar OsgEarthNet.uav[2] utilizationEnergyOverdrawMission 0
scalar OsgEarthNet.uav[2] utilizationEnergyOverdrawMaintenance 0
scalar OsgEarthNet.uav[2] utilizationCountMissions 1
scalar OsgEarthNet.uav[2] utilizationCountManeuversMission 11
scalar OsgEarthNet.uav[2] utilizationCountManeuversMaintenance 2
scalar OsgEarthNet.uav[2] utilizationCountChargeState 1
scalar OsgEarthNet.uav[2] utilizationCountOverdrawnAfterMission 0
scalar OsgEarthNet.uav[2] utilizationCountIdleState 2
scalar OsgEarthNet.uav[2] utilizationFail 0
scalar OsgEarthNet.uav[2] simulationTime 259200
scalar OsgEarthNet.uav[3] utilizationSecMission 28072.89761928
scalar OsgEarthNet.uav[3] utilizationSecMaintenance 15680.093436814
scalar OsgEarthNet.uav[3] utilizationSecCharge 160034.86813076
scalar OsgEarthNet.uav[3] utilizationSecIdle 55412.139813144
scalar OsgEarthNet.uav[3] utilizationEnergyMission 130433.00442123
scalar OsgEarthNet.uav[3] utilizationEnergyMaintenance 71619.303508759
scalar OsgEarthNet.uav[3] utilizationEnergyCharge 201298.12207031
scalar OsgEarthNet.uav[3] utilizationEnergyOverdrawMission 0
scalar OsgEarthNet.uav[3] utilizationEnergyOverdrawMaintenance 0
scalar OsgEarthNet.uav[3] utilizationCountMissions 43
scalar OsgEarthNet.uav[3] utilizationCountManeuversMission 456
scalar OsgEarthNet.uav[3] utilizationCountManeuversMaintenance 86
scalar OsgEarthNet.uav[3] utilizationCountChargeState 43
scalar OsgEarthNet.uav[3] utilizationCountOverdrawnAfterMission 0
scalar OsgEarthNet.uav[3] utilizationCountIdleState 43
scalar OsgEarthNet.uav[3] utilizationFail 0
scalar OsgEarthNet.uav[3] simulationTime 259200
scalar OsgEarthNet.uav[4] utilizationSecMission 30141.949382094
scalar OsgEarthNet.uav[4] utilizationSecMaintenance 15248.881629099
scalar OsgEarthNet.uav[4] utilizationSecCharge 165355.88854223
scalar OsgEarthNet.uav[4] utilizationSecIdle 48453.279446582
scalar OsgEarthNet.uav[4] utilizationEnergyMission 138766.21572113
scalar OsgEarthNet.uav[4] utilizationEnergyMaintenance 71611.359046936
scalar OsgEarthNet.uav[4] utilizationEnergyCharge 208268.81298828
scalar OsgEarthNet.uav[4] utilizationEnergyOverdrawMission 0
scalar OsgEarthNet.uav[4] utilizationEnergyOverdrawMaintenance 0
scalar OsgEarthNet.uav[4] utilizationCountMissions 45
scalar OsgEarthNet.uav[4] utilizationCountManeuversMission 496
scalar OsgEarthNet.uav[4] utilizationCountManeuversMaintenance 90
scalar OsgEarthNet.uav[4] utilizationCountChargeState 45
scalar OsgEarthNet.uav[4] utilizationCountOverdrawnAfterMission 0
scalar OsgEarthNet.uav[4] utilizationCountIdleState 45
scalar OsgEarthNet.uav[4] utilizationFail 0
scalar OsgEarthNet.uav[4] simulationTime 259200
scalar OsgEarthNet.uav[5] utilizationSecMission 694.00169469977
scalar OsgEarthNet.uav[5] utilizationSecMaintenance 338.49695459722
scalar OsgEarthNet.uav[5] utilizationSecCharge 3540
scalar OsgEarthNet.uav[5] utilizationSecIdle 254627.5003507
scalar OsgEarthNet.uav[5] utilizationEnergyMission 2963.9900436401
scalar OsgEarthNet.uav[5] utilizationEnergyMaintenance 1437.1849479675
scalar OsgEarthNet.uav[5] utilizationEnergyCharge 4401.1708984375
scalar OsgEarthNet.uav[5] utilizationEnergyOverdrawMission 0
scalar OsgEarthNet.uav[5] utilizationEnergyOverdrawMaintenance 0
scalar OsgEarthNet.uav[5] utilizationCountMissions 1
scalar OsgEarthNet.uav[5] utilizationCountManeuversMission 13
scalar OsgEarthNet.uav[5] utilizationCountManeuversMaintenance 2
scalar OsgEarthNet.uav[5] utilizationCountChargeState 1
scalar OsgEarthNet.uav[5] utilizationCountOverdrawnAfterMission 0
scalar OsgEarthNet.uav[5] utilizationCountIdleState 2
scalar OsgEarthNet.uav[5] utilizationFail 0
scalar OsgEarthNet.uav[5] simulationTime 259200
scalar OsgEarthNet.uav[6] utilizationSecMission 684.4732299383
scalar OsgEarthNet.uav[6] utilizationSecMaintenance 298.56834692969
scalar OsgEarthNet.uav[6] utilizationSecCharge 3730
scalar OsgEarthNet.uav[6] utilizationSecIdle 254486.95742313
scalar OsgEarthNet.uav[6] utilizationEnergyMission 3362.0868988037
scalar OsgEarthNet.uav[6] utilizationEnergyMaintenance 1345.3170700073
scalar OsgEarthNet.uav[6] utilizationEnergyCharge 4707.404296875
scalar OsgEarthNet.uav[6] utilizationEnergyOverdrawMission 0
scalar OsgEarthNet.uav[6] utilizationEnergyOverdrawMaintenance 0
scalar OsgEarthNet.uav[6] utilizationCountMissions 1
scalar OsgEarthNet.uav[6] utilizationCountManeuversMission 11
scalar OsgEarthNet.uav[6] utilizationCountManeuversMaintenance 2
scalar OsgEarthNet.uav[6] utilizationCountChargeState 1
scalar OsgEarthNet.uav[6] utilizationCountOverdrawnAfterMission 0
scalar OsgEarthNet.uav[6] utilizationCountIdleState 2
scalar OsgEarthNet.uav[6] utilizationFail 0
scalar OsgEarthNet.uav[6] simulationTime 259200
scalar OsgEarthNet.uav[7] utilizationSecMission 30318.381554041
scalar OsgEarthNet.uav[7] utilizationSecMaintenance 14117.956995824
scalar OsgEarthNet.uav[7] utilizationSecCharge 162637.30072346
scalar OsgEarthNet.uav[7] utilizationSecIdle 52126.359726671
scalar OsgEarthNet.uav[7] utilizationEnergyMission 140498.34825897
scalar OsgEarthNet.uav[7] utilizationEnergyMaintenance 66214.918334961
scalar OsgEarthNet.uav[7] utilizationEnergyCharge 205084.29370117
scalar OsgEarthNet.uav[7] utilizationEnergyOverdrawMission 0
scalar OsgEarthNet.uav[7] utilizationEnergyOverdrawMaintenance 0
scalar OsgEarthNet.uav[7] utilizationCountMissions 44
scalar OsgEarthNet.uav[7] utilizationCountManeuversMission 487
scalar OsgEarthNet.uav[7] utilizationCountManeuversMaintenance 88
scalar OsgEarthNet.uav[7] utilizationCountChargeState 44
scalar OsgEarthNet.uav[7] utilizationCountOverdrawnAfterMission 0
scalar OsgEarthNet.uav[7] utilizationCountIdleState 44
scalar OsgEarthNet.uav[7] utilizationFail 0
scalar OsgEarthNet.uav[7] simulationTime 259200
scalar OsgEarthNet.uav[8] utilizationSecMission 29779.379827278
scalar OsgEarthNet.uav[8] utilizationSecMaintenance 14405.1252388
scalar OsgEarthNet.uav[8] utilizationSecCharge 160830.99599275
scalar OsgEarthNet.uav[8] utilizationSecIdle 54184.497941176
scalar OsgEarthNet.uav[8] utilizationEnergyMission 137697.73450088
scalar OsgEarthNet.uav[8] utilizationEnergyMaintenance 68203.879451752
scalar OsgEarthNet.uav[8] utilizationEnergyCharge 201976.83502197
scalar OsgEarthNet.uav[8] utilizationEnergyOverdrawMission 0
scalar OsgEarthNet.uav[8] utilizationEnergyOverdrawMaintenance 0
scalar OsgEarthNet.uav[8] utilizationCountMissions 44
scalar OsgEarthNet.uav[8] utilizationCountManeuversMission 474
scalar OsgEarthNet.uav[8] utilizationCountManeuversMaintenance 88
scalar OsgEarthNet.uav[8] utilizationCountChargeState 44
scalar OsgEarthNet.uav[8] utilizationCountOverdrawnAfterMission 0
scalar OsgEarthNet.uav[8] utilizationCountIdleState 44
scalar OsgEarthNet.uav[8] utilizationFail 0
scalar OsgEarthNet.uav[8] simulationTime 259200
scalar OsgEarthNet.uav[9] utilizationSecMission 27528.525684171
scalar OsgEarthNet.uav[9] utilizationSecMaintenance 10546.538649971
scalar OsgEarthNet.uav[9] utilizationSecCharge 141020
scalar OsgEarthNet.uav[9] utilizationSecIdle 80104.934665858
scalar OsgEarthNet.uav[9] utilizationEnergyMission 126708.96009064
scalar OsgEarthNet.uav[9] utilizationEnergyMaintenance 49837.079017639
scalar OsgEarthNet.uav[9] utilizationEnergyCharge 176721.13476562
scalar OsgEarthNet.uav[9] utilizationEnergyOverdrawMission 0
scalar OsgEarthNet.uav[9] utilizationEnergyOverdrawMaintenance 0
scalar OsgEarthNet.uav[9] utilizationCountMissions 38
scalar OsgEarthNet.uav[9] utilizationCountManeuversMission 437
scalar OsgEarthNet.uav[9] utilizationCountManeuversMaintenance 76
scalar OsgEarthNet.uav[9] utilizationCountChargeState 38
scalar OsgEarthNet.uav[9] utilizationCountOverdrawnAfterMission 0
scalar OsgEarthNet.uav[9] utilizationCountIdleState 39
scalar OsgEarthNet.uav[9] utilizationFail 0
scalar OsgEarthNet.uav[9] simulationTime 259200
scalar OsgEarthNet.uav[10] utilizationSecMission 29632.018607437
scalar OsgEarthNet.uav[10] utilizationSecMaintenance 13255.980392563
scalar OsgEarthNet.uav[10] utilizationSecCharge 157930
scalar OsgEarthNet.uav[10] utilizationSecIdle 58382
scalar OsgEarthNet.uav[10] utilizationEnergyMission 136700.25607899
scalar OsgEarthNet.uav[10] utilizationEnergyMaintenance 62392.269398338
scalar OsgEarthNet.uav[10] utilizationEnergyCharge 198893.76318359
scalar OsgEarthNet.uav[10] utilizationEnergyOverdrawMission 0
scalar OsgEarthNet.uav[10] utilizationEnergyOverdrawMaintenance 0
scalar OsgEarthNet.uav[10] utilizationCountMissions 42
scalar OsgEarthNet.uav[10] utilizationCountManeuversMission 488
scalar OsgEarthNet.uav[10] utilizationCountManeuversMaintenance 84
scalar OsgEarthNet.uav[10] utilizationCountChargeState 42
scalar OsgEarthNet.uav[10] utilizationCountOverdrawnAfterMission 0
scalar OsgEarthNet.uav[10] utilizationCountIdleState 43
scalar OsgEarthNet.uav[10] utilizationFail 0
scalar OsgEarthNet.uav[10] simulationTime 259200
scalar OsgEarthNet.uav[11] utilizationSecMission 528.55000878666
scalar OsgEarthNet.uav[11] utilizationSecMaintenance 478.92797493542
scalar OsgEarthNet.uav[11] utilizationSecCharge 3730
scalar OsgEarthNet.uav[11] utilizationSecIdle 254462.52101628
scalar OsgEarthNet.uav[11] utilizationEnergyMission 2402.8229675293
scalar OsgEarthNet.uav[11] utilizationEnergyMaintenance 2234.7376937866
scalar OsgEarthNet.uav[11] utilizationEnergyCharge 4637.5639648438
scalar OsgEarthNet.uav[11] utilizationEnergyOverdrawMission 0
scalar OsgEarthNet.uav[11] utilizationEnergyOverdrawMaintenance 0
scalar OsgEarthNet.uav[11] utilizationCountMissions 1
scalar OsgEarthNet.uav[11] utilizationCountManeuversMission 10
scalar OsgEarthNet.uav[11] utilizationCountManeuversMaintenance 2
scalar OsgEarthNet.uav[11] utilizationCountChargeState 1
scalar OsgEarthNet.uav[11] utilizationCountOverdrawnAfterMission 0
scalar OsgEarthNet.uav[11] utilizationCountIdleState 2
scalar OsgEarthNet.uav[11] utilizationFail 0
scalar OsgEarthNet.uav[11] simulationTime 259200
scalar OsgEarthNet.uav[12] utilizationSecMission 694.00169469977
scalar OsgEarthNet.uav[12] utilizationSecMaintenance 338.49695459722
scalar OsgEarthNet.uav[12] utilizationSecCharge 3690
scalar OsgEarthNet.uav[12] utilizationSecIdle 254477.5003507
scalar OsgEarthNet.uav[12] utilizationEnergyMission 2956.7168884277
scalar OsgEarthNet.uav[12] utilizationEnergyMaintenance 1632.5892448425
scalar OsgEarthNet.uav[12] utilizationEnergyCharge 4589.3041992188
scalar OsgEarthNet.uav[12] utilizationEnergyOverdrawMission 0
scalar OsgEarthNet.uav[12] utilizationEnergyOverdrawMaintenance 0
scalar OsgEarthNet.uav[12] utilizationCountMissions 1
scalar OsgEarthNet.uav[12] utilizationCountManeuversMission 13
scalar OsgEarthNet.uav[12] utilizationCountManeuversMaintenance 2
scalar OsgEarthNet.uav[12] utilizationCountChargeState 1
scalar OsgEarthNet.uav[12] utilizationCountOverdrawnAfterMission 0
scalar OsgEarthNet.uav[12] utilizationCountIdleState 2
scalar OsgEarthNet.uav[12] utilizationFail 0
scalar OsgEarthNet.uav[12] simulationTime 259200
scalar OsgEarthNet.uav[13] utilizationSecMission 760.62515258028
scalar OsgEarthNet.uav[13] utilizationSecMaintenance 223.6438949726
scalar OsgEarthNet.uav[13] utilizationSecCharge 3660
scalar OsgEarthNet.uav[13] utilizationSecIdle 254555.72995245
scalar OsgEarthNet.uav[13] utilizationEnergyMission 3425.5687866211
scalar OsgEarthNet.uav[13] utilizationEnergyMaintenance 1097.2610588074
scalar OsgEarthNet.uav[13] utilizationEnergyCharge 4522.8315429688
scalar OsgEarthNet.uav[13] utilizationEnergyOverdrawMission 0
scalar OsgEarthNet.uav[13] utilizationEnergyOverdrawMaintenance 0
scalar OsgEarthNet.uav[13] utilizationCountMissions 1
scalar OsgEarthNet.uav[13] utilizationCountManeuversMission 12
scalar OsgEarthNet.uav[13] utilizationCountManeuversMaintenance 2
scalar OsgEarthNet.uav[13] utilizationCountChargeState 1
scalar OsgEarthNet.uav[13] utilizationCountOverdrawnAfterMission 0
scalar OsgEarthNet.uav[13] utilizationCountIdleState 2
scalar OsgEarthNet.uav[13] utilizationFail 0
scalar OsgEarthNet.uav[13] simulationTime 259200
scalar OsgEarthNet.uav[14] utilizationSecMission 27225.877076557
scalar OsgEarthNet.uav[14] utilizationSecMaintenance 14032.923132905
scalar OsgEarthNet.uav[14] utilizationSecCharge 152165.29169352
scalar OsgEarthNet.uav[14] utilizationSecIdle 65775.90709702
scalar OsgEarthNet.uav[14] utilizationEnergyMission 126780.75205231
scalar OsgEarthNet.uav[14] utilizationEnergyMaintenance 65861.468772888
scalar OsgEarthNet.uav[14] utilizationEnergyCharge 192328.42358398
scalar OsgEarthNet.uav[14] utilizationEnergyOverdrawMission 0
scalar OsgEarthNet.uav[14] utilizationEnergyOverdrawMaintenance 0
scalar OsgEarthNet.uav[14] utilizationCountMissions 41
scalar OsgEarthNet.uav[14] utilizationCountManeuversMission 448
scalar OsgEarthNet.uav[14] utilizationCountManeuversMaintenance 82
scalar OsgEarthNet.uav[14] utilizationCountChargeState 41
scalar OsgEarthNet.uav[14] utilizationCountOverdrawnAfterMission 0
scalar OsgEarthNet.uav[14] utilizationCountIdleState 41
scalar OsgEarthNet.uav[14] utilizationFail 0
scalar OsgEarthNet.uav[14] simulationTime 259200
scalar OsgEarthNet.uav[15] utilizationSecMission 25214.942358976
scalar OsgEarthNet.uav[15] utilizationSecMaintenance 11801.846394292
scalar OsgEarthNet.uav[15] utilizationSecCharge 136566.76267426
scalar OsgEarthNet.uav[15] utilizationSecIdle 85616.447572472
scalar OsgEarthNet.uav[15] utilizationEnergyMission 116504.21580505
scalar OsgEarthNet.uav[15] utilizationEnergyMaintenance 55825.765270233
scalar OsgEarthNet.uav[15] utilizationEnergyCharge 172087.34619141
scalar OsgEarthNet.uav[15] utilizationEnergyOverdrawMission 0
scalar OsgEarthNet.uav[15] utilizationEnergyOverdrawMaintenance 0
scalar OsgEarthNet.uav[15] utilizationCountMissions 37
scalar OsgEarthNet.uav[15] utilizationCountManeuversMission 405
scalar OsgEarthNet.uav[15] utilizationCountManeuversMaintenance 74
scalar OsgEarthNet.uav[15] utilizationCountChargeState 37
scalar OsgEarthNet.uav[15] utilizationCountOverdrawnAfterMission 0
scalar OsgEarthNet.uav[15] utilizationCountIdleState 37
scalar OsgEarthNet.uav[15] utilizationFail 0
scalar OsgEarthNet.uav[15] simulationTime 259200
scalar OsgEarthNet.uav[16] utilizationSecMission 836.77707522227
scalar OsgEarthNet.uav[16] utilizationSecMaintenance 217.0347828456
scalar OsgEarthNet.uav[16] utilizationSecCharge 3820
scalar OsgEarthNet.uav[16] utilizationSecIdle 254326.18714193
scalar OsgEarthNet.uav[16] utilizationEnergyMission 3770.2531585693
scalar OsgEarthNet.uav[16] utilizationEnergyMaintenance 1086.7129631042
scalar OsgEarthNet.uav[16] utilizationEnergyCharge 4856.9638671875
scalar OsgEarthNet.uav[16] utilizationEnergyOverdrawMission 0
scalar OsgEarthNet.uav[16] utilizationEnergyOverdrawMaintenance 0
scalar OsgEarthNet.uav[16] utilizationCountMissions 1
scalar OsgEarthNet.uav[16] utilizationCountManeuversMission 13
scalar OsgEarthNet.uav[16] utilizationCountManeuversMaintenance 2
scalar OsgEarthNet.uav[16] utilizationCountChargeState 1
scalar OsgEarthNet.uav[16] utilizationCountOverdrawnAfterMission 0
scalar OsgEarthNet.uav[16] utilizationCountIdleState 2
scalar OsgEarthNet.uav[16] utilizationFail 0
scalar OsgEarthNet.uav[16] simulationTime 259200
scalar OsgEarthNet.uav[17] utilizationSecMission 714.69522563476
scalar OsgEarthNet.uav[17] utilizationSecMaintenance 373.36411042445
scalar OsgEarthNet.uav[17] utilizationSecCharge 3820
scalar OsgEarthNet.uav[17] utilizationSecIdle 254291.93966394
scalar OsgEarthNet.uav[17] utilizationEnergyMission 2947.5265808106
scalar OsgEarthNet.uav[17] utilizationEnergyMaintenance 1733.2969169617
scalar OsgEarthNet.uav[17] utilizationEnergyCharge 4823.2216796875
scalar OsgEarthNet.uav[17] utilizationEnergyOverdrawMission 0
scalar OsgEarthNet.uav[17] utilizationEnergyOverdrawMaintenance 0
scalar OsgEarthNet.uav[17] utilizationCountMissions 1
scalar OsgEarthNet.uav[17] utilizationCountManeuversMission 11
scalar OsgEarthNet.uav[17] utilizationCountManeuversMaintenance 2
scalar OsgEarthNet.uav[17] utilizationCountChargeState 1
scalar OsgEarthNet.uav[17] utilizationCountOverdrawnAfterMission 0
scalar OsgEarthNet.uav[17] utilizationCountIdleState 2
scalar OsgEarthNet.uav[17] utilizationFail 0
scalar OsgEarthNet.uav[17] simulationTime 259200
scalar OsgEarthNet.uav[18] utilizationSecMission 30745.249062368
scalar OsgEarthNet.uav[18] utilizationSecMaintenance 13729.787089693
scalar OsgEarthNet.uav[18] utilizationSecCharge 164350
scalar OsgEarthNet.uav[18] utilizationSecIdle 50374.962847939
scalar OsgEarthNet.uav[18] utilizationEnergyMission 141014.12255096
scalar OsgEarthNet.uav[18] utilizationEnergyMaintenance 65476.703475952
scalar OsgEarthNet.uav[18] utilizationEnergyCharge 206345.46240234
scalar OsgEarthNet.uav[18] utilizationEnergyOverdrawMission 0
scalar OsgEarthNet.uav[18] utilizationEnergyOverdrawMaintenance 0
scalar OsgEarthNet.uav[18] utilizationCountMissions 44
scalar OsgEarthNet.uav[18] utilizationCountManeuversMission 490
scalar OsgEarthNet.uav[18] utilizationCountManeuversMaintenance 88
scalar OsgEarthNet.uav[18] utilizationCountChargeState 44
scalar OsgEarthNet.uav[18] utilizationCountOverdrawnAfterMission 0
scalar OsgEarthNet.uav[18] utilizationCountIdleState 45
scalar OsgEarthNet.uav[18] utilizationFail 0
scalar OsgEarthNet.uav[18] simulationTime 259200
scalar OsgEarthNet.uav[19] utilizationSecMission 670.50650402609
scalar OsgEarthNet.uav[19] utilizationSecMaintenance 362.30145289341
scalar OsgEarthNet.uav[19] utilizationSecCharge 3860
scalar OsgEarthNet.uav[19] utilizationSecIdle 254307.19104308
scalar OsgEarthNet.uav[19] utilizationEnergyMission 3119.4109344482
scalar OsgEarthNet.uav[19] utilizationEnergyMaintenance 1774.8452262878
scalar OsgEarthNet.uav[19] utilizationEnergyCharge 4894.2578125
scalar OsgEarthNet.uav[19] utilizationEnergyOverdrawMission 0
scalar OsgEarthNet.uav[19] utilizationEnergyOverdrawMaintenance 0
scalar OsgEarthNet.uav[19] utilizationCountMissions 1
scalar OsgEarthNet.uav[19] utilizationCountManeuversMission 10
scalar OsgEarthNet.uav[19] utilizationCountManeuversMaintenance 2
scalar OsgEarthNet.uav[19] utilizationCountChargeState 1
scalar OsgEarthNet.uav[19] utilizationCountOverdrawnAfterMission 0
scalar OsgEarthNet.uav[19] utilizationCountIdleState 2
scalar OsgEarthNet.uav[19] utilizationFail 0
scalar OsgEarthNet.uav[19] simulationTime 259200
scalar OsgEarthNet.uav[20] utilizationSecMission 545.05972348896
scalar OsgEarthNet.uav[20] utilizationSecMaintenance 427.36308650536
scalar OsgEarthNet.uav[20] utilizationSecCharge 3660
scalar OsgEarthNet.uav[20] utilizationSecIdle 254567.57619001
scalar OsgEarthNet.uav[20] utilizationEnergyMission 2421.6033630371
scalar OsgEarthNet.uav[20] utilizationEnergyMaintenance 1920.7204208374
scalar OsgEarthNet.uav[20] utilizationEnergyCharge 4556.0546875
scalar OsgEarthNet.uav[20] utilizationEnergyOverdrawMission 0
scalar OsgEarthNet.uav[20] utilizationEnergyOverdrawMaintenance 0
scalar OsgEarthNet.uav[20] utilizationCountMissions 1
scalar OsgEarthNet.uav[20] utilizationCountManeuversMission 9
scalar OsgEarthNet.uav[20] utilizationCountManeuversMaintenance 2
scalar OsgEarthNet.uav[20] utilizationCountChargeState 1
scalar OsgEarthNet.uav[20] utilizationCountOverdrawnAfterMission 0
scalar OsgEarthNet.uav[20] utilizationCountIdleState 2
scalar OsgEarthNet.uav[20] utilizationFail 0
scalar OsgEarthNet.uav[20] simulationTime 259200
scalar OsgEarthNet.uav[21] utilizationSecMission 28536.801062164
scalar OsgEarthNet.uav[21] utilizationSecMaintenance 15819.939578226
scalar OsgEarthNet.uav[21] utilizationSecCharge 164049.2292951
scalar OsgEarthNet.uav[21] utilizationSecIdle 50794.029064514
scalar OsgEarthNet.uav[21] utilizationEnergyMission 132573.132267
scalar OsgEarthNet.uav[21] utilizationEnergyMaintenance 74177.781993866
scalar OsgEarthNet.uav[21] utilizationEnergyCharge 206468.38232422
scalar OsgEarthNet.uav[21] utilizationEnergyOverdrawMission 0
scalar OsgEarthNet.uav[21] utilizationEnergyOverdrawMaintenance 0
scalar OsgEarthNet.uav[21] utilizationCountMissions 44
scalar OsgEarthNet.uav[21] utilizationCountManeuversMission 457
scalar OsgEarthNet.uav[21] utilizationCountManeuversMaintenance 88
scalar OsgEarthNet.uav[21] utilizationCountChargeState 44
scalar OsgEarthNet.uav[21] utilizationCountOverdrawnAfterMission 0
scalar OsgEarthNet.uav[21] utilizationCountIdleState 44
scalar OsgEarthNet.uav[21] utilizationFail 0
scalar OsgEarthNet.uav[21] simulationTime 259200
scalar OsgEarthNet.uav[22] utilizationSecMission 27797.742261299
scalar OsgEarthNet.uav[22] utilizationSecMaintenance 15200.686760023
scalar OsgEarthNet.uav[22] utilizationSecCharge 157350.11701674
scalar OsgEarthNet.uav[22] utilizationSecIdle 58851.452961934
scalar OsgEarthNet.uav[22] utilizationEnergyMission 128771.02425385
scalar OsgEarthNet.uav[22] utilizationEnergyMaintenance 70687.269546509
scalar OsgEarthNet.uav[22] utilizationEnergyCharge 198023.69140625
scalar OsgEarthNet.uav[22] utilizationEnergyOverdrawMission 0
scalar OsgEarthNet.uav[22] utilizationEnergyOverdrawMaintenance 0
scalar OsgEarthNet.uav[22] utilizationCountMissions 43
scalar OsgEarthNet.uav[22] utilizationCountManeuversMission 458
scalar OsgEarthNet.uav[22] utilizationCountManeuversMaintenance 86
scalar OsgEarthNet.uav[22] utilizationCountChargeState 43
scalar OsgEarthNet.uav[22] utilizationCountOverdrawnAfterMission 0
scalar OsgEarthNet.uav[22] utilizationCountIdleState 43
scalar OsgEarthNet.uav[22] utilizationFail 0
scalar OsgEarthNet.uav[22] simulationTime 259200
scalar OsgEarthNet.uav[23] utilizationSecMission 11797.162871552
scalar OsgEarthNet.uav[23] utilizationSecMaintenance 4649.088997631
scalar OsgEarthNet.uav[23] utilizationSecCharge 60210
scalar OsgEarthNet.uav[23] utilizationSecIdle 182543.74713082
scalar OsgEarthNet.uav[23] utilizationEnergyMission 54827.770973206
scalar OsgEarthNet.uav[23] utilizationEnergyMaintenance 20974.252426147
scalar OsgEarthNet.uav[23] utilizationEnergyCharge 75860.015136719
scalar OsgEarthNet.uav[23] utilizationEnergyOverdrawMission 0
scalar OsgEarthNet.uav[23] utilizationEnergyOverdrawMaintenance 0
scalar OsgEarthNet.uav[23] utilizationCountMissions 16
scalar OsgEarthNet.uav[23] utilizationCountManeuversMission 188
scalar OsgEarthNet.uav[23] utilizationCountManeuversMaintenance 32
scalar OsgEarthNet.uav[23] utilizationCountChargeState 16
scalar OsgEarthNet.uav[23] utilizationCountOverdrawnAfterMission 0
scalar OsgEarthNet.uav[23] utilizationCountIdleState 17
scalar OsgEarthNet.uav[23] utilizationFail 0
scalar OsgEarthNet.uav[23] simulationTime 259200
scalar OsgEarthNet.uav[24] utilizationSecMission 24490.628390581
scalar OsgEarthNet.uav[24] utilizationSecMaintenance 15962.163562915
scalar OsgEarthNet.uav[24] utilizationSecCharge 150618.8392147
scalar OsgEarthNet.uav[24] utilizationSecIdle 68128.367831802
scalar OsgEarthNet.uav[24] utilizationEnergyMission 114150.19266891
scalar OsgEarthNet.uav[24] utilizationEnergyMaintenance 74641.042125702
scalar OsgEarthNet.uav[24] utilizationEnergyCharge 188758.44384766
scalar OsgEarthNet.uav[24] utilizationEnergyOverdrawMission 0
scalar OsgEarthNet.uav[24] utilizationEnergyOverdrawMaintenance 0
scalar OsgEarthNet.uav[24] utilizationCountMissions 41
scalar OsgEarthNet.uav[24] utilizationCountManeuversMission 409
scalar OsgEarthNet.uav[24] utilizationCountManeuversMaintenance 82
scalar OsgEarthNet.uav[24] utilizationCountChargeState 41
scalar OsgEarthNet.uav[24] utilizationCountOverdrawnAfterMission 0
scalar OsgEarthNet.uav[24] utilizationCountIdleState 41
scalar OsgEarthNet.uav[24] utilizationFail 0
scalar OsgEarthNet.uav[24] simulationTime 259200
scalar OsgEarthNet.uav[25] utilizationSecMission 621.17604176187
scalar OsgEarthNet.uav[25] utilizationSecMaintenance 313.76167006775
scalar OsgEarthNet.uav[25] utilizationSecCharge 3540
scalar OsgEarthNet.uav[25] utilizationSecIdle 254725.06128817
scalar OsgEarthNet.uav[25] utilizationEnergyMission 3004.6952552795
scalar OsgEarthNet.uav[25] utilizationEnergyMaintenance 1395.9783439636
scalar OsgEarthNet.uav[25] utilizationEnergyCharge 4400.6704101562
scalar OsgEarthNet.uav[25] utilizationEnergyOverdrawMission 0
scalar OsgEarthNet.uav[25] utilizationEnergyOverdrawMaintenance 0
scalar OsgEarthNet.uav[25] utilizationCountMissions 1
scalar OsgEarthNet.uav[25] utilizationCountManeuversMission 12
scalar OsgEarthNet.uav[25] utilizationCountManeuversMaintenance 2
scalar OsgEarthNet.uav[25] utilizationCountChargeState 1
scalar OsgEarthNet.uav[25] utilizationCountOverdrawnAfterMission 0
scalar OsgEarthNet.uav[25] utilizationCountIdleState 2
scalar OsgEarthNet.uav[25] utilizationFail 0
scalar OsgEarthNet.uav[25] simulationTime 259200
scalar OsgEarthNet.uav[26] utilizationSecMission 760.62515258028
scalar OsgEarthNet.uav[26] utilizationSecMaintenance 223.6438949726
scalar OsgEarthNet.uav[26] utilizationSecCharge 3740
scalar OsgEarthNet.uav[26] utilizationSecIdle 254475.72995245
scalar OsgEarthNet.uav[26] utilizationEnergyMission 3619.1643981934
scalar OsgEarthNet.uav[26] utilizationEnergyMaintenance 1064.6735343933
scalar OsgEarthNet.uav[26] utilizationEnergyCharge 4683.8364257812
scalar OsgEarthNet.uav[26] utilizationEnergyOverdrawMission 0
scalar OsgEarthNet.uav[26] utilizationEnergyOverdrawMaintenance 0
scalar OsgEarthNet.uav[26] utilizationCountMissions 1
scalar OsgEarthNet.uav[26] utilizationCountManeuversMission 12
scalar OsgEarthNet.uav[26] utilizationCountManeuversMaintenance 2
scalar OsgEarthNet.uav[26] utilizationCountChargeState 1
scalar OsgEarthNet.uav[26] utilizationCountOverdrawnAfterMission 0
scalar OsgEarthNet.uav[26] utilizationCountIdleState 2
scalar OsgEarthNet.uav[26] utilizationFail 0
scalar OsgEarthNet.uav[26] simulationTime 259200
scalar OsgEarthNet.uav[27] utilizationSecMission 21220.494114665
scalar OsgEarthNet.uav[27] utilizationSecMaintenance 9899.1822510756
scalar OsgEarthNet.uav[27] utilizationSecCharge 114405.59367483
scalar OsgEarthNet.uav[27] utilizationSecIdle 113674.72895943
scalar OsgEarthNet.uav[27] utilizationEnergyMission 98730.451526642
scalar OsgEarthNet.uav[27] utilizationEnergyMaintenance 45779.842258453
scalar OsgEarthNet.uav[27] utilizationEnergyCharge 144303.82666016
scalar OsgEarthNet.uav[27] utilizationEnergyOverdrawMission 0
scalar OsgEarthNet.uav[27] utilizationEnergyOverdrawMaintenance 0
scalar OsgEarthNet.uav[27] utilizationCountMissions 31
scalar OsgEarthNet.uav[27] utilizationCountManeuversMission 350
scalar OsgEarthNet.uav[27] utilizationCountManeuversMaintenance 62
scalar OsgEarthNet.uav[27] utilizationCountChargeState 31
scalar OsgEarthNet.uav[27] utilizationCountOverdrawnAfterMission 0
scalar OsgEarthNet.uav[27] utilizationCountIdleState 31
scalar OsgEarthNet.uav[27] utilizationFail 0
scalar OsgEarthNet.uav[27] simulationTime 259200
scalar OsgEarthNet.uav[28] utilizationSecMission 34710.693544649
scalar OsgEarthNet.uav[28] utilizationSecMaintenance 11711.064156222
scalar OsgEarthNet.uav[28] utilizationSecCharge 168426.24129913
scalar OsgEarthNet.uav[28] utilizationSecIdle 44352
scalar OsgEarthNet.uav[28] utilizationEnergyMission 160199.41993435
scalar OsgEarthNet.uav[28] utilizationEnergyMaintenance 53960.970485687
scalar OsgEarthNet.uav[28] utilizationEnergyCharge 213505.23388672
scalar OsgEarthNet.uav[28] utilizationEnergyOverdrawMission 0
scalar OsgEarthNet.uav[28] utilizationEnergyOverdrawMaintenance 0
scalar OsgEarthNet.uav[28] utilizationCountMissions 45
scalar OsgEarthNet.uav[28] utilizationCountManeuversMission 564
scalar OsgEarthNet.uav[28] utilizationCountManeuversMaintenance 89
scalar OsgEarthNet.uav[28] utilizationCountChargeState 45
scalar OsgEarthNet.uav[28] utilizationCountOverdrawnAfterMission 0
scalar OsgEarthNet.uav[28] utilizationCountIdleState 45
scalar OsgEarthNet.uav[28] utilizationFail 0
scalar OsgEarthNet.uav[28] simulationTime 259200
scalar OsgEarthNet.uav[29] utilizationSecMission 760.62515258028
scalar OsgEarthNet.uav[29] utilizationSecMaintenance 223.6438949726
scalar OsgEarthNet.uav[29] utilizationSecCharge 3870
scalar OsgEarthNet.uav[29] utilizationSecIdle 254345.72995245
scalar OsgEarthNet.uav[29] utilizationEnergyMission 3724.7303314209
scalar OsgEarthNet.uav[29] utilizationEnergyMaintenance 1151.201915741
scalar OsgEarthNet.uav[29] utilizationEnergyCharge 4875.93359375
scalar OsgEarthNet.uav[29] utilizationEnergyOverdrawMission 0
scalar OsgEarthNet.uav[29] utilizationEnergyOverdrawMaintenance 0
scalar OsgEarthNet.uav[29] utilizationCountMissions 1
scalar OsgEarthNet.uav[29] utilizationCountManeuversMission 12
scalar OsgEarthNet.uav[29] utilizationCountManeuversMaintenance 2
scalar OsgEarthNet.uav[29] utilizationCountChargeState 1
scalar OsgEarthNet.uav[29] utilizationCountOverdrawnAfterMission 0
scalar OsgEarthNet.uav[29] utilizationCountIdleState 2
scalar OsgEarthNet.uav[29] utilizationFail 0
scalar OsgEarthNet.uav[29] simulationTime 259200
scalar OsgEarthNet.uav[30] utilizationSecMission 684.4732299383
scalar OsgEarthNet.uav[30] utilizationSecMaintenance 298.56834692969
scalar OsgEarthNet.uav[30] utilizationSecCharge 3680
scalar OsgEarthNet.uav[30] utilizationSecIdle 254536.95742313
scalar OsgEarthNet.uav[30] utilizationEnergyMission 3064.4259948731
scalar OsgEarthNet.uav[30] utilizationEnergyMaintenance 1500.9125900269
scalar OsgEarthNet.uav[30] utilizationEnergyCharge 4565.333984375
scalar OsgEarthNet.uav[30] utilizationEnergyOverdrawMission 0
scalar OsgEarthNet.uav[30] utilizationEnergyOverdrawMaintenance 0
scalar OsgEarthNet.uav[30] utilizationCountMissions 1
scalar OsgEarthNet.uav[30] utilizationCountManeuversMission 11
scalar OsgEarthNet.uav[30] utilizationCountManeuversMaintenance 2
scalar OsgEarthNet.uav[30] utilizationCountChargeState 1
scalar OsgEarthNet.uav[30] utilizationCountOverdrawnAfterMission 0
scalar OsgEarthNet.uav[30] utilizationCountIdleState 2
scalar OsgEarthNet.uav[30] utilizationFail 0
scalar OsgEarthNet.uav[30] simulationTime 259200
scalar OsgEarthNet.uav[31] utilizationSecMission 29075.633431883
scalar OsgEarthNet.uav[31] utilizationSecMaintenance 14972.048175858
scalar OsgEarthNet.uav[31] utilizationSecCharge 160991.95496388
scalar OsgEarthNet.uav[31] utilizationSecIdle 54160.362428381
scalar OsgEarthNet.uav[31] utilizationEnergyMission 134447.5874939
scalar OsgEarthNet.uav[31] utilizationEnergyMaintenance 70206.094730377
scalar OsgEarthNet.uav[31] utilizationEnergyCharge 202451.29150391
scalar OsgEarthNet.uav[31] utilizationEnergyOverdrawMission 0
scalar OsgEarthNet.uav[31] utilizationEnergyOverdrawMaintenance 0
scalar OsgEarthNet.uav[31] utilizationCountMissions 44
scalar OsgEarthNet.uav[31] utilizationCountManeuversMission 475
scalar OsgEarthNet.uav[31] utilizationCountManeuversMaintenance 88
scalar OsgEarthNet.uav[31] utilizationCountChargeState 44
scalar OsgEarthNet.uav[31] utilizationCountOverdrawnAfterMission 0
scalar OsgEarthNet.uav[31] utilizationCountIdleState 44
scalar OsgEarthNet.uav[31] utilizationFail 0
scalar OsgEarthNet.uav[31] simulationTime 259200
scalar OsgEarthNet.uav[32] utilizationSecMission 750.20472747826
scalar OsgEarthNet.uav[32] utilizationSecMaintenance 300.8347882699
scalar OsgEarthNet.uav[32] utilizationSecCharge 3820
scalar OsgEarthNet.uav[32] utilizationSecIdle 254328.95948425
scalar OsgEarthNet.uav[32] utilizationEnergyMission 3423.9796142578
scalar OsgEarthNet.uav[32] utilizationEnergyMaintenance 1398.1034049988
scalar OsgEarthNet.uav[32] utilizationEnergyCharge 4822.08203125
scalar OsgEarthNet.uav[32] utilizationEnergyOverdrawMission 0
scalar OsgEarthNet.uav[32] utilizationEnergyOverdrawMaintenance 0
scalar OsgEarthNet.uav[32] utilizationCountMissions 1
scalar OsgEarthNet.uav[32] utilizationCountManeuversMission 11
scalar OsgEarthNet.uav[32] utilizationCountManeuversMaintenance 2
scalar OsgEarthNet.uav[32] utilizationCountChargeState 1
scalar OsgEarthNet.uav[32] utilizationCountOverdrawnAfterMission 0
scalar OsgEarthNet.uav[32] utilizationCountIdleState 2
scalar OsgEarthNet.uav[32] utilizationFail 0
scalar OsgEarthNet.uav[32] simulationTime 259200
scalar OsgEarthNet.uav[33] utilizationSecMission 26314.070656805
scalar OsgEarthNet.uav[33] utilizationSecMaintenance 15898.856833917
scalar OsgEarthNet.uav[33] utilizationSecCharge 154705.55784833
scalar OsgEarthNet.uav[33] utilizationSecIdle 62281.51366095
scalar OsgEarthNet.uav[33] utilizationEnergyMission 121021.72107697
scalar OsgEarthNet.uav[33] utilizationEnergyMaintenance 75571.361392975
scalar OsgEarthNet.uav[33] utilizationEnergyCharge 195009.08837891
scalar OsgEarthNet.uav[33] utilizationEnergyOverdrawMission 0
scalar OsgEarthNet.uav[33] utilizationEnergyOverdrawMaintenance 0
scalar OsgEarthNet.uav[33] utilizationCountMissions 42
scalar OsgEarthNet.uav[33] utilizationCountManeuversMission 429
scalar OsgEarthNet.uav[33] utilizationCountManeuversMaintenance 84
scalar OsgEarthNet.uav[33] utilizationCountChargeState 42
scalar OsgEarthNet.uav[33] utilizationCountOverdrawnAfterMission 0
scalar OsgEarthNet.uav[33] utilizationCountIdleState 42
scalar OsgEarthNet.uav[33] utilizationFail 0
scalar OsgEarthNet.uav[33] simulationTime 259200
scalar OsgEarthNet.uav[34] utilizationSecMission 12078.744355894
scalar OsgEarthNet.uav[34] utilizationSecMaintenance 6068.3968418705
scalar OsgEarthNet.uav[34] utilizationSecCharge 66960
scalar OsgEarthNet.uav[34] utilizationSecIdle 174092.85780224
scalar OsgEarthNet.uav[34] utilizationEnergyMission 56226.335361481
scalar OsgEarthNet.uav[34] utilizationEnergyMaintenance 28244.057395935
scalar OsgEarthNet.uav[34] utilizationEnergyCharge 83817.41015625
scalar OsgEarthNet.uav[34] utilizationEnergyOverdrawMission 0
scalar OsgEarthNet.uav[34] utilizationEnergyOverdrawMaintenance 0
scalar OsgEarthNet.uav[34] utilizationCountMissions 18
scalar OsgEarthNet.uav[34] utilizationCountManeuversMission 200
scalar OsgEarthNet.uav[34] utilizationCountManeuversMaintenance 36
scalar OsgEarthNet.uav[34] utilizationCountChargeState 18
scalar OsgEarthNet.uav[34] utilizationCountOverdrawnAfterMission 0
scalar OsgEarthNet.uav[34] utilizationCountIdleState 19
scalar OsgEarthNet.uav[34] utilizationFail 0
scalar OsgEarthNet.uav[34] simulationTime 259200
scalar OsgEarthNet.uav[35] utilizationSecMission 5384.232034329
scalar OsgEarthNet.uav[35] utilizationSecMaintenance 1766.1726799374
scalar OsgEarthNet.uav[35] utilizationSecCharge 26150
scalar OsgEarthNet.uav[35] utilizationSecIdle 225899.59428573
scalar OsgEarthNet.uav[35] utilizationEnergyMission 24721.05355072
scalar OsgEarthNet.uav[35] utilizationEnergyMaintenance 8081.3143806458
scalar OsgEarthNet.uav[35] utilizationEnergyCharge 32781.368164062
scalar OsgEarthNet.uav[35] utilizationEnergyOverdrawMission 0
scalar OsgEarthNet.uav[35] utilizationEnergyOverdrawMaintenance 0
scalar OsgEarthNet.uav[35] utilizationCountMissions 7
scalar OsgEarthNet.uav[35] utilizationCountManeuversMission 85
scalar OsgEarthNet.uav[35] utilizationCountManeuversMaintenance 14
scalar OsgEarthNet.uav[35] utilizationCountChargeState 7
scalar OsgEarthNet.uav[35] utilizationCountOverdrawnAfterMission 0
scalar OsgEarthNet.uav[35] utilizationCountIdleState 8
scalar OsgEarthNet.uav[35] utilizationFail 0
scalar OsgEarthNet.uav[35] simulationTime 259200
scalar OsgEarthNet.uav[36] utilizationSecMission 406.05775011247
scalar OsgEarthNet.uav[36] utilizationSecMaintenance 549.95104348165
scalar OsgEarthNet.uav[36] utilizationSecCharge 3630
scalar OsgEarthNet.uav[36] utilizationSecIdle 254613.99020641
scalar OsgEarthNet.uav[36] utilizationEnergyMission 1842.4318695068
scalar OsgEarthNet.uav[36] utilizationEnergyMaintenance 2651.6341781616
scalar OsgEarthNet.uav[36] utilizationEnergyCharge 4494.06640625
scalar OsgEarthNet.uav[36] utilizationEnergyOverdrawMission 0
scalar OsgEarthNet.uav[36] utilizationEnergyOverdrawMaintenance 0
scalar OsgEarthNet.uav[36] utilizationCountMissions 1
scalar OsgEarthNet.uav[36] utilizationCountManeuversMission 6
scalar OsgEarthNet.uav[36] utilizationCountManeuversMaintenance 2
scalar OsgEarthNet.uav[36] utilizationCountChargeState 1
scalar OsgEarthNet.uav[36] utilizationCountOverdrawnAfterMission 0
scalar OsgEarthNet.uav[36] utilizationCountIdleState 2
scalar OsgEarthNet.uav[36] utilizationFail 0
scalar OsgEarthNet.uav[36] simulationTime 259200
scalar OsgEarthNet.uav[37] utilizationSecMission 29557.970777424
scalar OsgEarthNet.uav[37] utilizationSecMaintenance 13709.773789462
scalar OsgEarthNet.uav[37] utilizationSecCharge 155958.49540358
scalar OsgEarthNet.uav[37] utilizationSecIdle 59973.759029538
scalar OsgEarthNet.uav[37] utilizationEnergyMission 136400.79101944
scalar OsgEarthNet.uav[37] utilizationEnergyMaintenance 64192.528987885
scalar OsgEarthNet.uav[37] utilizationEnergyCharge 195364.52264404
scalar OsgEarthNet.uav[37] utilizationEnergyOverdrawMission 0
scalar OsgEarthNet.uav[37] utilizationEnergyOverdrawMaintenance 0
scalar OsgEarthNet.uav[37] utilizationCountMissions 43
scalar OsgEarthNet.uav[37] utilizationCountManeuversMission 492
scalar OsgEarthNet.uav[37] utilizationCountManeuversMaintenance 86
scalar OsgEarthNet.uav[37] utilizationCountChargeState 43
scalar OsgEarthNet.uav[37] utilizationCountOverdrawnAfterMission 0
scalar OsgEarthNet.uav[37] utilizationCountIdleState 43
scalar OsgEarthNet.uav[37] utilizationFail 0
scalar OsgEarthNet.uav[37] simulationTime 259200
scalar OsgEarthNet.uav[38] utilizationSecMission 694.00169469977
scalar OsgEarthNet.uav[38] utilizationSecMaintenance 338.49695459722
scalar OsgEarthNet.uav[38] utilizationSecCharge 3770
scalar OsgEarthNet.uav[38] utilizationSecIdle 254397.5003507
scalar OsgEarthNet.uav[38] utilizationEnergyMission 3211.8770599365
scalar OsgEarthNet.uav[38] utilizationEnergyMaintenance 1531.3047599792
scalar OsgEarthNet.uav[38] utilizationEnergyCharge 4743.1821289062
scalar OsgEarthNet.uav[38] utilizationEnergyOverdrawMission 0
scalar OsgEarthNet.uav[38] utilizationEnergyOverdrawMaintenance 0
scalar OsgEarthNet.uav[38] utilizationCountMissions 1
scalar OsgEarthNet.uav[38] utilizationCountManeuversMission 13
scalar OsgEarthNet.uav[38] utilizationCountManeuversMaintenance 2
scalar OsgEarthNet.uav[38] utilizationCountChargeState 1
scalar OsgEarthNet.uav[38] utilizationCountOverdrawnAfterMission 0
scalar OsgEarthNet.uav[38] utilizationCountIdleState 2
scalar OsgEarthNet.uav[38] utilizationFail 0
scalar OsgEarthNet.uav[38] simulationTime 259200
scalar OsgEarthNet.uav[39] utilizationSecMission 836.77707522227
scalar OsgEarthNet.uav[39] utilizationSecMaintenance 217.0347828456
scalar OsgEarthNet.uav[39] utilizationSecCharge 3780
scalar OsgEarthNet.uav[39] utilizationSecIdle 254366.18714193
scalar OsgEarthNet.uav[39] utilizationEnergyMission 3633.536819458
scalar OsgEarthNet.uav[39] utilizationEnergyMaintenance 1124.9151725769
scalar OsgEarthNet.uav[39] utilizationEnergyCharge 4758.4497070312
scalar OsgEarthNet.uav[39] utilizationEnergyOverdrawMission 0
scalar OsgEarthNet.uav[39] utilizationEnergyOverdrawMaintenance 0
scalar OsgEarthNet.uav[39] utilizationCountMissions 1
scalar OsgEarthNet.uav[39] utilizationCountManeuversMission 13
scalar OsgEarthNet.uav[39] utilizationCountManeuversMaintenance 2
scalar OsgEarthNet.uav[39] utilizationCountChargeState 1
scalar OsgEarthNet.uav[39] utilizationCountOverdrawnAfterMission 0
scalar OsgEarthNet.uav[39] utilizationCountIdleState 2
scalar OsgEarthNet.uav[39] utilizationFail 0
scalar OsgEarthNet.uav[39] simulationTime 259200
scalar OsgEarthNet.uav[40] utilizationSecMission 702.6942798579
scalar OsgEarthNet.uav[40] utilizationSecMaintenance 282.29565405678
scalar OsgEarthNet.uav[40] utilizationSecCharge 3680
scalar OsgEarthNet.uav[40] utilizationSecIdle 254535.00906609
scalar OsgEarthNet.uav[40] utilizationEnergyMission 3068.8187713623
scalar OsgEarthNet.uav[40] utilizationEnergyMaintenance 1532.6300773621
scalar OsgEarthNet.uav[40] utilizationEnergyCharge 4601.4501953125
scalar OsgEarthNet.uav[40] utilizationEnergyOverdrawMission 0
scalar OsgEarthNet.uav[40] utilizationEnergyOverdrawMaintenance 0
scalar OsgEarthNet.uav[40] utilizationCountMissions 1
scalar OsgEarthNet.uav[40] utilizationCountManeuversMission 10
scalar OsgEarthNet.uav[40] utilizationCountManeuversMaintenance 2
scalar OsgEarthNet.uav[40] utilizationCountChargeState 1
scalar OsgEarthNet.uav[40] utilizationCountOverdrawnAfterMission 0
scalar OsgEarthNet.uav[40] utilizationCountIdleState 2
scalar OsgEarthNet.uav[40] utilizationFail 0
scalar OsgEarthNet.uav[40] simulationTime 259200
scalar OsgEarthNet.uav[41] utilizationSecMission 26791.976599084
scalar OsgEarthNet.uav[41] utilizationSecMaintenance 13970.779412163
scalar OsgEarthNet.uav[41] utilizationSecCharge 148950.864121
scalar OsgEarthNet.uav[41] utilizationSecIdle 69486.378867758
scalar OsgEarthNet.uav[41] utilizationEnergyMission 123181.82652283
scalar OsgEarthNet.uav[41] utilizationEnergyMaintenance 64871.093254089
scalar OsgEarthNet.uav[41] utilizationEnergyCharge 187710.13378906
scalar OsgEarthNet.uav[41] utilizationEnergyOverdrawMission 0
scalar OsgEarthNet.uav[41] utilizationEnergyOverdrawMaintenance 0
scalar OsgEarthNet.uav[41] utilizationCountMissions 40
scalar OsgEarthNet.uav[41] utilizationCountManeuversMission 440
scalar OsgEarthNet.uav[41] utilizationCountManeuversMaintenance 80
scalar OsgEarthNet.uav[41] utilizationCountChargeState 40
scalar OsgEarthNet.uav[41] utilizationCountOverdrawnAfterMission 0
scalar OsgEarthNet.uav[41] utilizationCountIdleState 40
scalar OsgEarthNet.uav[41] utilizationFail 0
scalar OsgEarthNet.uav[41] simulationTime 259200
scalar OsgEarthNet.uav[42] utilizationSecMission 698.84532193436
scalar OsgEarthNet.uav[42] utilizationSecMaintenance 251.76601760685
scalar OsgEarthNet.uav[42] utilizationSecCharge 3660
scalar OsgEarthNet.uav[42] utilizationSecIdle 254589.38766046
scalar OsgEarthNet.uav[42] utilizationEnergyMission 3458.3144836426
scalar OsgEarthNet.uav[42] utilizationEnergyMaintenance 1150.6824760437
scalar OsgEarthNet.uav[42] utilizationEnergyCharge 4608.9970703125
scalar OsgEarthNet.uav[42] utilizationEnergyOverdrawMission 0
scalar OsgEarthNet.uav[42] utilizationEnergyOverdrawMaintenance 0
scalar OsgEarthNet.uav[42] utilizationCountMissions 1
scalar OsgEarthNet.uav[42] utilizationCountManeuversMission 10
scalar OsgEarthNet.uav[42] utilizationCountManeuversMaintenance 2
scalar OsgEarthNet.uav[42] utilizationCountChargeState 1
scalar OsgEarthNet.uav[42] utilizationCountOverdrawnAfterMission 0
scalar OsgEarthNet.uav[42] utilizationCountIdleState 2
scalar OsgEarthNet.uav[42] utilizationFail 0
scalar OsgEarthNet.uav[42] simulationTime 259200
scalar OsgEarthNet.uav[43] utilizationSecMission 702.6942798579
scalar OsgEarthNet.uav[43] utilizationSecMaintenance 282.29565405678
scalar OsgEarthNet.uav[43] utilizationSecCharge 3630
scalar OsgEarthNet.uav[43] utilizationSecIdle 254585.00906609
scalar OsgEarthNet.uav[43] utilizationEnergyMission 3066.1964111328
scalar OsgEarthNet.uav[43] utilizationEnergyMaintenance 1430.9147148132
scalar OsgEarthNet.uav[43] utilizationEnergyCharge 4497.1069335938
scalar OsgEarthNet.uav[43] utilizationEnergyOverdrawMission 0
scalar OsgEarthNet.uav[43] utilizationEnergyOverdrawMaintenance 0
scalar OsgEarthNet.uav[43] utilizationCountMissions 1
scalar OsgEarthNet.uav[43] utilizationCountManeuversMission 10
scalar OsgEarthNet.uav[43] utilizationCountManeuversMaintenance 2
scalar OsgEarthNet.uav[43] utilizationCountChargeState 1
scalar OsgEarthNet.uav[43] utilizationCountOverdrawnAfterMission 0
scalar OsgEarthNet.uav[43] utilizationCountIdleState 2
scalar OsgEarthNet.uav[43] utilizationFail 0
scalar OsgEarthNet.uav[43] simulationTime 259200
scalar OsgEarthNet.uav[44] utilizationSecMission 26660.322910191
scalar OsgEarthNet.uav[44] utilizationSecMaintenance 14828.607222634
scalar OsgEarthNet.uav[44] utilizationSecCharge 156050
scalar OsgEarthNet.uav[44] utilizationSecIdle 61661.068867175
scalar OsgEarthNet.uav[44] utilizationEnergyMission 124953.82859802
scalar OsgEarthNet.uav[44] utilizationEnergyMaintenance 69769.854877472
scalar OsgEarthNet.uav[44] utilizationEnergyCharge 195233.40869141
scalar OsgEarthNet.uav[44] utilizationEnergyOverdrawMission 0
scalar OsgEarthNet.uav[44] utilizationEnergyOverdrawMaintenance 0
scalar OsgEarthNet.uav[44] utilizationCountMissions 42
scalar OsgEarthNet.uav[44] utilizationCountManeuversMission 439
scalar OsgEarthNet.uav[44] utilizationCountManeuversMaintenance 84
scalar OsgEarthNet.uav[44] utilizationCountChargeState 42
scalar OsgEarthNet.uav[44] utilizationCountOverdrawnAfterMission 0
scalar OsgEarthNet.uav[44] utilizationCountIdleState 43
scalar OsgEarthNet.uav[44] utilizationFail 0
scalar OsgEarthNet.uav[44] simulationTime 259200
scalar OsgEarthNet.uav[45] utilizationSecMission 30124.092596623
scalar OsgEarthNet.uav[45] utilizationSecMaintenance 14689.664567757
scalar OsgEarthNet.uav[45] utilizationSecCharge 162030
scalar OsgEarthNet.uav[45] utilizationSecIdle 52356.241835621
scalar OsgEarthNet.uav[45] utilizationEnergyMission 139124.64735031
scalar OsgEarthNet.uav[45] utilizationEnergyMaintenance 67741.379295883
scalar OsgEarthNet.uav[45] utilizationEnergyCharge 202324.68945312
scalar OsgEarthNet.uav[45] utilizationEnergyOverdrawMission 0
scalar OsgEarthNet.uav[45] utilizationEnergyOverdrawMaintenance 0
scalar OsgEarthNet.uav[45] utilizationCountMissions 45
scalar OsgEarthNet.uav[45] utilizationCountManeuversMission 493
scalar OsgEarthNet.uav[45] utilizationCountManeuversMaintenance 90
scalar OsgEarthNet.uav[45] utilizationCountChargeState 44
scalar OsgEarthNet.uav[45] utilizationCountOverdrawnAfterMission 0
scalar OsgEarthNet.uav[45] utilizationCountIdleState 45
scalar OsgEarthNet.uav[45] utilizationFail 0
scalar OsgEarthNet.uav[45] simulationTime 259200
scalar OsgEarthNet.uav[46] utilizationSecMission 684.4732299383
scalar OsgEarthNet.uav[46] utilizationSecMaintenance 298.56834692969
scalar OsgEarthNet.uav[46] utilizationSecCharge 3820
scalar OsgEarthNet.uav[46] utilizationSecIdle 254396.95742313
scalar OsgEarthNet.uav[46] utilizationEnergyMission 3402.2793121338
scalar OsgEarthNet.uav[46] utilizationEnergyMaintenance 1444.3887557983
scalar OsgEarthNet.uav[46] utilizationEnergyCharge 4846.6630859375
scalar OsgEarthNet.uav[46] utilizationEnergyOverdrawMission 0
scalar OsgEarthNet.uav[46] utilizationEnergyOverdrawMaintenance 0
scalar OsgEarthNet.uav[46] utilizationCountMissions 1
scalar OsgEarthNet.uav[46] utilizationCountManeuversMission 11
scalar OsgEarthNet.uav[46] utilizationCountManeuversMaintenance 2
scalar OsgEarthNet.uav[46] utilizationCountChargeState 1
scalar OsgEarthNet.uav[46] utilizationCountOverdrawnAfterMission 0
scalar OsgEarthNet.uav[46] utilizationCountIdleState 2
scalar OsgEarthNet.uav[46] utilizationFail 0
scalar OsgEarthNet.uav[46] simulationTime 259200
scalar OsgEarthNet.uav[47] utilizationSecMission 28055.095850827
scalar OsgEarthNet.uav[47] utilizationSecMaintenance 14990.538019081
scalar OsgEarthNet.uav[47] utilizationSecCharge 155590
scalar OsgEarthNet.uav[47] utilizationSecIdle 60564.365130092
scalar OsgEarthNet.uav[47] utilizationEnergyMission 129023.27427537
scalar OsgEarthNet.uav[47] utilizationEnergyMaintenance 70151.723320007
scalar OsgEarthNet.uav[47] utilizationEnergyCharge 194888.60351562
scalar OsgEarthNet.uav[47] utilizationEnergyOverdrawMission 0
scalar OsgEarthNet.uav[47] utilizationEnergyOverdrawMaintenance 0
scalar OsgEarthNet.uav[47] utilizationCountMissions 42
scalar OsgEarthNet.uav[47] utilizationCountManeuversMission 454
scalar OsgEarthNet.uav[47] utilizationCountManeuversMaintenance 85
scalar OsgEarthNet.uav[47] utilizationCountChargeState 42
scalar OsgEarthNet.uav[47] utilizationCountOverdrawnAfterMission 0
scalar OsgEarthNet.uav[47] utilizationCountIdleState 43
scalar OsgEarthNet.uav[47] utilizationFail 0
scalar OsgEarthNet.uav[47] simulationTime 259200
scalar OsgEarthNet.uav[48] utilizationSecMission 694.00169469977
scalar OsgEarthNet.uav[48] utilizationSecMaintenance 338.49695459722
scalar OsgEarthNet.uav[48] utilizationSecCharge 3700
scalar OsgEarthNet.uav[48] utilizationSecIdle 254467.5003507
scalar OsgEarthNet.uav[48] utilizationEnergyMission 3202.8777160645
scalar OsgEarthNet.uav[48] utilizationEnergyMaintenance 1451.157787323
scalar OsgEarthNet.uav[48] utilizationEnergyCharge 4654.0317382812
scalar OsgEarthNet.uav[48] utilizationEnergyOverdrawMission 0
scalar OsgEarthNet.uav[48] utilizationEnergyOverdrawMaintenance 0
scalar OsgEarthNet.uav[48] utilizationCountMissions 1
scalar OsgEarthNet.uav[48] utilizationCountManeuversMission 13
scalar OsgEarthNet.uav[48] utilizationCountManeuversMaintenance 2
scalar OsgEarthNet.uav[48] utilizationCountChargeState 1
scalar OsgEarthNet.uav[48] utilizationCountOverdrawnAfterMission 0
scalar OsgEarthNet.uav[48] utilizationCountIdleState 2
scalar OsgEarthNet.uav[48] utilizationFail 0
scalar OsgEarthNet.uav[48] simulationTime 259200
scalar OsgEarthNet.uav[49] utilizationSecMission 31214.483518636
scalar OsgEarthNet.uav[49] utilizationSecMaintenance 14052.312881696
scalar OsgEarthNet.uav[49] utilizationSecCharge 164661.20259967
scalar OsgEarthNet.uav[49] utilizationSecIdle 49272
scalar OsgEarthNet.uav[49] utilizationEnergyMission 143485.79175568
scalar OsgEarthNet.uav[49] utilizationEnergyMaintenance 65729.20507431
scalar OsgEarthNet.uav[49] utilizationEnergyCharge 206865.84887695
scalar OsgEarthNet.uav[49] utilizationEnergyOverdrawMission 0
scalar OsgEarthNet.uav[49] utilizationEnergyOverdrawMaintenance 0
scalar OsgEarthNet.uav[49] utilizationCountMissions 45
scalar OsgEarthNet.uav[49] utilizationCountManeuversMission 498
scalar OsgEarthNet.uav[49] utilizationCountManeuversMaintenance 89
scalar OsgEarthNet.uav[49] utilizationCountChargeState 45
scalar OsgEarthNet.uav[49] utilizationCountOverdrawnAfterMission 0
scalar OsgEarthNet.uav[49] utilizationCountIdleState 45
scalar OsgEarthNet.uav[49] utilizationFail 0
scalar OsgEarthNet.uav[49] simulationTime 259200
scalar OsgEarthNet.uav[50] utilizationSecMission 836.77707522227
scalar OsgEarthNet.uav[50] utilizationSecMaintenance 217.0347828456
scalar OsgEarthNet.uav[50] utilizationSecCharge 3830
scalar OsgEarthNet.uav[50] utilizationSecIdle 254316.18714193
scalar OsgEarthNet.uav[50] utilizationEnergyMission 3754.0660247803
scalar OsgEarthNet.uav[50] utilizationEnergyMaintenance 1113.0513420105
scalar OsgEarthNet.uav[50] utilizationEnergyCharge 4867.1166992188
scalar OsgEarthNet.uav[50] utilizationEnergyOverdrawMission 0
scalar OsgEarthNet.uav[50] utilizationEnergyOverdrawMaintenance 0
scalar OsgEarthNet.uav[50] utilizationCountMissions 1
scalar OsgEarthNet.uav[50] utilizationCountManeuversMission 13
scalar OsgEarthNet.uav[50] utilizationCountManeuversMaintenance 2
scalar OsgEarthNet.uav[50] utilizationCountChargeState 1
scalar OsgEarthNet.uav[50] utilizationCountOverdrawnAfterMission 0
scalar OsgEarthNet.uav[50] utilizationCountIdleState 2
scalar OsgEarthNet.uav[50] utilizationFail 0
scalar OsgEarthNet.uav[50] simulationTime 259200
scalar OsgEarthNet.uav[51] utilizationSecMission 25798.457722448
scalar OsgEarthNet.uav[51] utilizationSecMaintenance 13320.971066477
scalar OsgEarthNet.uav[51] utilizationSecCharge 142948.85166887
scalar OsgEarthNet.uav[51] utilizationSecIdle 77131.718542203
scalar OsgEarthNet.uav[51] utilizationEnergyMission 119068.10794067
scalar OsgEarthNet.uav[51] utilizationEnergyMaintenance 61891.612976074
scalar OsgEarthNet.uav[51] utilizationEnergyCharge 180201.05761719
scalar OsgEarthNet.uav[51] utilizationEnergyOverdrawMission 0
scalar OsgEarthNet.uav[51] utilizationEnergyOverdrawMaintenance 0
scalar OsgEarthNet.uav[51] utilizationCountMissions 39
scalar OsgEarthNet.uav[51] utilizationCountManeuversMission 432
scalar OsgEarthNet.uav[51] utilizationCountManeuversMaintenance 78
scalar OsgEarthNet.uav[51] utilizationCountChargeState 39
scalar OsgEarthNet.uav[51] utilizationCountOverdrawnAfterMission 0
scalar OsgEarthNet.uav[51] utilizationCountIdleState 39
scalar OsgEarthNet.uav[51] utilizationFail 0
scalar OsgEarthNet.uav[51] simulationTime 259200
scalar OsgEarthNet.uav[52] utilizationSecMission 7485.7267574501
scalar OsgEarthNet.uav[52] utilizationSecMaintenance 3717.5537879486
scalar OsgEarthNet.uav[52] utilizationSecCharge 40140.695188803
scalar OsgEarthNet.uav[52] utilizationSecIdle 207856.0232658
scalar OsgEarthNet.uav[52] utilizationEnergyMission 34318.60420227
scalar OsgEarthNet.uav[52] utilizationEnergyMaintenance 17707.192276001
scalar OsgEarthNet.uav[52] utilizationEnergyCharge 51454.942382812
scalar OsgEarthNet.uav[52] utilizationEnergyOverdrawMission 0
scalar OsgEarthNet.uav[52] utilizationEnergyOverdrawMaintenance 0
scalar OsgEarthNet.uav[52] utilizationCountMissions 11
scalar OsgEarthNet.uav[52] utilizationCountManeuversMission 118
scalar OsgEarthNet.uav[52] utilizationCountManeuversMaintenance 22
scalar OsgEarthNet.uav[52] utilizationCountChargeState 11
scalar OsgEarthNet.uav[52] utilizationCountOverdrawnAfterMission 0
scalar OsgEarthNet.uav[52] utilizationCountIdleState 11
scalar OsgEarthNet.uav[52] utilizationFail 0
scalar OsgEarthNet.uav[52] simulationTime 259200
scalar OsgEarthNet.uav[53] utilizationSecMission 2039.7631615265
scalar OsgEarthNet.uav[53] utilizationSecMaintenance 1021.8272516173
scalar OsgEarthNet.uav[53] utilizationSecCharge 11170
scalar OsgEarthNet.uav[53] utilizationSecIdle 244968.40858686
scalar OsgEarthNet.uav[53] utilizationEnergyMission 9394.1141662598
scalar OsgEarthNet.uav[53] utilizationEnergyMaintenance 4676.5280914307
scalar OsgEarthNet.uav[53] utilizationEnergyCharge 13997.840332031
scalar OsgEarthNet.uav[53] utilizationEnergyOverdrawMission 0
scalar OsgEarthNet.uav[53] utilizationEnergyOverdrawMaintenance 0
scalar OsgEarthNet.uav[53] utilizationCountMissions 3
scalar OsgEarthNet.uav[53] utilizationCountManeuversMission 33
scalar OsgEarthNet.uav[53] utilizationCountManeuversMaintenance 6
scalar OsgEarthNet.uav[53] utilizationCountChargeState 3
scalar OsgEarthNet.uav[53] utilizationCountOverdrawnAfterMission 0
scalar OsgEarthNet.uav[53] utilizationCountIdleState 4
scalar OsgEarthNet.uav[53] utilizationFail 0
scalar OsgEarthNet.uav[53] simulationTime 259200
scalar OsgEarthNet.uav[54] utilizationSecMission 31515.421463986
scalar OsgEarthNet.uav[54] utilizationSecMaintenance 14152.577536014
scalar OsgEarthNet.uav[54] utilizationSecCharge 165110
scalar OsgEarthNet.uav[54] utilizationSecIdle 48422
scalar OsgEarthNet.uav[54] utilizationEnergyMission 145586.82189178
scalar OsgEarthNet.uav[54] utilizationEnergyMaintenance 65698.164844935
scalar OsgEarthNet.uav[54] utilizationEnergyCharge 207582.53271484
scalar OsgEarthNet.uav[54] utilizationEnergyOverdrawMission 0
scalar OsgEarthNet.uav[54] utilizationEnergyOverdrawMaintenance 0
scalar OsgEarthNet.uav[54] utilizationCountMissions 45
scalar OsgEarthNet.uav[54] utilizationCountManeuversMission 515
scalar OsgEarthNet.uav[54] utilizationCountManeuversMaintenance 89
scalar OsgEarthNet.uav[54] utilizationCountChargeState 44
scalar OsgEarthNet.uav[54] utilizationCountOverdrawnAfterMission 0
scalar OsgEarthNet.uav[54] utilizationCountIdleState 45
scalar OsgEarthNet.uav[54] utilizationFail 0
scalar OsgEarthNet.uav[54] simulationTime 259200
scalar OsgEarthNet.uav[55] utilizationSecMission 20213.384700057
scalar OsgEarthNet.uav[55] utilizationSecMaintenance 10846.777475473
scalar OsgEarthNet.uav[55] utilizationSecCharge 115290
scalar OsgEarthNet.uav[55] utilizationSecIdle 112849.83682447
scalar OsgEarthNet.uav[55] utilizationEnergyMission 94187.369552612
scalar OsgEarthNet.uav[55] utilizationEnergyMaintenance 50917.633160037
scalar OsgEarthNet.uav[55] utilizationEnergyCharge 144760.14648438
scalar OsgEarthNet.uav[55] utilizationEnergyOverdrawMission 0
scalar OsgEarthNet.uav[55] utilizationEnergyOverdrawMaintenance 0
scalar OsgEarthNet.uav[55] utilizationCountMissions 31
scalar OsgEarthNet.uav[55] utilizationCountManeuversMission 330
scalar OsgEarthNet.uav[55] utilizationCountManeuversMaintenance 63
scalar OsgEarthNet.uav[55] utilizationCountChargeState 31
scalar OsgEarthNet.uav[55] utilizationCountOverdrawnAfterMission 0
scalar OsgEarthNet.uav[55] utilizationCountIdleState 32
scalar OsgEarthNet.uav[55] utilizationFail 0
scalar OsgEarthNet.uav[55] simulationTime 259200
scalar OsgEarthNet.uav[56] utilizationSecMission 760.62515258028
scalar OsgEarthNet.uav[56] utilizationSecMaintenance 223.6438949726
scalar OsgEarthNet.uav[56] utilizationSecCharge 3730
scalar OsgEarthNet.uav[56] utilizationSecIdle 254485.72995245
scalar OsgEarthNet.uav[56] utilizationEnergyMission 3609.1402893066
scalar OsgEarthNet.uav[56] utilizationEnergyMaintenance 1055.6291923523
scalar OsgEarthNet.uav[56] utilizationEnergyCharge 4664.7729492188
scalar OsgEarthNet.uav[56] utilizationEnergyOverdrawMission 0
scalar OsgEarthNet.uav[56] utilizationEnergyOverdrawMaintenance 0
scalar OsgEarthNet.uav[56] utilizationCountMissions 1
scalar OsgEarthNet.uav[56] utilizationCountManeuversMission 12
scalar OsgEarthNet.uav[56] utilizationCountManeuversMaintenance 2
scalar OsgEarthNet.uav[56] utilizationCountChargeState 1
scalar OsgEarthNet.uav[56] utilizationCountOverdrawnAfterMission 0
scalar OsgEarthNet.uav[56] utilizationCountIdleState 2
scalar OsgEarthNet.uav[56] utilizationFail 0
scalar OsgEarthNet.uav[56] simulationTime 259200
scalar OsgEarthNet.uav[57] utilizationSecMission 32347.724763804
scalar OsgEarthNet.uav[57] utilizationSecMaintenance 12981.209839323
scalar OsgEarthNet.uav[57] utilizationSecCharge 161950
scalar OsgEarthNet.uav[57] utilizationSecIdle 51921.064396872
scalar OsgEarthNet.uav[57] utilizationEnergyMission 148863.3322806
scalar OsgEarthNet.uav[57] utilizationEnergyMaintenance 60011.452011108
scalar OsgEarthNet.uav[57] utilizationEnergyCharge 204052.37060547
scalar OsgEarthNet.uav[57] utilizationEnergyOverdrawMission 0
scalar OsgEarthNet.uav[57] utilizationEnergyOverdrawMaintenance 0
scalar OsgEarthNet.uav[57] utilizationCountMissions 43
scalar OsgEarthNet.uav[57] utilizationCountManeuversMission 520
scalar OsgEarthNet.uav[57] utilizationCountManeuversMaintenance 87
scalar OsgEarthNet.uav[57] utilizationCountChargeState 43
scalar OsgEarthNet.uav[57] utilizationCountOverdrawnAfterMission 0
scalar OsgEarthNet.uav[57] utilizationCountIdleState 44
scalar OsgEarthNet.uav[57] utilizationFail 0
scalar OsgEarthNet.uav[57] simulationTime 259200
scalar OsgEarthNet.uav[58] utilizationSecMission 30601.737631757
scalar OsgEarthNet.uav[58] utilizationSecMaintenance 14518.084985614
scalar OsgEarthNet.uav[58] utilizationSecCharge 165008.17638263
scalar OsgEarthNet.uav[58] utilizationSecIdle 49072
scalar OsgEarthNet.uav[58] utilizationEnergyMission 142777.26172995
scalar OsgEarthNet.uav[58] utilizationEnergyMaintenance 67498.947048187
scalar OsgEarthNet.uav[58] utilizationEnergyCharge 207626.08447266
scalar OsgEarthNet.uav[58] utilizationEnergyOverdrawMission 0
scalar OsgEarthNet.uav[58] utilizationEnergyOverdrawMaintenance 0
scalar OsgEarthNet.uav[58] utilizationCountMissions 45
scalar OsgEarthNet.uav[58] utilizationCountManeuversMission 521
scalar OsgEarthNet.uav[58] utilizationCountManeuversMaintenance 89
scalar OsgEarthNet.uav[58] utilizationCountChargeState 45
scalar OsgEarthNet.uav[58] utilizationCountOverdrawnAfterMission 0
scalar OsgEarthNet.uav[58] utilizationCountIdleState 45
scalar OsgEarthNet.uav[58] utilizationFail 0
scalar OsgEarthNet.uav[58] simulationTime 259200
scalar OsgEarthNet.uav[59] utilizationSecMission 623.68863475643
scalar OsgEarthNet.uav[59] utilizationSecMaintenance 394.94199877579
scalar OsgEarthNet.uav[59] utilizationSecCharge 3840
scalar OsgEarthNet.uav[59] utilizationSecIdle 254341.36836647
scalar OsgEarthNet.uav[59] utilizationEnergyMission 2927.1561279297
scalar OsgEarthNet.uav[59] utilizationEnergyMaintenance 1847.9303207397
scalar OsgEarthNet.uav[59] utilizationEnergyCharge 4882.7861328125
scalar OsgEarthNet.uav[59] utilizationEnergyOverdrawMission 0
scalar OsgEarthNet.uav[59] utilizationEnergyOverdrawMaintenance 0
scalar OsgEarthNet.uav[59] utilizationCountMissions 1
scalar OsgEarthNet.uav[59] utilizationCountManeuversMission 10
scalar OsgEarthNet.uav[59] utilizationCountManeuversMaintenance 2
scalar OsgEarthNet.uav[59] utilizationCountChargeState 1
scalar OsgEarthNet.uav[59] utilizationCountOverdrawnAfterMission 0
scalar OsgEarthNet.uav[59] utilizationCountIdleState 2
scalar OsgEarthNet.uav[59] utilizationFail 0
scalar OsgEarthNet.uav[59] simulationTime 259200
scalar OsgEarthNet.uav[60] utilizationSecMission 545.05972348896
scalar OsgEarthNet.uav[60] utilizationSecMaintenance 427.36308650536
scalar OsgEarthNet.uav[60] utilizationSecCharge 3610
scalar OsgEarthNet.uav[60] utilizationSecIdle 254617.57619001
scalar OsgEarthNet.uav[60] utilizationEnergyMission 2597.9791107178
scalar OsgEarthNet.uav[60] utilizationEnergyMaintenance 1826.4219284058
scalar OsgEarthNet.uav[60] utilizationEnergyCharge 4449.1166992188
scalar OsgEarthNet.uav[60] utilizationEnergyOverdrawMission 0
scalar OsgEarthNet.uav[60] utilizationEnergyOverdrawMaintenance 0
scalar OsgEarthNet.uav[60] utilizationCountMissions 1
scalar OsgEarthNet.uav[60] utilizationCountManeuversMission 9
scalar OsgEarthNet.uav[60] utilizationCountManeuversMaintenance 2
scalar OsgEarthNet.uav[60] utilizationCountChargeState 1
scalar OsgEarthNet.uav[60] utilizationCountOverdrawnAfterMission 0
scalar OsgEarthNet.uav[60] utilizationCountIdleState 2
scalar OsgEarthNet.uav[60] utilizationFail 0
scalar OsgEarthNet.uav[60] simulationTime 259200
scalar OsgEarthNet.uav[61] utilizationSecMission 23525.682410201
scalar OsgEarthNet.uav[61] utilizationSecMaintenance 12811.946056287
scalar OsgEarthNet.uav[61] utilizationSecCharge 133830
scalar OsgEarthNet.uav[61] utilizationSecIdle 89032.370533512
scalar OsgEarthNet.uav[61] utilizationEnergyMission 108871.64343777
scalar OsgEarthNet.uav[61] utilizationEnergyMaintenance 60093.056625366
scalar OsgEarthNet.uav[61] utilizationEnergyCharge 167573.97558594
scalar OsgEarthNet.uav[61] utilizationEnergyOverdrawMission 0
scalar OsgEarthNet.uav[61] utilizationEnergyOverdrawMaintenance 0
scalar OsgEarthNet.uav[61] utilizationCountMissions 36
scalar OsgEarthNet.uav[61] utilizationCountManeuversMission 399
scalar OsgEarthNet.uav[61] utilizationCountManeuversMaintenance 73
scalar OsgEarthNet.uav[61] utilizationCountChargeState 36
scalar OsgEarthNet.uav[61] utilizationCountOverdrawnAfterMission 0
scalar OsgEarthNet.uav[61] utilizationCountIdleState 37
scalar OsgEarthNet.uav[61] utilizationFail 0
scalar OsgEarthNet.uav[61] simulationTime 259200
scalar OsgEarthNet.uav[62] utilizationSecMission 801.56413302216
scalar OsgEarthNet.uav[62] utilizationSecMaintenance 267.91392259192
scalar OsgEarthNet.uav[62] utilizationSecCharge 3850
scalar OsgEarthNet.uav[62] utilizationSecIdle 254280.52094439
scalar OsgEarthNet.uav[62] utilizationEnergyMission 3679.9209899902
scalar OsgEarthNet.uav[62] utilizationEnergyMaintenance 1152.6856918335
scalar OsgEarthNet.uav[62] utilizationEnergyCharge 4832.6049804688
scalar OsgEarthNet.uav[62] utilizationEnergyOverdrawMission 0
scalar OsgEarthNet.uav[62] utilizationEnergyOverdrawMaintenance 0
scalar OsgEarthNet.uav[62] utilizationCountMissions 1
scalar OsgEarthNet.uav[62] utilizationCountManeuversMission 12
scalar OsgEarthNet.uav[62] utilizationCountManeuversMaintenance 2
scalar OsgEarthNet.uav[62] utilizationCountChargeState 1
scalar OsgEarthNet.uav[62] utilizationCountOverdrawnAfterMission 0
scalar OsgEarthNet.uav[62] utilizationCountIdleState 2
scalar OsgEarthNet.uav[62] utilizationFail 0
scalar OsgEarthNet.uav[62] simulationTime 259200
scalar OsgEarthNet.uav[63] utilizationSecMission 684.4732299383
scalar OsgEarthNet.uav[63] utilizationSecMaintenance 298.56834692969
scalar OsgEarthNet.uav[63] utilizationSecCharge 3700
scalar OsgEarthNet.uav[63] utilizationSecIdle 254516.95742313
scalar OsgEarthNet.uav[63] utilizationEnergyMission 3214.8879852295
scalar OsgEarthNet.uav[63] utilizationEnergyMaintenance 1383.5331954956
scalar OsgEarthNet.uav[63] utilizationEnergyCharge 4598.4169921875
scalar OsgEarthNet.uav[63] utilizationEnergyOverdrawMission 0
scalar OsgEarthNet.uav[63] utilizationEnergyOverdrawMaintenance 0
scalar OsgEarthNet.uav[63] utilizationCountMissions 1
scalar OsgEarthNet.uav[63] utilizationCountManeuversMission 11
scalar OsgEarthNet.uav[63] utilizationCountManeuversMaintenance 2
scalar OsgEarthNet.uav[63] utilizationCountChargeState 1
scalar OsgEarthNet.uav[63] utilizationCountOverdrawnAfterMission 0
scalar OsgEarthNet.uav[63] utilizationCountIdleState 2
scalar OsgEarthNet.uav[63] utilizationFail 0
scalar OsgEarthNet.uav[63] simulationTime 259200
scalar OsgEarthNet.uav[64] utilizationSecMission 494.14522745751
scalar OsgEarthNet.uav[64] utilizationSecMaintenance 475.67121193677
scalar OsgEarthNet.uav[64] utilizationSecCharge 3520
scalar OsgEarthNet.uav[64] utilizationSecIdle 254710.18256061
scalar OsgEarthNet.uav[64] utilizationEnergyMission 2131.6386871338
scalar OsgEarthNet.uav[64] utilizationEnergyMaintenance 2114.0544242859
scalar OsgEarthNet.uav[64] utilizationEnergyCharge 4323.2670898438
scalar OsgEarthNet.uav[64] utilizationEnergyOverdrawMission 0
scalar OsgEarthNet.uav[64] utilizationEnergyOverdrawMaintenance 0
scalar OsgEarthNet.uav[64] utilizationCountMissions 1
scalar OsgEarthNet.uav[64] utilizationCountManeuversMission 8
scalar OsgEarthNet.uav[64] utilizationCountManeuversMaintenance 2
scalar OsgEarthNet.uav[64] utilizationCountChargeState 1
scalar OsgEarthNet.uav[64] utilizationCountOverdrawnAfterMission 0
scalar OsgEarthNet.uav[64] utilizationCountIdleState 2
scalar OsgEarthNet.uav[64] utilizationFail 0
scalar OsgEarthNet.uav[64] simulationTime 259200
scalar OsgEarthNet.uav[65] utilizationSecMission 24767.862530153
scalar OsgEarthNet.uav[65] utilizationSecMaintenance 10685.839436763
scalar OsgEarthNet.uav[65] utilizationSecCharge 129970
scalar OsgEarthNet.uav[65] utilizationSecIdle 93776.297033084
scalar OsgEarthNet.uav[65] utilizationEnergyMission 113325.73531342
[...]
scalar OsgEarthNet.uav[82] utilizationSecIdle 53706.036098769
scalar OsgEarthNet.uav[82] utilizationEnergyMission 138411.54644775
scalar OsgEarthNet.uav[82] utilizationEnergyMaintenance 69001.941741943
scalar OsgEarthNet.uav[82] utilizationEnergyCharge 202728.22528076
scalar OsgEarthNet.uav[82] utilizationEnergyOverdrawMission 0
scalar OsgEarthNet.uav[82] utilizationEnergyOverdrawMaintenance 406.40072631836
scalar OsgEarthNet.uav[82] utilizationCountMissions 44
scalar OsgEarthNet.uav[82] utilizationCountManeuversMission 490
scalar OsgEarthNet.uav[82] utilizationCountManeuversMaintenance 88
scalar OsgEarthNet.uav[82] utilizationCountChargeState 44
scalar OsgEarthNet.uav[82] utilizationCountOverdrawnAfterMission 1
scalar OsgEarthNet.uav[82] utilizationCountIdleState 44
scalar OsgEarthNet.uav[82] utilizationFail 0
scalar OsgEarthNet.uav[82] simulationTime 259200
scalar OsgEarthNet.uav[83] utilizationSecMission 760.62515258028
scalar OsgEarthNet.uav[83] utilizationSecMaintenance 223.6438949726
scalar OsgEarthNet.uav[83] utilizationSecCharge 3710
scalar OsgEarthNet.uav[83] utilizationSecIdle 254505.72995245
scalar OsgEarthNet.uav[83] utilizationEnergyMission 3596.1991577148
scalar OsgEarthNet.uav[83] utilizationEnergyMaintenance 1021.5029716492
scalar OsgEarthNet.uav[83] utilizationEnergyCharge 4617.7021484375
scalar OsgEarthNet.uav[83] utilizationEnergyOverdrawMission 0
scalar OsgEarthNet.uav[83] utilizationEnergyOverdrawMaintenance 0
scalar OsgEarthNet.uav[83] utilizationCountMissions 1
scalar OsgEarthNet.uav[83] utilizationCountManeuversMission 12
scalar OsgEarthNet.uav[83] utilizationCountManeuversMaintenance 2
scalar OsgEarthNet.uav[83] utilizationCountChargeState 1
scalar OsgEarthNet.uav[83] utilizationCountOverdrawnAfterMission 0
scalar OsgEarthNet.uav[83] utilizationCountIdleState 2
scalar OsgEarthNet.uav[83] utilizationFail 0
scalar OsgEarthNet.uav[83] simulationTime 259200
scalar OsgEarthNet.uav[84] utilizationSecMission 28656.801775449
scalar OsgEarthNet.uav[84] utilizationSecMaintenance 14205.072346891
scalar OsgEarthNet.uav[84] utilizationSecCharge 159320
scalar OsgEarthNet.uav[84] utilizationSecIdle 57018.12487766
scalar OsgEarthNet.uav[84] utilizationEnergyMission 131518.92198181
scalar OsgEarthNet.uav[84] utilizationEnergyMaintenance 68006.825958252
scalar OsgEarthNet.uav[84] utilizationEnergyCharge 199451.46630859
scalar OsgEarthNet.uav[84] utilizationEnergyOverdrawMission 0
scalar OsgEarthNet.uav[84] utilizationEnergyOverdrawMaintenance 0
scalar OsgEarthNet.uav[84] utilizationCountMissions 43
scalar OsgEarthNet.uav[84] utilizationCountManeuversMission 466
scalar OsgEarthNet.uav[84] utilizationCountManeuversMaintenance 86
scalar OsgEarthNet.uav[84] utilizationCountChargeState 43
scalar OsgEarthNet.uav[84] utilizationCountOverdrawnAfterMission 0
scalar OsgEarthNet.uav[84] utilizationCountIdleState 44
scalar OsgEarthNet.uav[84] utilizationFail 0
scalar OsgEarthNet.uav[84] simulationTime 259200
scalar OsgEarthNet.uav[85] utilizationSecMission 13301.769492984
scalar OsgEarthNet.uav[85] utilizationSecMaintenance 5074.2504455343
scalar OsgEarthNet.uav[85] utilizationSecCharge 67210
scalar OsgEarthNet.uav[85] utilizationSecIdle 173613.97906148
scalar OsgEarthNet.uav[85] utilizationEnergyMission 60979.339515686
scalar OsgEarthNet.uav[85] utilizationEnergyMaintenance 23809.533496857
scalar OsgEarthNet.uav[85] utilizationEnergyCharge 84363.370605469
scalar OsgEarthNet.uav[85] utilizationEnergyOverdrawMission 0
scalar OsgEarthNet.uav[85] utilizationEnergyOverdrawMaintenance 0
scalar OsgEarthNet.uav[85] utilizationCountMissions 18
scalar OsgEarthNet.uav[85] utilizationCountManeuversMission 216
scalar OsgEarthNet.uav[85] utilizationCountManeuversMaintenance 36
scalar OsgEarthNet.uav[85] utilizationCountChargeState 18
scalar OsgEarthNet.uav[85] utilizationCountOverdrawnAfterMission 0
scalar OsgEarthNet.uav[85] utilizationCountIdleState 19
scalar OsgEarthNet.uav[85] utilizationFail 0
scalar OsgEarthNet.uav[85] simulationTime 259200
scalar OsgEarthNet.uav[86] utilizationSecMission 684.4732299383
scalar OsgEarthNet.uav[86] utilizationSecMaintenance 298.56834692969
scalar OsgEarthNet.uav[86] utilizationSecCharge 3810
scalar OsgEarthNet.uav[86] utilizationSecIdle 254406.95742313
scalar OsgEarthNet.uav[86] utilizationEnergyMission 3327.7041854858
scalar OsgEarthNet.uav[86] utilizationEnergyMaintenance 1534.9352645874
scalar OsgEarthNet.uav[86] utilizationEnergyCharge 4862.6416015625
scalar OsgEarthNet.uav[86] utilizationEnergyOverdrawMission 0
scalar OsgEarthNet.uav[86] utilizationEnergyOverdrawMaintenance 0
scalar OsgEarthNet.uav[86] utilizationCountMissions 1
scalar OsgEarthNet.uav[86] utilizationCountManeuversMission 11
scalar OsgEarthNet.uav[86] utilizationCountManeuversMaintenance 2
scalar OsgEarthNet.uav[86] utilizationCountChargeState 1
scalar OsgEarthNet.uav[86] utilizationCountOverdrawnAfterMission 0
scalar OsgEarthNet.uav[86] utilizationCountIdleState 2
scalar OsgEarthNet.uav[86] utilizationFail 0
scalar OsgEarthNet.uav[86] simulationTime 259200
scalar OsgEarthNet.uav[87] utilizationSecMission 28678.62280468
scalar OsgEarthNet.uav[87] utilizationSecMaintenance 15618.768341371
scalar OsgEarthNet.uav[87] utilizationSecCharge 160501.44839425
scalar OsgEarthNet.uav[87] utilizationSecIdle 54401.159459696
scalar OsgEarthNet.uav[87] utilizationEnergyMission 133117.45895386
scalar OsgEarthNet.uav[87] utilizationEnergyMaintenance 71957.593856811
scalar OsgEarthNet.uav[87] utilizationEnergyCharge 201554.93817139
scalar OsgEarthNet.uav[87] utilizationEnergyOverdrawMission 0
scalar OsgEarthNet.uav[87] utilizationEnergyOverdrawMaintenance 0
scalar OsgEarthNet.uav[87] utilizationCountMissions 44
scalar OsgEarthNet.uav[87] utilizationCountManeuversMission 464
scalar OsgEarthNet.uav[87] utilizationCountManeuversMaintenance 88
scalar OsgEarthNet.uav[87] utilizationCountChargeState 44
scalar OsgEarthNet.uav[87] utilizationCountOverdrawnAfterMission 0
scalar OsgEarthNet.uav[87] utilizationCountIdleState 44
scalar OsgEarthNet.uav[87] utilizationFail 0
scalar OsgEarthNet.uav[87] simulationTime 259200
scalar OsgEarthNet.uav[88] utilizationSecMission 887.1741082606
scalar OsgEarthNet.uav[88] utilizationSecMaintenance 181.20511066264
scalar OsgEarthNet.uav[88] utilizationSecCharge 3860
scalar OsgEarthNet.uav[88] utilizationSecIdle 254271.61978108
scalar OsgEarthNet.uav[88] utilizationEnergyMission 4101.5258026123
scalar OsgEarthNet.uav[88] utilizationEnergyMaintenance 992.42939376831
scalar OsgEarthNet.uav[88] utilizationEnergyCharge 4935.177734375
scalar OsgEarthNet.uav[88] utilizationEnergyOverdrawMission 0
scalar OsgEarthNet.uav[88] utilizationEnergyOverdrawMaintenance 0
scalar OsgEarthNet.uav[88] utilizationCountMissions 1
scalar OsgEarthNet.uav[88] utilizationCountManeuversMission 14
scalar OsgEarthNet.uav[88] utilizationCountManeuversMaintenance 2
scalar OsgEarthNet.uav[88] utilizationCountChargeState 1
scalar OsgEarthNet.uav[88] utilizationCountOverdrawnAfterMission 0
scalar OsgEarthNet.uav[88] utilizationCountIdleState 2
scalar OsgEarthNet.uav[88] utilizationFail 0
scalar OsgEarthNet.uav[88] simulationTime 259200
scalar OsgEarthNet.uav[89] utilizationSecMission 760.62515258028
scalar OsgEarthNet.uav[89] utilizationSecMaintenance 223.6438949726
scalar OsgEarthNet.uav[89] utilizationSecCharge 3790
scalar OsgEarthNet.uav[89] utilizationSecIdle 254425.72995245
scalar OsgEarthNet.uav[89] utilizationEnergyMission 3657.5544204712
scalar OsgEarthNet.uav[89] utilizationEnergyMaintenance 1121.4269523621
scalar OsgEarthNet.uav[89] utilizationEnergyCharge 4778.98046875
scalar OsgEarthNet.uav[89] utilizationEnergyOverdrawMission 0
scalar OsgEarthNet.uav[89] utilizationEnergyOverdrawMaintenance 0
scalar OsgEarthNet.uav[89] utilizationCountMissions 1
scalar OsgEarthNet.uav[89] utilizationCountManeuversMission 12
scalar OsgEarthNet.uav[89] utilizationCountManeuversMaintenance 2
scalar OsgEarthNet.uav[89] utilizationCountChargeState 1
scalar OsgEarthNet.uav[89] utilizationCountOverdrawnAfterMission 0
scalar OsgEarthNet.uav[89] utilizationCountIdleState 2
scalar OsgEarthNet.uav[89] utilizationFail 0
scalar OsgEarthNet.uav[89] simulationTime 259200
scalar OsgEarthNet.uav[90] utilizationSecMission 836.77707522227
scalar OsgEarthNet.uav[90] utilizationSecMaintenance 217.0347828456
scalar OsgEarthNet.uav[90] utilizationSecCharge 3890
scalar OsgEarthNet.uav[90] utilizationSecIdle 254256.18714193
scalar OsgEarthNet.uav[90] utilizationEnergyMission 3960.847732544
scalar OsgEarthNet.uav[90] utilizationEnergyMaintenance 974.99277877808
scalar OsgEarthNet.uav[90] utilizationEnergyCharge 4935.8364257812
scalar OsgEarthNet.uav[90] utilizationEnergyOverdrawMission 0
scalar OsgEarthNet.uav[90] utilizationEnergyOverdrawMaintenance 0
scalar OsgEarthNet.uav[90] utilizationCountMissions 1
scalar OsgEarthNet.uav[90] utilizationCountManeuversMission 13
scalar OsgEarthNet.uav[90] utilizationCountManeuversMaintenance 2
scalar OsgEarthNet.uav[90] utilizationCountChargeState 1
scalar OsgEarthNet.uav[90] utilizationCountOverdrawnAfterMission 0
scalar OsgEarthNet.uav[90] utilizationCountIdleState 2
scalar OsgEarthNet.uav[90] utilizationFail 0
scalar OsgEarthNet.uav[90] simulationTime 259200
scalar OsgEarthNet.uav[91] utilizationSecMission 27658.427993678
scalar OsgEarthNet.uav[91] utilizationSecMaintenance 13633.21700727
scalar OsgEarthNet.uav[91] utilizationSecCharge 151034.37571927
scalar OsgEarthNet.uav[91] utilizationSecIdle 66873.978279785
scalar OsgEarthNet.uav[91] utilizationEnergyMission 128794.85571671
scalar OsgEarthNet.uav[91] utilizationEnergyMaintenance 64531.286586761
scalar OsgEarthNet.uav[91] utilizationEnergyCharge 190037.69238281
scalar OsgEarthNet.uav[91] utilizationEnergyOverdrawMission 0
scalar OsgEarthNet.uav[91] utilizationEnergyOverdrawMaintenance 0
scalar OsgEarthNet.uav[91] utilizationCountMissions 41
scalar OsgEarthNet.uav[91] utilizationCountManeuversMission 454
scalar OsgEarthNet.uav[91] utilizationCountManeuversMaintenance 82
scalar OsgEarthNet.uav[91] utilizationCountChargeState 41
scalar OsgEarthNet.uav[91] utilizationCountOverdrawnAfterMission 0
scalar OsgEarthNet.uav[91] utilizationCountIdleState 41
scalar OsgEarthNet.uav[91] utilizationFail 0
scalar OsgEarthNet.uav[91] simulationTime 259200
scalar OsgEarthNet.uav[92] utilizationSecMission 750.20472747826
scalar OsgEarthNet.uav[92] utilizationSecMaintenance 300.8347882699
scalar OsgEarthNet.uav[92] utilizationSecCharge 3900
scalar OsgEarthNet.uav[92] utilizationSecIdle 254248.95948425
scalar OsgEarthNet.uav[92] utilizationEnergyMission 3614.8950805664
scalar OsgEarthNet.uav[92] utilizationEnergyMaintenance 1354.008556366
scalar OsgEarthNet.uav[92] utilizationEnergyCharge 4968.9067382812
scalar OsgEarthNet.uav[92] utilizationEnergyOverdrawMission 0
scalar OsgEarthNet.uav[92] utilizationEnergyOverdrawMaintenance 0
scalar OsgEarthNet.uav[92] utilizationCountMissions 1
scalar OsgEarthNet.uav[92] utilizationCountManeuversMission 11
scalar OsgEarthNet.uav[92] utilizationCountManeuversMaintenance 2
scalar OsgEarthNet.uav[92] utilizationCountChargeState 1
scalar OsgEarthNet.uav[92] utilizationCountOverdrawnAfterMission 0
scalar OsgEarthNet.uav[92] utilizationCountIdleState 2
scalar OsgEarthNet.uav[92] utilizationFail 0
scalar OsgEarthNet.uav[92] simulationTime 259200
scalar OsgEarthNet.uav[93] utilizationSecMission 670.50650402609
scalar OsgEarthNet.uav[93] utilizationSecMaintenance 362.30145289341
scalar OsgEarthNet.uav[93] utilizationSecCharge 3820
scalar OsgEarthNet.uav[93] utilizationSecIdle 254347.19104308
scalar OsgEarthNet.uav[93] utilizationEnergyMission 3058.9362945557
scalar OsgEarthNet.uav[93] utilizationEnergyMaintenance 1807.1581535339
scalar OsgEarthNet.uav[93] utilizationEnergyCharge 4866.09375
scalar OsgEarthNet.uav[93] utilizationEnergyOverdrawMission 0
scalar OsgEarthNet.uav[93] utilizationEnergyOverdrawMaintenance 0
scalar OsgEarthNet.uav[93] utilizationCountMissions 1
scalar OsgEarthNet.uav[93] utilizationCountManeuversMission 10
scalar OsgEarthNet.uav[93] utilizationCountManeuversMaintenance 2
scalar OsgEarthNet.uav[93] utilizationCountChargeState 1
scalar OsgEarthNet.uav[93] utilizationCountOverdrawnAfterMission 0
scalar OsgEarthNet.uav[93] utilizationCountIdleState 2
scalar OsgEarthNet.uav[93] utilizationFail 0
scalar OsgEarthNet.uav[93] simulationTime 259200
scalar OsgEarthNet.uav[94] utilizationSecMission 28058.888953364
scalar OsgEarthNet.uav[94] utilizationSecMaintenance 16325.214612154
scalar OsgEarthNet.uav[94] utilizationSecCharge 162815.40445039
scalar OsgEarthNet.uav[94] utilizationSecIdle 52000.490984093
scalar OsgEarthNet.uav[94] utilizationEnergyMission 129197.64318085
scalar OsgEarthNet.uav[94] utilizationEnergyMaintenance 76642.144805908
scalar OsgEarthNet.uav[94] utilizationEnergyCharge 205371.09179688
scalar OsgEarthNet.uav[94] utilizationEnergyOverdrawMission 0
scalar OsgEarthNet.uav[94] utilizationEnergyOverdrawMaintenance 0
scalar OsgEarthNet.uav[94] utilizationCountMissions 44
scalar OsgEarthNet.uav[94] utilizationCountManeuversMission 467
scalar OsgEarthNet.uav[94] utilizationCountManeuversMaintenance 88
scalar OsgEarthNet.uav[94] utilizationCountChargeState 44
scalar OsgEarthNet.uav[94] utilizationCountOverdrawnAfterMission 0
scalar OsgEarthNet.uav[94] utilizationCountIdleState 44
scalar OsgEarthNet.uav[94] utilizationFail 0
scalar OsgEarthNet.uav[94] simulationTime 259200
scalar OsgEarthNet.uav[95] utilizationSecMission 2158.6247510998
scalar OsgEarthNet.uav[95] utilizationSecMaintenance 2018.9157189484
scalar OsgEarthNet.uav[95] utilizationSecCharge 15360
scalar OsgEarthNet.uav[95] utilizationSecIdle 239662.45852995
scalar OsgEarthNet.uav[95] utilizationEnergyMission 10046.225791931
scalar OsgEarthNet.uav[95] utilizationEnergyMaintenance 9333.7513389587
scalar OsgEarthNet.uav[95] utilizationEnergyCharge 19375.609863281
scalar OsgEarthNet.uav[95] utilizationEnergyOverdrawMission 0
scalar OsgEarthNet.uav[95] utilizationEnergyOverdrawMaintenance 0
scalar OsgEarthNet.uav[95] utilizationCountMissions 4
scalar OsgEarthNet.uav[95] utilizationCountManeuversMission 35
scalar OsgEarthNet.uav[95] utilizationCountManeuversMaintenance 8
scalar OsgEarthNet.uav[95] utilizationCountChargeState 4
scalar OsgEarthNet.uav[95] utilizationCountOverdrawnAfterMission 0
scalar OsgEarthNet.uav[95] utilizationCountIdleState 5
scalar OsgEarthNet.uav[95] utilizationFail 0
scalar OsgEarthNet.uav[95] simulationTime 259200
scalar OsgEarthNet.uav[96] utilizationSecMission 5969.1964502639
scalar OsgEarthNet.uav[96] utilizationSecMaintenance 3217.2025769986
scalar OsgEarthNet.uav[96] utilizationSecCharge 34050
scalar OsgEarthNet.uav[96] utilizationSecIdle 215963.59997274
scalar OsgEarthNet.uav[96] utilizationEnergyMission 27247.671180725
scalar OsgEarthNet.uav[96] utilizationEnergyMaintenance 15475.97467804
scalar OsgEarthNet.uav[96] utilizationEnergyCharge 42996.188476562
scalar OsgEarthNet.uav[96] utilizationEnergyOverdrawMission 0
scalar OsgEarthNet.uav[96] utilizationEnergyOverdrawMaintenance 0
scalar OsgEarthNet.uav[96] utilizationCountMissions 9
scalar OsgEarthNet.uav[96] utilizationCountManeuversMission 93
scalar OsgEarthNet.uav[96] utilizationCountManeuversMaintenance 18
scalar OsgEarthNet.uav[96] utilizationCountChargeState 9
scalar OsgEarthNet.uav[96] utilizationCountOverdrawnAfterMission 0
scalar OsgEarthNet.uav[96] utilizationCountIdleState 10
scalar OsgEarthNet.uav[96] utilizationFail 0
scalar OsgEarthNet.uav[96] simulationTime 259200
scalar OsgEarthNet.uav[97] utilizationSecMission 22908.026771308
scalar OsgEarthNet.uav[97] utilizationSecMaintenance 13196.038547713
scalar OsgEarthNet.uav[97] utilizationSecCharge 131071.42648186
scalar OsgEarthNet.uav[97] utilizationSecIdle 92024.507199115
scalar OsgEarthNet.uav[97] utilizationEnergyMission 106368.17911148
scalar OsgEarthNet.uav[97] utilizationEnergyMaintenance 62003.643600464
scalar OsgEarthNet.uav[97] utilizationEnergyCharge 164600.36230469
scalar OsgEarthNet.uav[97] utilizationEnergyOverdrawMission 0
scalar OsgEarthNet.uav[97] utilizationEnergyOverdrawMaintenance 0
scalar OsgEarthNet.uav[97] utilizationCountMissions 36
scalar OsgEarthNet.uav[97] utilizationCountManeuversMission 393
scalar OsgEarthNet.uav[97] utilizationCountManeuversMaintenance 72
scalar OsgEarthNet.uav[97] utilizationCountChargeState 36
scalar OsgEarthNet.uav[97] utilizationCountOverdrawnAfterMission 0
scalar OsgEarthNet.uav[97] utilizationCountIdleState 36
scalar OsgEarthNet.uav[97] utilizationFail 0
scalar OsgEarthNet.uav[97] simulationTime 259200
scalar OsgEarthNet.uav[98] utilizationSecMission 11804.020883172
scalar OsgEarthNet.uav[98] utilizationSecMaintenance 8049.8867207213
scalar OsgEarthNet.uav[98] utilizationSecCharge 74380
scalar OsgEarthNet.uav[98] utilizationSecIdle 164966.09139611
scalar OsgEarthNet.uav[98] utilizationEnergyMission 55684.47366333
scalar OsgEarthNet.uav[98] utilizationEnergyMaintenance 37567.638320923
scalar OsgEarthNet.uav[98] utilizationEnergyCharge 93355.525390625
scalar OsgEarthNet.uav[98] utilizationEnergyOverdrawMission 0
scalar OsgEarthNet.uav[98] utilizationEnergyOverdrawMaintenance 0
scalar OsgEarthNet.uav[98] utilizationCountMissions 20
scalar OsgEarthNet.uav[98] utilizationCountManeuversMission 191
scalar OsgEarthNet.uav[98] utilizationCountManeuversMaintenance 40
scalar OsgEarthNet.uav[98] utilizationCountChargeState 20
scalar OsgEarthNet.uav[98] utilizationCountOverdrawnAfterMission 0
scalar OsgEarthNet.uav[98] utilizationCountIdleState 20
scalar OsgEarthNet.uav[98] utilizationFail 0
scalar OsgEarthNet.uav[98] simulationTime 259200
scalar OsgEarthNet.uav[99] utilizationSecMission 18457.904833982
scalar OsgEarthNet.uav[99] utilizationSecMaintenance 12261.506292428
scalar OsgEarthNet.uav[99] utilizationSecCharge 111570
scalar OsgEarthNet.uav[99] utilizationSecIdle 116910.58787359
scalar OsgEarthNet.uav[99] utilizationEnergyMission 84406.336791992
scalar OsgEarthNet.uav[99] utilizationEnergyMaintenance 56784.966803821
scalar OsgEarthNet.uav[99] utilizationEnergyCharge 139773.46289062
scalar OsgEarthNet.uav[99] utilizationEnergyOverdrawMission 0
scalar OsgEarthNet.uav[99] utilizationEnergyOverdrawMaintenance 0
scalar OsgEarthNet.uav[99] utilizationCountMissions 30
scalar OsgEarthNet.uav[99] utilizationCountManeuversMission 306
scalar OsgEarthNet.uav[99] utilizationCountManeuversMaintenance 61
scalar OsgEarthNet.uav[99] utilizationCountChargeState 30
scalar OsgEarthNet.uav[99] utilizationCountOverdrawnAfterMission 0
scalar OsgEarthNet.uav[99] utilizationCountIdleState 31
scalar OsgEarthNet.uav[99] utilizationFail 0
scalar OsgEarthNet.uav[99] simulationTime 259200
scalar OsgEarthNet.cs[0] usedPower 514223.15448034
scalar OsgEarthNet.cs[0] chargedPower 514223.15448034
scalar OsgEarthNet.cs[0] chargedMobileNodes 108
scalar OsgEarthNet.cs[0] reservations 111
scalar OsgEarthNet.cs[1] usedPower 1038639.2183768
scalar OsgEarthNet.cs[1] chargedPower 1038639.2183768
scalar OsgEarthNet.cs[1] chargedMobileNodes 220
scalar OsgEarthNet.cs[1] reservations 225
scalar OsgEarthNet.cs[2] usedPower 2732158.346529
scalar OsgEarthNet.cs[2] chargedPower 2732158.346529
scalar OsgEarthNet.cs[2] chargedMobileNodes 579
scalar OsgEarthNet.cs[2] reservations 584
scalar OsgEarthNet.cs[3] usedPower 770144.8222579
scalar OsgEarthNet.cs[3] chargedPower 770144.8222579
scalar OsgEarthNet.cs[3] chargedMobileNodes 163
scalar OsgEarthNet.cs[3] reservations 168
scalar OsgEarthNet.cs[4] usedPower 754245.45042287
scalar OsgEarthNet.cs[4] chargedPower 754245.45042287
scalar OsgEarthNet.cs[4] chargedMobileNodes 161
scalar OsgEarthNet.cs[4] reservations 163
scalar OsgEarthNet.cs[5] usedPower 557860.18473692
scalar OsgEarthNet.cs[5] chargedPower 557860.18473692
scalar OsgEarthNet.cs[5] chargedMobileNodes 116
scalar OsgEarthNet.cs[5] reservations 117
scalar OsgEarthNet.cs[6] usedPower 2486324.6903761
scalar OsgEarthNet.cs[6] chargedPower 2486324.6903761
scalar OsgEarthNet.cs[6] chargedMobileNodes 529
scalar OsgEarthNet.cs[6] reservations 537

