version 2
run Szenario_Hotel_Gabelbach-38-20180709-00:53:02-39956
attr configname Szenario_Hotel_Gabelbach
attr datetime 20180709-00:53:02
attr experiment Szenario_Hotel_Gabelbach
attr inifile omnetpp.ini
attr iterationvars $replM=1
attr iterationvarsf replM=1-
attr measurement $replM=1
attr network OsgEarthNet
attr processid 39956
attr repetition 14
attr replication #14
attr resultdir results
attr runnumber 38
attr seedset 38
itervar replM 1
param *.osgEarthScene.scene "\"Szenario_Hotel_Gabelbach.earth\""
param *.playgroundLatitude 50.6830269
param *.playgroundLongitude 10.8538055
param *.playgroundWidth 3500m
param *.playgroundHeight 3500m
param *.numUAVs 100
param *.cs[0].posX 3537m
param *.cs[0].posY 965m
param *.cs[0].posZ 538m
param *.cs[1].posX 312m
param *.cs[1].posY 1262m
param *.cs[1].posZ 539m
param *.cs[2].posX 2185m
param *.cs[2].posY 3026m
param *.cs[2].posZ 777m
param *.cs[3].posX 10m
param *.cs[3].posY 2200m
param *.cs[3].posZ 560m
param *.cs[4].posX 750m
param *.cs[4].posY 200m
param *.cs[4].posZ 540m
param *.cs[5].posX 2450m
param *.cs[5].posY 180m
param *.cs[5].posZ 524m
param *.cs[6].posX 3140m
param *.cs[6].posY 1790m
param *.cs[6].posZ 606m
param *.numCSs 7
param *.uav[*].replacementMethod 1
param *.*.timeStep 10s
param *.uav[*].commandPreviewCommandCount 20
param *.missionControl.missionFiles "\"missions\\\\Szenario_WB_Hotel_Gabelbach_Mission_Hotel.waypoints,missions\\\\Szenario_WB_Hotel_Gabelbach_Mission_Kickelhahn.waypoints,missions\\\\Szenario_WB_Hotel_Gabelbach_Mission_Ilmenau_Sportplatz.waypoints,missions\\\\Szenario_WB_Hotel_Gabelbach_Mission_Manebach_Mitte.waypoints,missions\\\\Szenario_WB_Hotel_Gabelbach_Mission_Manebach_Sued.waypoints\""
param *.missionControl.missionFiles "\"missions\\\\Szenario_WB_Hotel_Gabelbach_Mission_Hotel.waypoints,missions\\\\Szenario_WB_Hotel_Gabelbach_Mission_Kickelhahn.waypoints,missions\\\\Szenario_WB_Hotel_Gabelbach_Mission_Ilmenau_Sportplatz.waypoints,missions\\\\Szenario_WB_Hotel_Gabelbach_Mission_Manebach_Mitte.waypoints,missions\\\\Szenario_WB_Hotel_Gabelbach_Mission_Manebach_Sued.waypoints,missions\\\\Szenario_WB_Hotel_Gabelbach_Hover_HoheSchlaufe.waypoints,missions\\\\Szenario_WB_Hotel_Gabelbach_Hover_Kickelhahn.waypoints,missions\\\\Szenario_WB_Hotel_Gabelbach_Hover_Gabelbachskopf.waypoints,missions\\\\Szenario_WB_Hotel_Gabelbach_Hover_Dachskopf.waypoints\""
param *.uav[0].startX 3537m
param *.uav[0].startY 965m
param *.uav[0].startZ 539m
param *.uav[1].startX 312m
param *.uav[1].startY 1262m
param *.uav[1].startZ 540m
param *.uav[2].startX 2185m
param *.uav[2].startY 3026m
param *.uav[2].startZ 778m
param *.uav[3].startX 3537m
param *.uav[3].startY 965m
param *.uav[3].startZ 539m
param *.uav[4].startX 312m
param *.uav[4].startY 1262m
param *.uav[4].startZ 540m
param *.uav[5].startX 2185m
param *.uav[5].startY 3026m
param *.uav[5].startZ 778m
param *.uav[6].startX 3537m
param *.uav[6].startY 965m
param *.uav[6].startZ 539m
param *.uav[7].startX 312m
param *.uav[7].startY 1262m
param *.uav[7].startZ 540m
param *.uav[8].startX 2185m
param *.uav[8].startY 3026m
param *.uav[8].startZ 778m
param *.uav[9].startX 3537m
param *.uav[9].startY 965m
param *.uav[9].startZ 539m
param *.uav[10].startX 3537m
param *.uav[10].startY 965m
param *.uav[10].startZ 539m
param *.uav[11].startX 312m
param *.uav[11].startY 1262m
param *.uav[11].startZ 540m
param *.uav[12].startX 2185m
param *.uav[12].startY 3026m
param *.uav[12].startZ 778m
param *.uav[13].startX 3537m
param *.uav[13].startY 965m
param *.uav[13].startZ 539m
param *.uav[14].startX 312m
param *.uav[14].startY 1262m
param *.uav[14].startZ 540m
param *.uav[15].startX 2185m
param *.uav[15].startY 3026m
param *.uav[15].startZ 778m
param *.uav[16].startX 3537m
param *.uav[16].startY 965m
param *.uav[16].startZ 539m
param *.uav[17].startX 312m
param *.uav[17].startY 1262m
param *.uav[17].startZ 540m
param *.uav[18].startX 2185m
param *.uav[18].startY 3026m
param *.uav[18].startZ 778m
param *.uav[19].startX 3537m
param *.uav[19].startY 965m
param *.uav[19].startZ 539m
param *.uav[20].startX 3537m
param *.uav[20].startY 965m
param *.uav[20].startZ 539m
param *.uav[21].startX 312m
param *.uav[21].startY 1262m
param *.uav[21].startZ 540m
param *.uav[22].startX 2185m
param *.uav[22].startY 3026m
param *.uav[22].startZ 778m
param *.uav[23].startX 3537m
param *.uav[23].startY 965m
param *.uav[23].startZ 539m
param *.uav[24].startX 312m
param *.uav[24].startY 1262m
param *.uav[24].startZ 540m
param *.uav[25].startX 2185m
param *.uav[25].startY 3026m
param *.uav[25].startZ 778m
param *.uav[26].startX 3537m
param *.uav[26].startY 965m
param *.uav[26].startZ 539m
param *.uav[27].startX 312m
param *.uav[27].startY 1262m
param *.uav[27].startZ 540m
param *.uav[28].startX 2185m
param *.uav[28].startY 3026m
param *.uav[28].startZ 778m
param *.uav[29].startX 3537m
param *.uav[29].startY 965m
param *.uav[29].startZ 539m
param *.uav[30].startX 3537m
param *.uav[30].startY 965m
param *.uav[30].startZ 539m
param *.uav[31].startX 312m
param *.uav[31].startY 1262m
param *.uav[31].startZ 540m
param *.uav[32].startX 2185m
param *.uav[32].startY 3026m
param *.uav[32].startZ 778m
param *.uav[33].startX 3537m
param *.uav[33].startY 965m
param *.uav[33].startZ 539m
param *.uav[34].startX 312m
param *.uav[34].startY 1262m
param *.uav[34].startZ 540m
param *.uav[35].startX 2185m
param *.uav[35].startY 3026m
param *.uav[35].startZ 778m
param *.uav[36].startX 3537m
param *.uav[36].startY 965m
param *.uav[36].startZ 539m
param *.uav[37].startX 312m
param *.uav[37].startY 1262m
param *.uav[37].startZ 540m
param *.uav[38].startX 2185m
param *.uav[38].startY 3026m
param *.uav[38].startZ 778m
param *.uav[39].startX 3537m
param *.uav[39].startY 965m
param *.uav[39].startZ 539m
param *.uav[40].startX 3537m
param *.uav[40].startY 965m
param *.uav[40].startZ 539m
param *.uav[41].startX 312m
param *.uav[41].startY 1262m
param *.uav[41].startZ 540m
param *.uav[42].startX 2185m
param *.uav[42].startY 3026m
param *.uav[42].startZ 778m
param *.uav[43].startX 3537m
param *.uav[43].startY 965m
param *.uav[43].startZ 539m
param *.uav[44].startX 312m
param *.uav[44].startY 1262m
param *.uav[44].startZ 540m
param *.uav[45].startX 2185m
param *.uav[45].startY 3026m
param *.uav[45].startZ 778m
param *.uav[46].startX 3537m
param *.uav[46].startY 965m
param *.uav[46].startZ 539m
param *.uav[47].startX 312m
param *.uav[47].startY 1262m
param *.uav[47].startZ 540m
param *.uav[48].startX 2185m
param *.uav[48].startY 3026m
param *.uav[48].startZ 778m
param *.uav[49].startX 3537m
param *.uav[49].startY 965m
param *.uav[49].startZ 539m
param *.uav[50].startX 3537m
param *.uav[50].startY 965m
param *.uav[50].startZ 539m
param *.uav[51].startX 312m
param *.uav[51].startY 1262m
param *.uav[51].startZ 540m
param *.uav[52].startX 2185m
param *.uav[52].startY 3026m
param *.uav[52].startZ 778m
param *.uav[53].startX 3537m
param *.uav[53].startY 965m
param *.uav[53].startZ 539m
param *.uav[54].startX 312m
param *.uav[54].startY 1262m
param *.uav[54].startZ 540m
param *.uav[55].startX 2185m
param *.uav[55].startY 3026m
param *.uav[55].startZ 778m
param *.uav[56].startX 3537m
param *.uav[56].startY 965m
param *.uav[56].startZ 539m
param *.uav[57].startX 312m
param *.uav[57].startY 1262m
param *.uav[57].startZ 540m
param *.uav[58].startX 2185m
param *.uav[58].startY 3026m
param *.uav[58].startZ 778m
param *.uav[59].startX 3537m
param *.uav[59].startY 965m
param *.uav[59].startZ 539m
param *.uav[60].startX 3537m
param *.uav[60].startY 965m
param *.uav[60].startZ 539m
param *.uav[61].startX 312m
param *.uav[61].startY 1262m
param *.uav[61].startZ 540m
param *.uav[62].startX 2185m
param *.uav[62].startY 3026m
param *.uav[62].startZ 778m
param *.uav[63].startX 3537m
param *.uav[63].startY 965m
param *.uav[63].startZ 539m
param *.uav[64].startX 312m
param *.uav[64].startY 1262m
param *.uav[64].startZ 540m
param *.uav[65].startX 2185m
param *.uav[65].startY 3026m
param *.uav[65].startZ 778m
param *.uav[66].startX 3537m
param *.uav[66].startY 965m
param *.uav[66].startZ 539m
param *.uav[67].startX 312m
param *.uav[67].startY 1262m
param *.uav[67].startZ 540m
param *.uav[68].startX 2185m
param *.uav[68].startY 3026m
param *.uav[68].startZ 778m
param *.uav[69].startX 3537m
param *.uav[69].startY 965m
param *.uav[69].startZ 539m
param *.uav[70].startX 3537m
param *.uav[70].startY 965m
param *.uav[70].startZ 539m
param *.uav[71].startX 312m
param *.uav[71].startY 1262m
param *.uav[71].startZ 540m
param *.uav[72].startX 2185m
param *.uav[72].startY 3026m
param *.uav[72].startZ 778m
param *.uav[73].startX 3537m
param *.uav[73].startY 965m
param *.uav[73].startZ 539m
param *.uav[74].startX 312m
param *.uav[74].startY 1262m
param *.uav[74].startZ 540m
param *.uav[75].startX 2185m
param *.uav[75].startY 3026m
param *.uav[75].startZ 778m
param *.uav[76].startX 3537m
param *.uav[76].startY 965m
param *.uav[76].startZ 539m
param *.uav[77].startX 312m
param *.uav[77].startY 1262m
param *.uav[77].startZ 540m
param *.uav[78].startX 2185m
param *.uav[78].startY 3026m
param *.uav[78].startZ 778m
param *.uav[79].startX 3537m
param *.uav[79].startY 965m
param *.uav[79].startZ 539m
param *.uav[80].startX 3537m
param *.uav[80].startY 965m
param *.uav[80].startZ 539m
param *.uav[81].startX 312m
param *.uav[81].startY 1262m
param *.uav[81].startZ 540m
param *.uav[82].startX 2185m
param *.uav[82].startY 3026m
param *.uav[82].startZ 778m
param *.uav[83].startX 3537m
param *.uav[83].startY 965m
param *.uav[83].startZ 539m
param *.uav[84].startX 312m
param *.uav[84].startY 1262m
param *.uav[84].startZ 540m
param *.uav[85].startX 2185m
param *.uav[85].startY 3026m
param *.uav[85].startZ 778m
param *.uav[86].startX 3537m
param *.uav[86].startY 965m
param *.uav[86].startZ 539m
param *.uav[87].startX 312m
param *.uav[87].startY 1262m
param *.uav[87].startZ 540m
param *.uav[88].startX 2185m
param *.uav[88].startY 3026m
param *.uav[88].startZ 778m
param *.uav[89].startX 3537m
param *.uav[89].startY 965m
param *.uav[89].startZ 539m
param *.uav[90].startX 3537m
param *.uav[90].startY 965m
param *.uav[90].startZ 539m
param *.uav[91].startX 312m
param *.uav[91].startY 1262m
param *.uav[91].startZ 540m
param *.uav[92].startX 2185m
param *.uav[92].startY 3026m
param *.uav[92].startZ 778m
param *.uav[93].startX 3537m
param *.uav[93].startY 965m
param *.uav[93].startZ 539m
param *.uav[94].startX 312m
param *.uav[94].startY 1262m
param *.uav[94].startZ 540m
param *.uav[95].startX 2185m
param *.uav[95].startY 3026m
param *.uav[95].startZ 778m
param *.uav[96].startX 3537m
param *.uav[96].startY 965m
param *.uav[96].startZ 539m
param *.uav[97].startX 312m
param *.uav[97].startY 1262m
param *.uav[97].startZ 540m
param *.uav[98].startX 2185m
param *.uav[98].startY 3026m
param *.uav[98].startZ 778m
param *.uav[99].startX 3537m
param *.uav[99].startY 965m
param *.uav[99].startZ 539m
param *.osgEarthScene.scene "\"boston.earth\""
param *.playgroundLatitude 42.3558
param *.playgroundLongitude -71.0677
param *.playgroundWidth 400m
param *.playgroundHeight 200m
param *.channelController.connectionColor "\"#0000FF40\""
param *.channelController.showConnections false
param *.uav[*].modelURL "\"quadrocopter.small.obj.15.scale.0,0,90.rot\""
param *.uav[*].labelColor "\"#FF7C00CC\""
param *.uav[*].label2Color "\"#FF7C00EE\""
param *.uav[*].batteryCapacity 5200mAh
param *.uav[*].batteryRemaining uav[index].batteryCapacity
param *.uav[*].predictionQuantile 0.95
param *.uav[*].replacementMethod 2
param *.uav[*].weightedSumWeight 0.5
param *.cs[*].modelURL "\"chargingstation_v1.osgt.2.scale.0,0,0.rot.0,0,-15e-1.trans\""
param *.cs[*].spotsWaiting 999
param *.cs[*].spotsCharging 999
param *.cs[*].chargeEffectivenessPercentage 100
param *.cs[*].nonLinearPhaseStartPercentage 85
param *.cs[*].chargeCurrent 6.0A
param *.cs[*].prioritizeFastCharge true
param *.missionControl.replacementSearchMethod 0
param *.*.timeStep 9s

scalar OsgEarthNet.uav[0] utilizationSecMission 25747.139301947
scalar OsgEarthNet.uav[0] utilizationSecMaintenance 11661.5954434
scalar OsgEarthNet.uav[0] utilizationSecCharge 144190.05340802
scalar OsgEarthNet.uav[0] utilizationSecIdle 77601.210846629
scalar OsgEarthNet.uav[0] utilizationEnergyMission 117521.12979889
scalar OsgEarthNet.uav[0] utilizationEnergyMaintenance 55364.022514343
scalar OsgEarthNet.uav[0] utilizationEnergyCharge 172182.06054688
scalar OsgEarthNet.uav[0] utilizationEnergyOverdrawMission 0
scalar OsgEarthNet.uav[0] utilizationEnergyOverdrawMaintenance 0
scalar OsgEarthNet.uav[0] utilizationCountMissions 46
scalar OsgEarthNet.uav[0] utilizationCountManeuversMission 423
scalar OsgEarthNet.uav[0] utilizationCountManeuversMaintenance 92
scalar OsgEarthNet.uav[0] utilizationCountChargeState 46
scalar OsgEarthNet.uav[0] utilizationCountOverdrawnAfterMission 0
scalar OsgEarthNet.uav[0] utilizationCountIdleState 46
scalar OsgEarthNet.uav[0] utilizationFail 0
scalar OsgEarthNet.uav[0] simulationTime 259200
scalar OsgEarthNet.uav[1] utilizationSecMission 301.50602773369
scalar OsgEarthNet.uav[1] utilizationSecMaintenance 206.19350838146
scalar OsgEarthNet.uav[1] utilizationSecCharge 2440
scalar OsgEarthNet.uav[1] utilizationSecIdle 256252.29946388
scalar OsgEarthNet.uav[1] utilizationEnergyMission 1469.44972229
scalar OsgEarthNet.uav[1] utilizationEnergyMaintenance 983.77486419677
scalar OsgEarthNet.uav[1] utilizationEnergyCharge 2487.8020019531
scalar OsgEarthNet.uav[1] utilizationEnergyOverdrawMission 0
scalar OsgEarthNet.uav[1] utilizationEnergyOverdrawMaintenance 0
scalar OsgEarthNet.uav[1] utilizationCountMissions 1
scalar OsgEarthNet.uav[1] utilizationCountManeuversMission 6
scalar OsgEarthNet.uav[1] utilizationCountManeuversMaintenance 2
scalar OsgEarthNet.uav[1] utilizationCountChargeState 1
scalar OsgEarthNet.uav[1] utilizationCountOverdrawnAfterMission 0
scalar OsgEarthNet.uav[1] utilizationCountIdleState 2
scalar OsgEarthNet.uav[1] utilizationFail 0
scalar OsgEarthNet.uav[1] simulationTime 259200
scalar OsgEarthNet.uav[2] utilizationSecMission 31377.623586844
scalar OsgEarthNet.uav[2] utilizationSecMaintenance 11577.633539229
scalar OsgEarthNet.uav[2] utilizationSecCharge 165958.70577516
scalar OsgEarthNet.uav[2] utilizationSecIdle 50286.036098769
scalar OsgEarthNet.uav[2] utilizationEnergyMission 144983.51012421
scalar OsgEarthNet.uav[2] utilizationEnergyMaintenance 54747.688861847
scalar OsgEarthNet.uav[2] utilizationEnergyCharge 198897.3046875
scalar OsgEarthNet.uav[2] utilizationEnergyOverdrawMission 0
scalar OsgEarthNet.uav[2] utilizationEnergyOverdrawMaintenance 0
scalar OsgEarthNet.uav[2] utilizationCountMissions 52
scalar OsgEarthNet.uav[2] utilizationCountManeuversMission 517
scalar OsgEarthNet.uav[2] utilizationCountManeuversMaintenance 104
scalar OsgEarthNet.uav[2] utilizationCountChargeState 52
scalar OsgEarthNet.uav[2] utilizationCountOverdrawnAfterMission 0
scalar OsgEarthNet.uav[2] utilizationCountIdleState 52
scalar OsgEarthNet.uav[2] utilizationFail 0
scalar OsgEarthNet.uav[2] simulationTime 259200
scalar OsgEarthNet.uav[3] utilizationSecMission 52.985382275403
scalar OsgEarthNet.uav[3] utilizationSecMaintenance 638.66126345834
scalar OsgEarthNet.uav[3] utilizationSecCharge 2880
scalar OsgEarthNet.uav[3] utilizationSecIdle 255628.35235427
scalar OsgEarthNet.uav[3] utilizationEnergyMission 197.25019836426
scalar OsgEarthNet.uav[3] utilizationEnergyMaintenance 3090.9699287415
scalar OsgEarthNet.uav[3] utilizationEnergyCharge 3288.2177734375
scalar OsgEarthNet.uav[3] utilizationEnergyOverdrawMission 0
scalar OsgEarthNet.uav[3] utilizationEnergyOverdrawMaintenance 0
scalar OsgEarthNet.uav[3] utilizationCountMissions 1
scalar OsgEarthNet.uav[3] utilizationCountManeuversMission 1
scalar OsgEarthNet.uav[3] utilizationCountManeuversMaintenance 2
scalar OsgEarthNet.uav[3] utilizationCountChargeState 1
scalar OsgEarthNet.uav[3] utilizationCountOverdrawnAfterMission 0
scalar OsgEarthNet.uav[3] utilizationCountIdleState 2
scalar OsgEarthNet.uav[3] utilizationFail 0
scalar OsgEarthNet.uav[3] simulationTime 259200
scalar OsgEarthNet.uav[4] utilizationSecMission 2065.4039317696
scalar OsgEarthNet.uav[4] utilizationSecMaintenance 1630.9916736058
scalar OsgEarthNet.uav[4] utilizationSecCharge 15200
scalar OsgEarthNet.uav[4] utilizationSecIdle 240303.60339462
scalar OsgEarthNet.uav[4] utilizationEnergyMission 9790.1311645508
scalar OsgEarthNet.uav[4] utilizationEnergyMaintenance 7831.6271286011
scalar OsgEarthNet.uav[4] utilizationEnergyCharge 17621.752197266
scalar OsgEarthNet.uav[4] utilizationEnergyOverdrawMission 0
scalar OsgEarthNet.uav[4] utilizationEnergyOverdrawMaintenance 0
scalar OsgEarthNet.uav[4] utilizationCountMissions 5
scalar OsgEarthNet.uav[4] utilizationCountManeuversMission 36
scalar OsgEarthNet.uav[4] utilizationCountManeuversMaintenance 10
scalar OsgEarthNet.uav[4] utilizationCountChargeState 5
scalar OsgEarthNet.uav[4] utilizationCountOverdrawnAfterMission 0
scalar OsgEarthNet.uav[4] utilizationCountIdleState 6
scalar OsgEarthNet.uav[4] utilizationFail 0
scalar OsgEarthNet.uav[4] simulationTime 259200
scalar OsgEarthNet.uav[5] utilizationSecMission 694.00169469977
scalar OsgEarthNet.uav[5] utilizationSecMaintenance 229.48898285212
scalar OsgEarthNet.uav[5] utilizationSecCharge 3540
scalar OsgEarthNet.uav[5] utilizationSecIdle 254736.50832245
scalar OsgEarthNet.uav[5] utilizationEnergyMission 3499.0704345703
scalar OsgEarthNet.uav[5] utilizationEnergyMaintenance 1056.0373764038
scalar OsgEarthNet.uav[5] utilizationEnergyCharge 4461.4560546875
scalar OsgEarthNet.uav[5] utilizationEnergyOverdrawMission 0
scalar OsgEarthNet.uav[5] utilizationEnergyOverdrawMaintenance 0
scalar OsgEarthNet.uav[5] utilizationCountMissions 1
scalar OsgEarthNet.uav[5] utilizationCountManeuversMission 13
scalar OsgEarthNet.uav[5] utilizationCountManeuversMaintenance 2
scalar OsgEarthNet.uav[5] utilizationCountChargeState 1
scalar OsgEarthNet.uav[5] utilizationCountOverdrawnAfterMission 0
scalar OsgEarthNet.uav[5] utilizationCountIdleState 2
scalar OsgEarthNet.uav[5] utilizationFail 0
scalar OsgEarthNet.uav[5] simulationTime 259200
scalar OsgEarthNet.uav[6] utilizationSecMission 760.62515258028
scalar OsgEarthNet.uav[6] utilizationSecMaintenance 245.74410321072
scalar OsgEarthNet.uav[6] utilizationSecCharge 3730
scalar OsgEarthNet.uav[6] utilizationSecIdle 254463.62974421
scalar OsgEarthNet.uav[6] utilizationEnergyMission 3452.0667495728
scalar OsgEarthNet.uav[6] utilizationEnergyMaintenance 1208.9546012878
scalar OsgEarthNet.uav[6] utilizationEnergyCharge 4661.017578125
scalar OsgEarthNet.uav[6] utilizationEnergyOverdrawMission 0
scalar OsgEarthNet.uav[6] utilizationEnergyOverdrawMaintenance 0
scalar OsgEarthNet.uav[6] utilizationCountMissions 1
scalar OsgEarthNet.uav[6] utilizationCountManeuversMission 12
scalar OsgEarthNet.uav[6] utilizationCountManeuversMaintenance 2
scalar OsgEarthNet.uav[6] utilizationCountChargeState 1
scalar OsgEarthNet.uav[6] utilizationCountOverdrawnAfterMission 0
scalar OsgEarthNet.uav[6] utilizationCountIdleState 2
scalar OsgEarthNet.uav[6] utilizationFail 0
scalar OsgEarthNet.uav[6] simulationTime 259200
scalar OsgEarthNet.uav[7] utilizationSecMission 27712.473406566
scalar OsgEarthNet.uav[7] utilizationSecMaintenance 13745.687462059
scalar OsgEarthNet.uav[7] utilizationSecCharge 162670.8741457
scalar OsgEarthNet.uav[7] utilizationSecIdle 55070.963985674
scalar OsgEarthNet.uav[7] utilizationEnergyMission 128355.5283165
scalar OsgEarthNet.uav[7] utilizationEnergyMaintenance 65303.646438599
scalar OsgEarthNet.uav[7] utilizationEnergyCharge 189897.13348389
scalar OsgEarthNet.uav[7] utilizationEnergyOverdrawMission 0
scalar OsgEarthNet.uav[7] utilizationEnergyOverdrawMaintenance 0
scalar OsgEarthNet.uav[7] utilizationCountMissions 54
scalar OsgEarthNet.uav[7] utilizationCountManeuversMission 453
scalar OsgEarthNet.uav[7] utilizationCountManeuversMaintenance 108
scalar OsgEarthNet.uav[7] utilizationCountChargeState 54
scalar OsgEarthNet.uav[7] utilizationCountOverdrawnAfterMission 0
scalar OsgEarthNet.uav[7] utilizationCountIdleState 54
scalar OsgEarthNet.uav[7] utilizationFail 0
scalar OsgEarthNet.uav[7] simulationTime 259200
scalar OsgEarthNet.uav[8] utilizationSecMission 24902.674662364
scalar OsgEarthNet.uav[8] utilizationSecMaintenance 13129.393779229
scalar OsgEarthNet.uav[8] utilizationSecCharge 149381.68872279
scalar OsgEarthNet.uav[8] utilizationSecIdle 71786.241835621
scalar OsgEarthNet.uav[8] utilizationEnergyMission 115404.0561142
scalar OsgEarthNet.uav[8] utilizationEnergyMaintenance 60384.485027313
scalar OsgEarthNet.uav[8] utilizationEnergyCharge 175190.06225586
scalar OsgEarthNet.uav[8] utilizationEnergyOverdrawMission 0
scalar OsgEarthNet.uav[8] utilizationEnergyOverdrawMaintenance 0
scalar OsgEarthNet.uav[8] utilizationCountMissions 49
scalar OsgEarthNet.uav[8] utilizationCountManeuversMission 407
scalar OsgEarthNet.uav[8] utilizationCountManeuversMaintenance 98
scalar OsgEarthNet.uav[8] utilizationCountChargeState 49
scalar OsgEarthNet.uav[8] utilizationCountOverdrawnAfterMission 0
scalar OsgEarthNet.uav[8] utilizationCountIdleState 49
scalar OsgEarthNet.uav[8] utilizationFail 0
scalar OsgEarthNet.uav[8] simulationTime 259200
scalar OsgEarthNet.uav[9] utilizationSecMission 28884.728883286
scalar OsgEarthNet.uav[9] utilizationSecMaintenance 14404.723402683
scalar OsgEarthNet.uav[9] utilizationSecCharge 166378.54671403
scalar OsgEarthNet.uav[9] utilizationSecIdle 49532
scalar OsgEarthNet.uav[9] utilizationEnergyMission 133363.66681671
scalar OsgEarthNet.uav[9] utilizationEnergyMaintenance 67122.097930908
scalar OsgEarthNet.uav[9] utilizationEnergyCharge 199432.55566406
scalar OsgEarthNet.uav[9] utilizationEnergyOverdrawMission 0
scalar OsgEarthNet.uav[9] utilizationEnergyOverdrawMaintenance 0
scalar OsgEarthNet.uav[9] utilizationCountMissions 52
scalar OsgEarthNet.uav[9] utilizationCountManeuversMission 462
scalar OsgEarthNet.uav[9] utilizationCountManeuversMaintenance 103
scalar OsgEarthNet.uav[9] utilizationCountChargeState 52
scalar OsgEarthNet.uav[9] utilizationCountOverdrawnAfterMission 0
scalar OsgEarthNet.uav[9] utilizationCountIdleState 52
scalar OsgEarthNet.uav[9] utilizationFail 0
scalar OsgEarthNet.uav[9] simulationTime 259200
scalar OsgEarthNet.uav[10] utilizationSecMission 443.5870541303
scalar OsgEarthNet.uav[10] utilizationSecMaintenance 425.80795651079
scalar OsgEarthNet.uav[10] utilizationSecCharge 3280
scalar OsgEarthNet.uav[10] utilizationSecIdle 255050.60398936
scalar OsgEarthNet.uav[10] utilizationEnergyMission 1872.5301361084
scalar OsgEarthNet.uav[10] utilizationEnergyMaintenance 2044.7501182556
scalar OsgEarthNet.uav[10] utilizationEnergyCharge 3925.37109375
scalar OsgEarthNet.uav[10] utilizationEnergyOverdrawMission 0
scalar OsgEarthNet.uav[10] utilizationEnergyOverdrawMaintenance 0
scalar OsgEarthNet.uav[10] utilizationCountMissions 1
scalar OsgEarthNet.uav[10] utilizationCountManeuversMission 7
scalar OsgEarthNet.uav[10] utilizationCountManeuversMaintenance 2
scalar OsgEarthNet.uav[10] utilizationCountChargeState 1
scalar OsgEarthNet.uav[10] utilizationCountOverdrawnAfterMission 0
scalar OsgEarthNet.uav[10] utilizationCountIdleState 2
scalar OsgEarthNet.uav[10] utilizationFail 0
scalar OsgEarthNet.uav[10] simulationTime 259200
scalar OsgEarthNet.uav[11] utilizationSecMission 27350.241850254
scalar OsgEarthNet.uav[11] utilizationSecMaintenance 12946.088971758
scalar OsgEarthNet.uav[11] utilizationSecCharge 157910
scalar OsgEarthNet.uav[11] utilizationSecIdle 60993.668177988
scalar OsgEarthNet.uav[11] utilizationEnergyMission 125927.870327
scalar OsgEarthNet.uav[11] utilizationEnergyMaintenance 62212.714684989
scalar OsgEarthNet.uav[11] utilizationEnergyCharge 186677.57568359
scalar OsgEarthNet.uav[11] utilizationEnergyOverdrawMission 0
scalar OsgEarthNet.uav[11] utilizationEnergyOverdrawMaintenance 0
scalar OsgEarthNet.uav[11] utilizationCountMissions 51
scalar OsgEarthNet.uav[11] utilizationCountManeuversMission 441
scalar OsgEarthNet.uav[11] utilizationCountManeuversMaintenance 102
scalar OsgEarthNet.uav[11] utilizationCountChargeState 50
scalar OsgEarthNet.uav[11] utilizationCountOverdrawnAfterMission 0
scalar OsgEarthNet.uav[11] utilizationCountIdleState 51
scalar OsgEarthNet.uav[11] utilizationFail 0
scalar OsgEarthNet.uav[11] simulationTime 259200
scalar OsgEarthNet.uav[12] utilizationSecMission 22155.544567782
scalar OsgEarthNet.uav[12] utilizationSecMaintenance 10484.449046334
scalar OsgEarthNet.uav[12] utilizationSecCharge 126900
scalar OsgEarthNet.uav[12] utilizationSecIdle 99660.005385884
scalar OsgEarthNet.uav[12] utilizationEnergyMission 100587.81476889
scalar OsgEarthNet.uav[12] utilizationEnergyMaintenance 49440.205459595
scalar OsgEarthNet.uav[12] utilizationEnergyCharge 148745.70214844
scalar OsgEarthNet.uav[12] utilizationEnergyOverdrawMission 0
scalar OsgEarthNet.uav[12] utilizationEnergyOverdrawMaintenance 0
scalar OsgEarthNet.uav[12] utilizationCountMissions 41
scalar OsgEarthNet.uav[12] utilizationCountManeuversMission 360
scalar OsgEarthNet.uav[12] utilizationCountManeuversMaintenance 83
scalar OsgEarthNet.uav[12] utilizationCountChargeState 41
scalar OsgEarthNet.uav[12] utilizationCountOverdrawnAfterMission 0
scalar OsgEarthNet.uav[12] utilizationCountIdleState 42
scalar OsgEarthNet.uav[12] utilizationFail 0
scalar OsgEarthNet.uav[12] simulationTime 259200
scalar OsgEarthNet.uav[13] utilizationSecMission 23.32923393083
scalar OsgEarthNet.uav[13] utilizationSecMaintenance 714.24089467002
scalar OsgEarthNet.uav[13] utilizationSecCharge 3030
scalar OsgEarthNet.uav[13] utilizationSecIdle 255432.4288714
scalar OsgEarthNet.uav[13] utilizationEnergyMission 127.34866333008
scalar OsgEarthNet.uav[13] utilizationEnergyMaintenance 3392.375202179
scalar OsgEarthNet.uav[13] utilizationEnergyCharge 3519.7319335938
scalar OsgEarthNet.uav[13] utilizationEnergyOverdrawMission 0
scalar OsgEarthNet.uav[13] utilizationEnergyOverdrawMaintenance 0
scalar OsgEarthNet.uav[13] utilizationCountMissions 1
scalar OsgEarthNet.uav[13] utilizationCountManeuversMission 1
scalar OsgEarthNet.uav[13] utilizationCountManeuversMaintenance 2
scalar OsgEarthNet.uav[13] utilizationCountChargeState 1
scalar OsgEarthNet.uav[13] utilizationCountOverdrawnAfterMission 0
scalar OsgEarthNet.uav[13] utilizationCountIdleState 2
scalar OsgEarthNet.uav[13] utilizationFail 0
scalar OsgEarthNet.uav[13] simulationTime 259200
scalar OsgEarthNet.uav[14] utilizationSecMission 30577.160499663
scalar OsgEarthNet.uav[14] utilizationSecMaintenance 13574.412873987
scalar OsgEarthNet.uav[14] utilizationSecCharge 168646.42562635
scalar OsgEarthNet.uav[14] utilizationSecIdle 46402
scalar OsgEarthNet.uav[14] utilizationEnergyMission 141186.82250595
scalar OsgEarthNet.uav[14] utilizationEnergyMaintenance 63560.114814758
scalar OsgEarthNet.uav[14] utilizationEnergyCharge 201995.89599609
scalar OsgEarthNet.uav[14] utilizationEnergyOverdrawMission 0
scalar OsgEarthNet.uav[14] utilizationEnergyOverdrawMaintenance 0
scalar OsgEarthNet.uav[14] utilizationCountMissions 53
scalar OsgEarthNet.uav[14] utilizationCountManeuversMission 492
scalar OsgEarthNet.uav[14] utilizationCountManeuversMaintenance 105
scalar OsgEarthNet.uav[14] utilizationCountChargeState 53
scalar OsgEarthNet.uav[14] utilizationCountOverdrawnAfterMission 0
scalar OsgEarthNet.uav[14] utilizationCountIdleState 53
scalar OsgEarthNet.uav[14] utilizationFail 0
scalar OsgEarthNet.uav[14] simulationTime 259200
scalar OsgEarthNet.uav[15] utilizationSecMission 2718.7645517904
scalar OsgEarthNet.uav[15] utilizationSecMaintenance 680.96767280007
scalar OsgEarthNet.uav[15] utilizationSecCharge 13050
scalar OsgEarthNet.uav[15] utilizationSecIdle 242750.26677541
scalar OsgEarthNet.uav[15] utilizationEnergyMission 12597.779907227
scalar OsgEarthNet.uav[15] utilizationEnergyMaintenance 3135.1893119812
scalar OsgEarthNet.uav[15] utilizationEnergyCharge 15619.286132812
scalar OsgEarthNet.uav[15] utilizationEnergyOverdrawMission 0
scalar OsgEarthNet.uav[15] utilizationEnergyOverdrawMaintenance 0
scalar OsgEarthNet.uav[15] utilizationCountMissions 4
scalar OsgEarthNet.uav[15] utilizationCountManeuversMission 47
scalar OsgEarthNet.uav[15] utilizationCountManeuversMaintenance 8
scalar OsgEarthNet.uav[15] utilizationCountChargeState 4
scalar OsgEarthNet.uav[15] utilizationCountOverdrawnAfterMission 0
scalar OsgEarthNet.uav[15] utilizationCountIdleState 5
scalar OsgEarthNet.uav[15] utilizationFail 0
scalar OsgEarthNet.uav[15] simulationTime 259200
scalar OsgEarthNet.uav[16] utilizationSecMission 750.20472747826
scalar OsgEarthNet.uav[16] utilizationSecMaintenance 261.68051383311
scalar OsgEarthNet.uav[16] utilizationSecCharge 3710
scalar OsgEarthNet.uav[16] utilizationSecIdle 254478.11375869
scalar OsgEarthNet.uav[16] utilizationEnergyMission 3556.4141235351
scalar OsgEarthNet.uav[16] utilizationEnergyMaintenance 1153.9149589539
scalar OsgEarthNet.uav[16] utilizationEnergyCharge 4710.3334960938
scalar OsgEarthNet.uav[16] utilizationEnergyOverdrawMission 0
scalar OsgEarthNet.uav[16] utilizationEnergyOverdrawMaintenance 0
scalar OsgEarthNet.uav[16] utilizationCountMissions 1
scalar OsgEarthNet.uav[16] utilizationCountManeuversMission 11
scalar OsgEarthNet.uav[16] utilizationCountManeuversMaintenance 2
scalar OsgEarthNet.uav[16] utilizationCountChargeState 1
scalar OsgEarthNet.uav[16] utilizationCountOverdrawnAfterMission 0
scalar OsgEarthNet.uav[16] utilizationCountIdleState 2
scalar OsgEarthNet.uav[16] utilizationFail 0
scalar OsgEarthNet.uav[16] simulationTime 259200
scalar OsgEarthNet.uav[17] utilizationSecMission 23.329233930829
scalar OsgEarthNet.uav[17] utilizationSecMaintenance 476.50021886036
scalar OsgEarthNet.uav[17] utilizationSecCharge 2350
scalar OsgEarthNet.uav[17] utilizationSecIdle 256350.16954721
scalar OsgEarthNet.uav[17] utilizationEnergyMission 96.287750244139
scalar OsgEarthNet.uav[17] utilizationEnergyMaintenance 2238.1899642944
scalar OsgEarthNet.uav[17] utilizationEnergyCharge 2334.4743652344
scalar OsgEarthNet.uav[17] utilizationEnergyOverdrawMission 0
scalar OsgEarthNet.uav[17] utilizationEnergyOverdrawMaintenance 0
scalar OsgEarthNet.uav[17] utilizationCountMissions 1
scalar OsgEarthNet.uav[17] utilizationCountManeuversMission 1
scalar OsgEarthNet.uav[17] utilizationCountManeuversMaintenance 2
scalar OsgEarthNet.uav[17] utilizationCountChargeState 1
scalar OsgEarthNet.uav[17] utilizationCountOverdrawnAfterMission 0
scalar OsgEarthNet.uav[17] utilizationCountIdleState 2
scalar OsgEarthNet.uav[17] utilizationFail 0
scalar OsgEarthNet.uav[17] simulationTime 259200
scalar OsgEarthNet.uav[18] utilizationSecMission 443.5870541303
scalar OsgEarthNet.uav[18] utilizationSecMaintenance 125.81102573108
scalar OsgEarthNet.uav[18] utilizationSecCharge 2550
scalar OsgEarthNet.uav[18] utilizationSecIdle 256080.60092014
scalar OsgEarthNet.uav[18] utilizationEnergyMission 1955.0141601563
scalar OsgEarthNet.uav[18] utilizationEnergyMaintenance 566.10565948487
scalar OsgEarthNet.uav[18] utilizationEnergyCharge 2651.4597167969
scalar OsgEarthNet.uav[18] utilizationEnergyOverdrawMission 0
scalar OsgEarthNet.uav[18] utilizationEnergyOverdrawMaintenance 0
scalar OsgEarthNet.uav[18] utilizationCountMissions 1
scalar OsgEarthNet.uav[18] utilizationCountManeuversMission 7
scalar OsgEarthNet.uav[18] utilizationCountManeuversMaintenance 2
scalar OsgEarthNet.uav[18] utilizationCountChargeState 1
scalar OsgEarthNet.uav[18] utilizationCountOverdrawnAfterMission 0
scalar OsgEarthNet.uav[18] utilizationCountIdleState 2
scalar OsgEarthNet.uav[18] utilizationFail 0
scalar OsgEarthNet.uav[18] simulationTime 259200
scalar OsgEarthNet.uav[19] utilizationSecMission 12749.072397591
scalar OsgEarthNet.uav[19] utilizationSecMaintenance 5295.4260356494
scalar OsgEarthNet.uav[19] utilizationSecCharge 68760
scalar OsgEarthNet.uav[19] utilizationSecIdle 172395.50056676
scalar OsgEarthNet.uav[19] utilizationEnergyMission 58749.52142334
scalar OsgEarthNet.uav[19] utilizationEnergyMaintenance 24399.768810272
scalar OsgEarthNet.uav[19] utilizationEnergyCharge 82685.471191406
scalar OsgEarthNet.uav[19] utilizationEnergyOverdrawMission 0
scalar OsgEarthNet.uav[19] utilizationEnergyOverdrawMaintenance 0
scalar OsgEarthNet.uav[19] utilizationCountMissions 21
scalar OsgEarthNet.uav[19] utilizationCountManeuversMission 214
scalar OsgEarthNet.uav[19] utilizationCountManeuversMaintenance 42
scalar OsgEarthNet.uav[19] utilizationCountChargeState 21
scalar OsgEarthNet.uav[19] utilizationCountOverdrawnAfterMission 0
scalar OsgEarthNet.uav[19] utilizationCountIdleState 22
scalar OsgEarthNet.uav[19] utilizationFail 0
scalar OsgEarthNet.uav[19] simulationTime 259200
scalar OsgEarthNet.uav[20] utilizationSecMission 760.62515258028
scalar OsgEarthNet.uav[20] utilizationSecMaintenance 245.74410321072
scalar OsgEarthNet.uav[20] utilizationSecCharge 3560
scalar OsgEarthNet.uav[20] utilizationSecIdle 254633.62974421
scalar OsgEarthNet.uav[20] utilizationEnergyMission 3321.4349441528
scalar OsgEarthNet.uav[20] utilizationEnergyMaintenance 1157.4623832703
scalar OsgEarthNet.uav[20] utilizationEnergyCharge 4478.8984375
scalar OsgEarthNet.uav[20] utilizationEnergyOverdrawMission 0
scalar OsgEarthNet.uav[20] utilizationEnergyOverdrawMaintenance 0
scalar OsgEarthNet.uav[20] utilizationCountMissions 1
scalar OsgEarthNet.uav[20] utilizationCountManeuversMission 12
scalar OsgEarthNet.uav[20] utilizationCountManeuversMaintenance 2
scalar OsgEarthNet.uav[20] utilizationCountChargeState 1
scalar OsgEarthNet.uav[20] utilizationCountOverdrawnAfterMission 0
scalar OsgEarthNet.uav[20] utilizationCountIdleState 2
scalar OsgEarthNet.uav[20] utilizationFail 0
scalar OsgEarthNet.uav[20] simulationTime 259200
scalar OsgEarthNet.uav[21] utilizationSecMission 23.329233930829
scalar OsgEarthNet.uav[21] utilizationSecMaintenance 636.50021886036
scalar OsgEarthNet.uav[21] utilizationSecCharge 2850
scalar OsgEarthNet.uav[21] utilizationSecIdle 255690.16954721
scalar OsgEarthNet.uav[21] utilizationEnergyMission 105.10413360596
scalar OsgEarthNet.uav[21] utilizationEnergyMaintenance 3157.2120895386
scalar OsgEarthNet.uav[21] utilizationEnergyCharge 3262.31640625
scalar OsgEarthNet.uav[21] utilizationEnergyOverdrawMission 0
scalar OsgEarthNet.uav[21] utilizationEnergyOverdrawMaintenance 0
scalar OsgEarthNet.uav[21] utilizationCountMissions 1
scalar OsgEarthNet.uav[21] utilizationCountManeuversMission 1
scalar OsgEarthNet.uav[21] utilizationCountManeuversMaintenance 2
scalar OsgEarthNet.uav[21] utilizationCountChargeState 1
scalar OsgEarthNet.uav[21] utilizationCountOverdrawnAfterMission 0
scalar OsgEarthNet.uav[21] utilizationCountIdleState 2
scalar OsgEarthNet.uav[21] utilizationFail 0
scalar OsgEarthNet.uav[21] simulationTime 259200
scalar OsgEarthNet.uav[22] utilizationSecMission 694.00169469977
scalar OsgEarthNet.uav[22] utilizationSecMaintenance 229.48898285212
scalar OsgEarthNet.uav[22] utilizationSecCharge 3400
scalar OsgEarthNet.uav[22] utilizationSecIdle 254876.50832245
scalar OsgEarthNet.uav[22] utilizationEnergyMission 3119.0875854492
scalar OsgEarthNet.uav[22] utilizationEnergyMaintenance 1066.9351119995
scalar OsgEarthNet.uav[22] utilizationEnergyCharge 4126.9565429688
scalar OsgEarthNet.uav[22] utilizationEnergyOverdrawMission 0
scalar OsgEarthNet.uav[22] utilizationEnergyOverdrawMaintenance 0
scalar OsgEarthNet.uav[22] utilizationCountMissions 1
scalar OsgEarthNet.uav[22] utilizationCountManeuversMission 13
scalar OsgEarthNet.uav[22] utilizationCountManeuversMaintenance 2
scalar OsgEarthNet.uav[22] utilizationCountChargeState 1
scalar OsgEarthNet.uav[22] utilizationCountOverdrawnAfterMission 0
scalar OsgEarthNet.uav[22] utilizationCountIdleState 2
scalar OsgEarthNet.uav[22] utilizationFail 0
scalar OsgEarthNet.uav[22] simulationTime 259200
scalar OsgEarthNet.uav[23] utilizationSecMission 2096.6885927755
scalar OsgEarthNet.uav[23] utilizationSecMaintenance 2166.0572425995
scalar OsgEarthNet.uav[23] utilizationSecCharge 17320
scalar OsgEarthNet.uav[23] utilizationSecIdle 237617.25316462
scalar OsgEarthNet.uav[23] utilizationEnergyMission 9610.5021286011
scalar OsgEarthNet.uav[23] utilizationEnergyMaintenance 9956.1527023315
scalar OsgEarthNet.uav[23] utilizationEnergyCharge 19566.664306641
scalar OsgEarthNet.uav[23] utilizationEnergyOverdrawMission 0
scalar OsgEarthNet.uav[23] utilizationEnergyOverdrawMaintenance 0
scalar OsgEarthNet.uav[23] utilizationCountMissions 6
scalar OsgEarthNet.uav[23] utilizationCountManeuversMission 33
scalar OsgEarthNet.uav[23] utilizationCountManeuversMaintenance 12
scalar OsgEarthNet.uav[23] utilizationCountChargeState 6
scalar OsgEarthNet.uav[23] utilizationCountOverdrawnAfterMission 0
scalar OsgEarthNet.uav[23] utilizationCountIdleState 7
scalar OsgEarthNet.uav[23] utilizationFail 0
scalar OsgEarthNet.uav[23] simulationTime 259200
scalar OsgEarthNet.uav[24] utilizationSecMission 22677.659852681
scalar OsgEarthNet.uav[24] utilizationSecMaintenance 12874.269049715
scalar OsgEarthNet.uav[24] utilizationSecCharge 138970.66020625
scalar OsgEarthNet.uav[24] utilizationSecIdle 84677.40989135
scalar OsgEarthNet.uav[24] utilizationEnergyMission 105149.9648819
scalar OsgEarthNet.uav[24] utilizationEnergyMaintenance 60861.651538849
scalar OsgEarthNet.uav[24] utilizationEnergyCharge 164694.59448242
scalar OsgEarthNet.uav[24] utilizationEnergyOverdrawMission 0
scalar OsgEarthNet.uav[24] utilizationEnergyOverdrawMaintenance 0
scalar OsgEarthNet.uav[24] utilizationCountMissions 45
scalar OsgEarthNet.uav[24] utilizationCountManeuversMission 372
scalar OsgEarthNet.uav[24] utilizationCountManeuversMaintenance 90
scalar OsgEarthNet.uav[24] utilizationCountChargeState 45
scalar OsgEarthNet.uav[24] utilizationCountOverdrawnAfterMission 0
scalar OsgEarthNet.uav[24] utilizationCountIdleState 45
scalar OsgEarthNet.uav[24] utilizationFail 0
scalar OsgEarthNet.uav[24] simulationTime 259200
scalar OsgEarthNet.uav[25] utilizationSecMission 26283.776584083
scalar OsgEarthNet.uav[25] utilizationSecMaintenance 15574.961077277
scalar OsgEarthNet.uav[25] utilizationSecCharge 165269.26133864
scalar OsgEarthNet.uav[25] utilizationSecIdle 52072
scalar OsgEarthNet.uav[25] utilizationEnergyMission 121005.14373195
scalar OsgEarthNet.uav[25] utilizationEnergyMaintenance 72978.97706604
scalar OsgEarthNet.uav[25] utilizationEnergyCharge 193718.24023438
scalar OsgEarthNet.uav[25] utilizationEnergyOverdrawMission 0
scalar OsgEarthNet.uav[25] utilizationEnergyOverdrawMaintenance 0
scalar OsgEarthNet.uav[25] utilizationCountMissions 54
scalar OsgEarthNet.uav[25] utilizationCountManeuversMission 435
scalar OsgEarthNet.uav[25] utilizationCountManeuversMaintenance 107
scalar OsgEarthNet.uav[25] utilizationCountChargeState 54
scalar OsgEarthNet.uav[25] utilizationCountOverdrawnAfterMission 0
scalar OsgEarthNet.uav[25] utilizationCountIdleState 54
scalar OsgEarthNet.uav[25] utilizationFail 0
scalar OsgEarthNet.uav[25] simulationTime 259200
scalar OsgEarthNet.uav[26] utilizationSecMission 58.290267253621
scalar OsgEarthNet.uav[26] utilizationSecMaintenance 296.48347336566
scalar OsgEarthNet.uav[26] utilizationSecCharge 1920
scalar OsgEarthNet.uav[26] utilizationSecIdle 256925.22525938
scalar OsgEarthNet.uav[26] utilizationEnergyMission 263.65451049805
scalar OsgEarthNet.uav[26] utilizationEnergyMaintenance 1330.2778129578
scalar OsgEarthNet.uav[26] utilizationEnergyCharge 1593.9372558594
scalar OsgEarthNet.uav[26] utilizationEnergyOverdrawMission 0
scalar OsgEarthNet.uav[26] utilizationEnergyOverdrawMaintenance 0
scalar OsgEarthNet.uav[26] utilizationCountMissions 1
scalar OsgEarthNet.uav[26] utilizationCountManeuversMission 1
scalar OsgEarthNet.uav[26] utilizationCountManeuversMaintenance 2
scalar OsgEarthNet.uav[26] utilizationCountChargeState 1
scalar OsgEarthNet.uav[26] utilizationCountOverdrawnAfterMission 0
scalar OsgEarthNet.uav[26] utilizationCountIdleState 2
scalar OsgEarthNet.uav[26] utilizationFail 0
scalar OsgEarthNet.uav[26] simulationTime 259200
scalar OsgEarthNet.uav[27] utilizationSecMission 18538.081854551
scalar OsgEarthNet.uav[27] utilizationSecMaintenance 12658.848074559
scalar OsgEarthNet.uav[27] utilizationSecCharge 125295.43080764
scalar OsgEarthNet.uav[27] utilizationSecIdle 102707.63826325
scalar OsgEarthNet.uav[27] utilizationEnergyMission 85025.163459778
scalar OsgEarthNet.uav[27] utilizationEnergyMaintenance 58926.437824249
scalar OsgEarthNet.uav[27] utilizationEnergyCharge 143685.26342773
scalar OsgEarthNet.uav[27] utilizationEnergyOverdrawMission 0
scalar OsgEarthNet.uav[27] utilizationEnergyOverdrawMaintenance 0
scalar OsgEarthNet.uav[27] utilizationCountMissions 43
scalar OsgEarthNet.uav[27] utilizationCountManeuversMission 309
scalar OsgEarthNet.uav[27] utilizationCountManeuversMaintenance 86
scalar OsgEarthNet.uav[27] utilizationCountChargeState 43
scalar OsgEarthNet.uav[27] utilizationCountOverdrawnAfterMission 0
scalar OsgEarthNet.uav[27] utilizationCountIdleState 43
scalar OsgEarthNet.uav[27] utilizationFail 0
scalar OsgEarthNet.uav[27] simulationTime 259200
scalar OsgEarthNet.uav[28] utilizationSecMission 15202.499704365
scalar OsgEarthNet.uav[28] utilizationSecMaintenance 5264.5022063791
scalar OsgEarthNet.uav[28] utilizationSecCharge 77578.98901043
scalar OsgEarthNet.uav[28] utilizationSecIdle 161154.00807883
scalar OsgEarthNet.uav[28] utilizationEnergyMission 69268.907020569
scalar OsgEarthNet.uav[28] utilizationEnergyMaintenance 24340.475246429
scalar OsgEarthNet.uav[28] utilizationEnergyCharge 94003.543457031
scalar OsgEarthNet.uav[28] utilizationEnergyOverdrawMission 0
scalar OsgEarthNet.uav[28] utilizationEnergyOverdrawMaintenance 0
scalar OsgEarthNet.uav[28] utilizationCountMissions 24
scalar OsgEarthNet.uav[28] utilizationCountManeuversMission 247
scalar OsgEarthNet.uav[28] utilizationCountManeuversMaintenance 48
scalar OsgEarthNet.uav[28] utilizationCountChargeState 24
scalar OsgEarthNet.uav[28] utilizationCountOverdrawnAfterMission 0
scalar OsgEarthNet.uav[28] utilizationCountIdleState 24
scalar OsgEarthNet.uav[28] utilizationFail 0
scalar OsgEarthNet.uav[28] simulationTime 259200
scalar OsgEarthNet.uav[29] utilizationSecMission 23784.840559519
scalar OsgEarthNet.uav[29] utilizationSecMaintenance 13145.643412218
scalar OsgEarthNet.uav[29] utilizationSecCharge 144711.46248975
scalar OsgEarthNet.uav[29] utilizationSecIdle 77558.052538512
scalar OsgEarthNet.uav[29] utilizationEnergyMission 111121.95425415
scalar OsgEarthNet.uav[29] utilizationEnergyMaintenance 61656.013385773
scalar OsgEarthNet.uav[29] utilizationEnergyCharge 172081.65136719
scalar OsgEarthNet.uav[29] utilizationEnergyOverdrawMission 0
scalar OsgEarthNet.uav[29] utilizationEnergyOverdrawMaintenance 0
scalar OsgEarthNet.uav[29] utilizationCountMissions 46
scalar OsgEarthNet.uav[29] utilizationCountManeuversMission 392
scalar OsgEarthNet.uav[29] utilizationCountManeuversMaintenance 92
scalar OsgEarthNet.uav[29] utilizationCountChargeState 46
scalar OsgEarthNet.uav[29] utilizationCountOverdrawnAfterMission 0
scalar OsgEarthNet.uav[29] utilizationCountIdleState 46
scalar OsgEarthNet.uav[29] utilizationFail 0
scalar OsgEarthNet.uav[29] simulationTime 259200
scalar OsgEarthNet.uav[30] utilizationSecMission 27585.464702886
scalar OsgEarthNet.uav[30] utilizationSecMaintenance 15047.185428638
scalar OsgEarthNet.uav[30] utilizationSecCharge 165811.17480219
scalar OsgEarthNet.uav[30] utilizationSecIdle 50756.174066282
scalar OsgEarthNet.uav[30] utilizationEnergyMission 128338.8007431
scalar OsgEarthNet.uav[30] utilizationEnergyMaintenance 70371.038246155
scalar OsgEarthNet.uav[30] utilizationEnergyCharge 197807.03466797
scalar OsgEarthNet.uav[30] utilizationEnergyOverdrawMission 0
scalar OsgEarthNet.uav[30] utilizationEnergyOverdrawMaintenance 0
scalar OsgEarthNet.uav[30] utilizationCountMissions 52
scalar OsgEarthNet.uav[30] utilizationCountManeuversMission 448
scalar OsgEarthNet.uav[30] utilizationCountManeuversMaintenance 104
scalar OsgEarthNet.uav[30] utilizationCountChargeState 52
scalar OsgEarthNet.uav[30] utilizationCountOverdrawnAfterMission 0
scalar OsgEarthNet.uav[30] utilizationCountIdleState 52
scalar OsgEarthNet.uav[30] utilizationFail 0
scalar OsgEarthNet.uav[30] simulationTime 259200
scalar OsgEarthNet.uav[31] utilizationSecMission 23.329233930829
scalar OsgEarthNet.uav[31] utilizationSecMaintenance 636.50021886036
scalar OsgEarthNet.uav[31] utilizationSecCharge 2770
scalar OsgEarthNet.uav[31] utilizationSecIdle 255770.16954721
scalar OsgEarthNet.uav[31] utilizationEnergyMission 54.088024139403
scalar OsgEarthNet.uav[31] utilizationEnergyMaintenance 2984.3292160034
scalar OsgEarthNet.uav[31] utilizationEnergyCharge 3038.421875
scalar OsgEarthNet.uav[31] utilizationEnergyOverdrawMission 0
scalar OsgEarthNet.uav[31] utilizationEnergyOverdrawMaintenance 0
scalar OsgEarthNet.uav[31] utilizationCountMissions 1
scalar OsgEarthNet.uav[31] utilizationCountManeuversMission 1
scalar OsgEarthNet.uav[31] utilizationCountManeuversMaintenance 2
scalar OsgEarthNet.uav[31] utilizationCountChargeState 1
scalar OsgEarthNet.uav[31] utilizationCountOverdrawnAfterMission 0
scalar OsgEarthNet.uav[31] utilizationCountIdleState 2
scalar OsgEarthNet.uav[31] utilizationFail 0
scalar OsgEarthNet.uav[31] simulationTime 259200
scalar OsgEarthNet.uav[32] utilizationSecMission 19811.291801891
scalar OsgEarthNet.uav[32] utilizationSecMaintenance 10911.641422411
scalar OsgEarthNet.uav[32] utilizationSecCharge 118190
scalar OsgEarthNet.uav[32] utilizationSecIdle 110287.0657757
scalar OsgEarthNet.uav[32] utilizationEnergyMission 90348.661946516
scalar OsgEarthNet.uav[32] utilizationEnergyMaintenance 51454.555088043
scalar OsgEarthNet.uav[32] utilizationEnergyCharge 139009.84301758
scalar OsgEarthNet.uav[32] utilizationEnergyOverdrawMission 0
scalar OsgEarthNet.uav[32] utilizationEnergyOverdrawMaintenance 0
scalar OsgEarthNet.uav[32] utilizationCountMissions 38
scalar OsgEarthNet.uav[32] utilizationCountManeuversMission 316
scalar OsgEarthNet.uav[32] utilizationCountManeuversMaintenance 77
scalar OsgEarthNet.uav[32] utilizationCountChargeState 38
scalar OsgEarthNet.uav[32] utilizationCountOverdrawnAfterMission 0
scalar OsgEarthNet.uav[32] utilizationCountIdleState 39
scalar OsgEarthNet.uav[32] utilizationFail 0
scalar OsgEarthNet.uav[32] simulationTime 259200
scalar OsgEarthNet.uav[33] utilizationSecMission 24273.410910712
scalar OsgEarthNet.uav[33] utilizationSecMaintenance 15460.90776076
scalar OsgEarthNet.uav[33] utilizationSecCharge 157038.88010484
scalar OsgEarthNet.uav[33] utilizationSecIdle 62426.800223692
scalar OsgEarthNet.uav[33] utilizationEnergyMission 111574.97219086
scalar OsgEarthNet.uav[33] utilizationEnergyMaintenance 72719.003917694
scalar OsgEarthNet.uav[33] utilizationEnergyCharge 184237.52612305
scalar OsgEarthNet.uav[33] utilizationEnergyOverdrawMission 0
scalar OsgEarthNet.uav[33] utilizationEnergyOverdrawMaintenance 0
scalar OsgEarthNet.uav[33] utilizationCountMissions 51
scalar OsgEarthNet.uav[33] utilizationCountManeuversMission 399
scalar OsgEarthNet.uav[33] utilizationCountManeuversMaintenance 102
scalar OsgEarthNet.uav[33] utilizationCountChargeState 51
scalar OsgEarthNet.uav[33] utilizationCountOverdrawnAfterMission 0
scalar OsgEarthNet.uav[33] utilizationCountIdleState 51
scalar OsgEarthNet.uav[33] utilizationFail 0
scalar OsgEarthNet.uav[33] simulationTime 259200
scalar OsgEarthNet.uav[34] utilizationSecMission 16738.165533832
scalar OsgEarthNet.uav[34] utilizationSecMaintenance 12292.21397034
scalar OsgEarthNet.uav[34] utilizationSecCharge 116320
scalar OsgEarthNet.uav[34] utilizationSecIdle 113849.61949583
scalar OsgEarthNet.uav[34] utilizationEnergyMission 77536.512320512
scalar OsgEarthNet.uav[34] utilizationEnergyMaintenance 58276.929729462
scalar OsgEarthNet.uav[34] utilizationEnergyCharge 133834.86425781
scalar OsgEarthNet.uav[34] utilizationEnergyOverdrawMission 0
scalar OsgEarthNet.uav[34] utilizationEnergyOverdrawMaintenance 0
scalar OsgEarthNet.uav[34] utilizationCountMissions 39
scalar OsgEarthNet.uav[34] utilizationCountManeuversMission 277
scalar OsgEarthNet.uav[34] utilizationCountManeuversMaintenance 79
scalar OsgEarthNet.uav[34] utilizationCountChargeState 39
scalar OsgEarthNet.uav[34] utilizationCountOverdrawnAfterMission 0
scalar OsgEarthNet.uav[34] utilizationCountIdleState 40
scalar OsgEarthNet.uav[34] utilizationFail 0
scalar OsgEarthNet.uav[34] simulationTime 259200
scalar OsgEarthNet.uav[35] utilizationSecMission 694.00169469977
scalar OsgEarthNet.uav[35] utilizationSecMaintenance 229.48898285212
scalar OsgEarthNet.uav[35] utilizationSecCharge 3580
scalar OsgEarthNet.uav[35] utilizationSecIdle 254696.50832245
scalar OsgEarthNet.uav[35] utilizationEnergyMission 3334.395324707
scalar OsgEarthNet.uav[35] utilizationEnergyMaintenance 1214.9233016968
scalar OsgEarthNet.uav[35] utilizationEnergyCharge 4533.9306640625
scalar OsgEarthNet.uav[35] utilizationEnergyOverdrawMission 0
scalar OsgEarthNet.uav[35] utilizationEnergyOverdrawMaintenance 0
scalar OsgEarthNet.uav[35] utilizationCountMissions 1
scalar OsgEarthNet.uav[35] utilizationCountManeuversMission 13
scalar OsgEarthNet.uav[35] utilizationCountManeuversMaintenance 2
scalar OsgEarthNet.uav[35] utilizationCountChargeState 1
scalar OsgEarthNet.uav[35] utilizationCountOverdrawnAfterMission 0
scalar OsgEarthNet.uav[35] utilizationCountIdleState 2
scalar OsgEarthNet.uav[35] utilizationFail 0
scalar OsgEarthNet.uav[35] simulationTime 259200
scalar OsgEarthNet.uav[36] utilizationSecMission 27080.15460224
scalar OsgEarthNet.uav[36] utilizationSecMaintenance 11957.419421187
scalar OsgEarthNet.uav[36] utilizationSecCharge 154360
scalar OsgEarthNet.uav[36] utilizationSecIdle 65802.424976572
scalar OsgEarthNet.uav[36] utilizationEnergyMission 124931.87848663
scalar OsgEarthNet.uav[36] utilizationEnergyMaintenance 57795.291885376
scalar OsgEarthNet.uav[36] utilizationEnergyCharge 182390.69018555
scalar OsgEarthNet.uav[36] utilizationEnergyOverdrawMission 0
scalar OsgEarthNet.uav[36] utilizationEnergyOverdrawMaintenance 0
scalar OsgEarthNet.uav[36] utilizationCountMissions 49
scalar OsgEarthNet.uav[36] utilizationCountManeuversMission 420
scalar OsgEarthNet.uav[36] utilizationCountManeuversMaintenance 98
scalar OsgEarthNet.uav[36] utilizationCountChargeState 49
scalar OsgEarthNet.uav[36] utilizationCountOverdrawnAfterMission 0
scalar OsgEarthNet.uav[36] utilizationCountIdleState 50
scalar OsgEarthNet.uav[36] utilizationFail 0
scalar OsgEarthNet.uav[36] simulationTime 259200
scalar OsgEarthNet.uav[37] utilizationSecMission 22652.29083205
scalar OsgEarthNet.uav[37] utilizationSecMaintenance 13311.06198018
scalar OsgEarthNet.uav[37] utilizationSecCharge 141134.32249963
scalar OsgEarthNet.uav[37] utilizationSecIdle 82102.323688143
scalar OsgEarthNet.uav[37] utilizationEnergyMission 105622.10302734
scalar OsgEarthNet.uav[37] utilizationEnergyMaintenance 62904.097278595
scalar OsgEarthNet.uav[37] utilizationEnergyCharge 166629.43408203
scalar OsgEarthNet.uav[37] utilizationEnergyOverdrawMission 0
scalar OsgEarthNet.uav[37] utilizationEnergyOverdrawMaintenance 0
scalar OsgEarthNet.uav[37] utilizationCountMissions 46
scalar OsgEarthNet.uav[37] utilizationCountManeuversMission 374
scalar OsgEarthNet.uav[37] utilizationCountManeuversMaintenance 92
scalar OsgEarthNet.uav[37] utilizationCountChargeState 46
scalar OsgEarthNet.uav[37] utilizationCountOverdrawnAfterMission 0
scalar OsgEarthNet.uav[37] utilizationCountIdleState 46
scalar OsgEarthNet.uav[37] utilizationFail 0
scalar OsgEarthNet.uav[37] simulationTime 259200
scalar OsgEarthNet.uav[38] utilizationSecMission 24879.226575432
scalar OsgEarthNet.uav[38] utilizationSecMaintenance 12968.664199724
scalar OsgEarthNet.uav[38] utilizationSecCharge 150955.45392285
scalar OsgEarthNet.uav[38] utilizationSecIdle 70396.654301995
scalar OsgEarthNet.uav[38] utilizationEnergyMission 114772.6714859
scalar OsgEarthNet.uav[38] utilizationEnergyMaintenance 61490.509693146
scalar OsgEarthNet.uav[38] utilizationEnergyCharge 175363.99584961
scalar OsgEarthNet.uav[38] utilizationEnergyOverdrawMission 0
scalar OsgEarthNet.uav[38] utilizationEnergyOverdrawMaintenance 0
scalar OsgEarthNet.uav[38] utilizationCountMissions 50
scalar OsgEarthNet.uav[38] utilizationCountManeuversMission 416
scalar OsgEarthNet.uav[38] utilizationCountManeuversMaintenance 100
scalar OsgEarthNet.uav[38] utilizationCountChargeState 50
scalar OsgEarthNet.uav[38] utilizationCountOverdrawnAfterMission 0
scalar OsgEarthNet.uav[38] utilizationCountIdleState 50
scalar OsgEarthNet.uav[38] utilizationFail 0
scalar OsgEarthNet.uav[38] simulationTime 259200
scalar OsgEarthNet.uav[39] utilizationSecMission 3113.8519720658
scalar OsgEarthNet.uav[39] utilizationSecMaintenance 2361.8763145398
scalar OsgEarthNet.uav[39] utilizationSecCharge 21870
scalar OsgEarthNet.uav[39] utilizationSecIdle 231854.27071339
scalar OsgEarthNet.uav[39] utilizationEnergyMission 14338.581825256
scalar OsgEarthNet.uav[39] utilizationEnergyMaintenance 11318.186313629
scalar OsgEarthNet.uav[39] utilizationEnergyCharge 25747.786621094
scalar OsgEarthNet.uav[39] utilizationEnergyOverdrawMission 0
scalar OsgEarthNet.uav[39] utilizationEnergyOverdrawMaintenance 0
scalar OsgEarthNet.uav[39] utilizationCountMissions 7
scalar OsgEarthNet.uav[39] utilizationCountManeuversMission 52
scalar OsgEarthNet.uav[39] utilizationCountManeuversMaintenance 14
scalar OsgEarthNet.uav[39] utilizationCountChargeState 7
scalar OsgEarthNet.uav[39] utilizationCountOverdrawnAfterMission 0
scalar OsgEarthNet.uav[39] utilizationCountIdleState 8
scalar OsgEarthNet.uav[39] utilizationFail 0
scalar OsgEarthNet.uav[39] simulationTime 259200
scalar OsgEarthNet.uav[40] utilizationSecMission 443.5870541303
scalar OsgEarthNet.uav[40] utilizationSecMaintenance 425.80795651079
scalar OsgEarthNet.uav[40] utilizationSecCharge 3410
scalar OsgEarthNet.uav[40] utilizationSecIdle 254920.60398936
scalar OsgEarthNet.uav[40] utilizationEnergyMission 2001.1778259277
scalar OsgEarthNet.uav[40] utilizationEnergyMaintenance 2042.9348258972
scalar OsgEarthNet.uav[40] utilizationEnergyCharge 4174.6923828125
scalar OsgEarthNet.uav[40] utilizationEnergyOverdrawMission 0
scalar OsgEarthNet.uav[40] utilizationEnergyOverdrawMaintenance 0
scalar OsgEarthNet.uav[40] utilizationCountMissions 1
scalar OsgEarthNet.uav[40] utilizationCountManeuversMission 7
scalar OsgEarthNet.uav[40] utilizationCountManeuversMaintenance 2
scalar OsgEarthNet.uav[40] utilizationCountChargeState 1
scalar OsgEarthNet.uav[40] utilizationCountOverdrawnAfterMission 0
scalar OsgEarthNet.uav[40] utilizationCountIdleState 2
scalar OsgEarthNet.uav[40] utilizationFail 0
scalar OsgEarthNet.uav[40] simulationTime 259200
scalar OsgEarthNet.uav[41] utilizationSecMission 23.329233930829
scalar OsgEarthNet.uav[41] utilizationSecMaintenance 636.50021886036
scalar OsgEarthNet.uav[41] utilizationSecCharge 2810
scalar OsgEarthNet.uav[41] utilizationSecIdle 255730.16954721
scalar OsgEarthNet.uav[41] utilizationEnergyMission 44.455463409423
scalar OsgEarthNet.uav[41] utilizationEnergyMaintenance 3104.7704696655
scalar OsgEarthNet.uav[41] utilizationEnergyCharge 3149.2282714844
scalar OsgEarthNet.uav[41] utilizationEnergyOverdrawMission 0
scalar OsgEarthNet.uav[41] utilizationEnergyOverdrawMaintenance 0
scalar OsgEarthNet.uav[41] utilizationCountMissions 1
scalar OsgEarthNet.uav[41] utilizationCountManeuversMission 1
scalar OsgEarthNet.uav[41] utilizationCountManeuversMaintenance 2
scalar OsgEarthNet.uav[41] utilizationCountChargeState 1
scalar OsgEarthNet.uav[41] utilizationCountOverdrawnAfterMission 0
scalar OsgEarthNet.uav[41] utilizationCountIdleState 2
scalar OsgEarthNet.uav[41] utilizationFail 0
scalar OsgEarthNet.uav[41] simulationTime 259200
scalar OsgEarthNet.uav[42] utilizationSecMission 22730.008133893
scalar OsgEarthNet.uav[42] utilizationSecMaintenance 12650.071004
scalar OsgEarthNet.uav[42] utilizationSecCharge 135629.91022054
scalar OsgEarthNet.uav[42] utilizationSecIdle 88190.00964157
scalar OsgEarthNet.uav[42] utilizationEnergyMission 104956.1360321
scalar OsgEarthNet.uav[42] utilizationEnergyMaintenance 59506.549983978
scalar OsgEarthNet.uav[42] utilizationEnergyCharge 160550.69494629
scalar OsgEarthNet.uav[42] utilizationEnergyOverdrawMission 0
scalar OsgEarthNet.uav[42] utilizationEnergyOverdrawMaintenance 0
scalar OsgEarthNet.uav[42] utilizationCountMissions 44
scalar OsgEarthNet.uav[42] utilizationCountManeuversMission 366
scalar OsgEarthNet.uav[42] utilizationCountManeuversMaintenance 88
scalar OsgEarthNet.uav[42] utilizationCountChargeState 44
scalar OsgEarthNet.uav[42] utilizationCountOverdrawnAfterMission 0
scalar OsgEarthNet.uav[42] utilizationCountIdleState 44
scalar OsgEarthNet.uav[42] utilizationFail 0
scalar OsgEarthNet.uav[42] simulationTime 259200
scalar OsgEarthNet.uav[43] utilizationSecMission 760.62515258028
scalar OsgEarthNet.uav[43] utilizationSecMaintenance 245.74410321072
scalar OsgEarthNet.uav[43] utilizationSecCharge 3600
scalar OsgEarthNet.uav[43] utilizationSecIdle 254593.62974421
scalar OsgEarthNet.uav[43] utilizationEnergyMission 3471.4598388672
scalar OsgEarthNet.uav[43] utilizationEnergyMaintenance 1010.0747795105
scalar OsgEarthNet.uav[43] utilizationEnergyCharge 4481.5380859375
scalar OsgEarthNet.uav[43] utilizationEnergyOverdrawMission 0
scalar OsgEarthNet.uav[43] utilizationEnergyOverdrawMaintenance 0
scalar OsgEarthNet.uav[43] utilizationCountMissions 1
scalar OsgEarthNet.uav[43] utilizationCountManeuversMission 12
scalar OsgEarthNet.uav[43] utilizationCountManeuversMaintenance 2
scalar OsgEarthNet.uav[43] utilizationCountChargeState 1
scalar OsgEarthNet.uav[43] utilizationCountOverdrawnAfterMission 0
scalar OsgEarthNet.uav[43] utilizationCountIdleState 2
scalar OsgEarthNet.uav[43] utilizationFail 0
scalar OsgEarthNet.uav[43] simulationTime 259200
scalar OsgEarthNet.uav[44] utilizationSecMission 301.50602773369
scalar OsgEarthNet.uav[44] utilizationSecMaintenance 206.19350838146
scalar OsgEarthNet.uav[44] utilizationSecCharge 2380
scalar OsgEarthNet.uav[44] utilizationSecIdle 256312.29946388
scalar OsgEarthNet.uav[44] utilizationEnergyMission 1345.3978347778
scalar OsgEarthNet.uav[44] utilizationEnergyMaintenance 1032.4111251831
scalar OsgEarthNet.uav[44] utilizationEnergyCharge 2440.6799316406
scalar OsgEarthNet.uav[44] utilizationEnergyOverdrawMission 0
scalar OsgEarthNet.uav[44] utilizationEnergyOverdrawMaintenance 0
scalar OsgEarthNet.uav[44] utilizationCountMissions 1
scalar OsgEarthNet.uav[44] utilizationCountManeuversMission 6
scalar OsgEarthNet.uav[44] utilizationCountManeuversMaintenance 2
scalar OsgEarthNet.uav[44] utilizationCountChargeState 1
scalar OsgEarthNet.uav[44] utilizationCountOverdrawnAfterMission 0
scalar OsgEarthNet.uav[44] utilizationCountIdleState 2
scalar OsgEarthNet.uav[44] utilizationFail 0
scalar OsgEarthNet.uav[44] simulationTime 259200
scalar OsgEarthNet.uav[45] utilizationSecMission 29163.52587037
scalar OsgEarthNet.uav[45] utilizationSecMaintenance 13385.103940528
scalar OsgEarthNet.uav[45] utilizationSecCharge 165849.3691891
scalar OsgEarthNet.uav[45] utilizationSecIdle 50802
scalar OsgEarthNet.uav[45] utilizationEnergyMission 133512.06374019
scalar OsgEarthNet.uav[45] utilizationEnergyMaintenance 63658.09728241
scalar OsgEarthNet.uav[45] utilizationEnergyCharge 195374.28857422
scalar OsgEarthNet.uav[45] utilizationEnergyOverdrawMission 0
scalar OsgEarthNet.uav[45] utilizationEnergyOverdrawMaintenance 0
scalar OsgEarthNet.uav[45] utilizationCountMissions 54
scalar OsgEarthNet.uav[45] utilizationCountManeuversMission 463
scalar OsgEarthNet.uav[45] utilizationCountManeuversMaintenance 107
scalar OsgEarthNet.uav[45] utilizationCountChargeState 54
scalar OsgEarthNet.uav[45] utilizationCountOverdrawnAfterMission 0
scalar OsgEarthNet.uav[45] utilizationCountIdleState 54
scalar OsgEarthNet.uav[45] utilizationFail 0
scalar OsgEarthNet.uav[45] simulationTime 259200
scalar OsgEarthNet.uav[46] utilizationSecMission 25218.30004639
scalar OsgEarthNet.uav[46] utilizationSecMaintenance 13599.976283997
scalar OsgEarthNet.uav[46] utilizationSecCharge 149479.37906837
scalar OsgEarthNet.uav[46] utilizationSecIdle 70902.343601248
scalar OsgEarthNet.uav[46] utilizationEnergyMission 114444.98369598
scalar OsgEarthNet.uav[46] utilizationEnergyMaintenance 64722.707260132
scalar OsgEarthNet.uav[46] utilizationEnergyCharge 176032.2923584
scalar OsgEarthNet.uav[46] utilizationEnergyOverdrawMission 0
scalar OsgEarthNet.uav[46] utilizationEnergyOverdrawMaintenance 0
scalar OsgEarthNet.uav[46] utilizationCountMissions 49
scalar OsgEarthNet.uav[46] utilizationCountManeuversMission 413
scalar OsgEarthNet.uav[46] utilizationCountManeuversMaintenance 98
scalar OsgEarthNet.uav[46] utilizationCountChargeState 49
scalar OsgEarthNet.uav[46] utilizationCountOverdrawnAfterMission 0
scalar OsgEarthNet.uav[46] utilizationCountIdleState 49
scalar OsgEarthNet.uav[46] utilizationFail 0
scalar OsgEarthNet.uav[46] simulationTime 259200
scalar OsgEarthNet.uav[47] utilizationSecMission 13136.137196287
scalar OsgEarthNet.uav[47] utilizationSecMaintenance 6676.1123664157
scalar OsgEarthNet.uav[47] utilizationSecCharge 76840
scalar OsgEarthNet.uav[47] utilizationSecIdle 162547.7494373
scalar OsgEarthNet.uav[47] utilizationEnergyMission 60374.652450562
scalar OsgEarthNet.uav[47] utilizationEnergyMaintenance 31400.251148224
scalar OsgEarthNet.uav[47] utilizationEnergyCharge 91734.559814453
scalar OsgEarthNet.uav[47] utilizationEnergyOverdrawMission 0
scalar OsgEarthNet.uav[47] utilizationEnergyOverdrawMaintenance 0
scalar OsgEarthNet.uav[47] utilizationCountMissions 24
scalar OsgEarthNet.uav[47] utilizationCountManeuversMission 213
scalar OsgEarthNet.uav[47] utilizationCountManeuversMaintenance 48
scalar OsgEarthNet.uav[47] utilizationCountChargeState 24
scalar OsgEarthNet.uav[47] utilizationCountOverdrawnAfterMission 0
scalar OsgEarthNet.uav[47] utilizationCountIdleState 25
scalar OsgEarthNet.uav[47] utilizationFail 0
scalar OsgEarthNet.uav[47] simulationTime 259200
scalar OsgEarthNet.uav[48] utilizationSecMission 27646.426318022
scalar OsgEarthNet.uav[48] utilizationSecMaintenance 13708.180952015
scalar OsgEarthNet.uav[48] utilizationSecCharge 162189.38903702
scalar OsgEarthNet.uav[48] utilizationSecIdle 55656.002692942
scalar OsgEarthNet.uav[48] utilizationEnergyMission 127067.35049438
scalar OsgEarthNet.uav[48] utilizationEnergyMaintenance 64916.262374878
scalar OsgEarthNet.uav[48] utilizationEnergyCharge 191080.70898438
scalar OsgEarthNet.uav[48] utilizationEnergyOverdrawMission 0
scalar OsgEarthNet.uav[48] utilizationEnergyOverdrawMaintenance 0
scalar OsgEarthNet.uav[48] utilizationCountMissions 53
scalar OsgEarthNet.uav[48] utilizationCountManeuversMission 440
scalar OsgEarthNet.uav[48] utilizationCountManeuversMaintenance 106
scalar OsgEarthNet.uav[48] utilizationCountChargeState 53
scalar OsgEarthNet.uav[48] utilizationCountOverdrawnAfterMission 0
scalar OsgEarthNet.uav[48] utilizationCountIdleState 53
scalar OsgEarthNet.uav[48] utilizationFail 0
scalar OsgEarthNet.uav[48] simulationTime 259200
scalar OsgEarthNet.uav[49] utilizationSecMission 643.6855834741
scalar OsgEarthNet.uav[49] utilizationSecMaintenance 176.71691540981
scalar OsgEarthNet.uav[49] utilizationSecCharge 3170
scalar OsgEarthNet.uav[49] utilizationSecIdle 255209.59650112
scalar OsgEarthNet.uav[49] utilizationEnergyMission 3001.538269043
scalar OsgEarthNet.uav[49] utilizationEnergyMaintenance 897.18752288818
scalar OsgEarthNet.uav[49] utilizationEnergyCharge 3747.4873046875
scalar OsgEarthNet.uav[49] utilizationEnergyOverdrawMission 0
scalar OsgEarthNet.uav[49] utilizationEnergyOverdrawMaintenance 0
scalar OsgEarthNet.uav[49] utilizationCountMissions 1
scalar OsgEarthNet.uav[49] utilizationCountManeuversMission 9
scalar OsgEarthNet.uav[49] utilizationCountManeuversMaintenance 2
scalar OsgEarthNet.uav[49] utilizationCountChargeState 1
scalar OsgEarthNet.uav[49] utilizationCountOverdrawnAfterMission 0
scalar OsgEarthNet.uav[49] utilizationCountIdleState 2
scalar OsgEarthNet.uav[49] utilizationFail 0
scalar OsgEarthNet.uav[49] simulationTime 259200
scalar OsgEarthNet.uav[50] utilizationSecMission 974.02741920121
scalar OsgEarthNet.uav[50] utilizationSecMaintenance 694.86201791861
scalar OsgEarthNet.uav[50] utilizationSecCharge 6390
scalar OsgEarthNet.uav[50] utilizationSecIdle 251141.10956288
scalar OsgEarthNet.uav[50] utilizationEnergyMission 4292.0499420166
scalar OsgEarthNet.uav[50] utilizationEnergyMaintenance 3252.7681655884
scalar OsgEarthNet.uav[50] utilizationEnergyCharge 7544.8186035156
scalar OsgEarthNet.uav[50] utilizationEnergyOverdrawMission 0
scalar OsgEarthNet.uav[50] utilizationEnergyOverdrawMaintenance 0
scalar OsgEarthNet.uav[50] utilizationCountMissions 2
scalar OsgEarthNet.uav[50] utilizationCountManeuversMission 15
scalar OsgEarthNet.uav[50] utilizationCountManeuversMaintenance 4
scalar OsgEarthNet.uav[50] utilizationCountChargeState 2
scalar OsgEarthNet.uav[50] utilizationCountOverdrawnAfterMission 0
scalar OsgEarthNet.uav[50] utilizationCountIdleState 3
scalar OsgEarthNet.uav[50] utilizationFail 0
scalar OsgEarthNet.uav[50] simulationTime 259200
scalar OsgEarthNet.uav[51] utilizationSecMission 369.16643303525
scalar OsgEarthNet.uav[51] utilizationSecMaintenance 404.35423372053
scalar OsgEarthNet.uav[51] utilizationSecCharge 3090
scalar OsgEarthNet.uav[51] utilizationSecIdle 255336.47833324
scalar OsgEarthNet.uav[51] utilizationEnergyMission 1660.4748687744
scalar OsgEarthNet.uav[51] utilizationEnergyMaintenance 1963.4058952332
scalar OsgEarthNet.uav[51] utilizationEnergyCharge 3623.8823242188
scalar OsgEarthNet.uav[51] utilizationEnergyOverdrawMission 0
scalar OsgEarthNet.uav[51] utilizationEnergyOverdrawMaintenance 0
scalar OsgEarthNet.uav[51] utilizationCountMissions 1
scalar OsgEarthNet.uav[51] utilizationCountManeuversMission 6
scalar OsgEarthNet.uav[51] utilizationCountManeuversMaintenance 2
scalar OsgEarthNet.uav[51] utilizationCountChargeState 1
scalar OsgEarthNet.uav[51] utilizationCountOverdrawnAfterMission 0
scalar OsgEarthNet.uav[51] utilizationCountIdleState 2
scalar OsgEarthNet.uav[51] utilizationFail 0
scalar OsgEarthNet.uav[51] simulationTime 259200
scalar OsgEarthNet.uav[52] utilizationSecMission 887.1741082606
scalar OsgEarthNet.uav[52] utilizationSecMaintenance 125.81102573108
scalar OsgEarthNet.uav[52] utilizationSecCharge 3590
scalar OsgEarthNet.uav[52] utilizationSecIdle 254597.01386601
scalar OsgEarthNet.uav[52] utilizationEnergyMission 3893.8845825195
scalar OsgEarthNet.uav[52] utilizationEnergyMaintenance 632.575340271
scalar OsgEarthNet.uav[52] utilizationEnergyCharge 4482.6728515625
scalar OsgEarthNet.uav[52] utilizationEnergyOverdrawMission 0
scalar OsgEarthNet.uav[52] utilizationEnergyOverdrawMaintenance 0
scalar OsgEarthNet.uav[52] utilizationCountMissions 1
scalar OsgEarthNet.uav[52] utilizationCountManeuversMission 14
scalar OsgEarthNet.uav[52] utilizationCountManeuversMaintenance 2
scalar OsgEarthNet.uav[52] utilizationCountChargeState 1
scalar OsgEarthNet.uav[52] utilizationCountOverdrawnAfterMission 0
scalar OsgEarthNet.uav[52] utilizationCountIdleState 2
scalar OsgEarthNet.uav[52] utilizationFail 0
scalar OsgEarthNet.uav[52] simulationTime 259200
scalar OsgEarthNet.uav[53] utilizationSecMission 9018.0329548129
scalar OsgEarthNet.uav[53] utilizationSecMaintenance 4686.0940290349
scalar OsgEarthNet.uav[53] utilizationSecCharge 54730
scalar OsgEarthNet.uav[53] utilizationSecIdle 190765.87201615
scalar OsgEarthNet.uav[53] utilizationEnergyMission 40465.909507751
scalar OsgEarthNet.uav[53] utilizationEnergyMaintenance 22561.175197601
scalar OsgEarthNet.uav[53] utilizationEnergyCharge 63343.670898438
scalar OsgEarthNet.uav[53] utilizationEnergyOverdrawMission 0
scalar OsgEarthNet.uav[53] utilizationEnergyOverdrawMaintenance 0
scalar OsgEarthNet.uav[53] utilizationCountMissions 18
scalar OsgEarthNet.uav[53] utilizationCountManeuversMission 145
scalar OsgEarthNet.uav[53] utilizationCountManeuversMaintenance 36
scalar OsgEarthNet.uav[53] utilizationCountChargeState 18
scalar OsgEarthNet.uav[53] utilizationCountOverdrawnAfterMission 0
scalar OsgEarthNet.uav[53] utilizationCountIdleState 19
scalar OsgEarthNet.uav[53] utilizationFail 0
scalar OsgEarthNet.uav[53] simulationTime 259200
scalar OsgEarthNet.uav[54] utilizationSecMission 28620.163252935
scalar OsgEarthNet.uav[54] utilizationSecMaintenance 13857.121145577
scalar OsgEarthNet.uav[54] utilizationSecCharge 166080
scalar OsgEarthNet.uav[54] utilizationSecIdle 50642.714601488
scalar OsgEarthNet.uav[54] utilizationEnergyMission 133158.53509903
scalar OsgEarthNet.uav[54] utilizationEnergyMaintenance 65331.152202606
scalar OsgEarthNet.uav[54] utilizationEnergyCharge 198154.42895508
scalar OsgEarthNet.uav[54] utilizationEnergyOverdrawMission 0
scalar OsgEarthNet.uav[54] utilizationEnergyOverdrawMaintenance 0
scalar OsgEarthNet.uav[54] utilizationCountMissions 52
scalar OsgEarthNet.uav[54] utilizationCountManeuversMission 461
scalar OsgEarthNet.uav[54] utilizationCountManeuversMaintenance 104
scalar OsgEarthNet.uav[54] utilizationCountChargeState 52
scalar OsgEarthNet.uav[54] utilizationCountOverdrawnAfterMission 0
scalar OsgEarthNet.uav[54] utilizationCountIdleState 53
scalar OsgEarthNet.uav[54] utilizationFail 0
scalar OsgEarthNet.uav[54] simulationTime 259200
scalar OsgEarthNet.uav[55] utilizationSecMission 29681.218287056
scalar OsgEarthNet.uav[55] utilizationSecMaintenance 12754.891786014
scalar OsgEarthNet.uav[55] utilizationSecCharge 168020
scalar OsgEarthNet.uav[55] utilizationSecIdle 48743.88892693
scalar OsgEarthNet.uav[55] utilizationEnergyMission 138844.65228436
scalar OsgEarthNet.uav[55] utilizationEnergyMaintenance 60070.934776306
scalar OsgEarthNet.uav[55] utilizationEnergyCharge 197664.20556641
scalar OsgEarthNet.uav[55] utilizationEnergyOverdrawMission 0
scalar OsgEarthNet.uav[55] utilizationEnergyOverdrawMaintenance 0
scalar OsgEarthNet.uav[55] utilizationCountMissions 54
scalar OsgEarthNet.uav[55] utilizationCountManeuversMission 497
scalar OsgEarthNet.uav[55] utilizationCountManeuversMaintenance 109
scalar OsgEarthNet.uav[55] utilizationCountChargeState 54
scalar OsgEarthNet.uav[55] utilizationCountOverdrawnAfterMission 0
scalar OsgEarthNet.uav[55] utilizationCountIdleState 55
scalar OsgEarthNet.uav[55] utilizationFail 0
scalar OsgEarthNet.uav[55] simulationTime 259200
scalar OsgEarthNet.uav[56] utilizationSecMission 1500.4094549565
scalar OsgEarthNet.uav[56] utilizationSecMaintenance 418.09649177347
scalar OsgEarthNet.uav[56] utilizationSecCharge 7260
scalar OsgEarthNet.uav[56] utilizationSecIdle 250021.49305327
scalar OsgEarthNet.uav[56] utilizationEnergyMission 6862.5945892334
scalar OsgEarthNet.uav[56] utilizationEnergyMaintenance 2240.5877304077
scalar OsgEarthNet.uav[56] utilizationEnergyCharge 9149.1928710938
scalar OsgEarthNet.uav[56] utilizationEnergyOverdrawMission 0
scalar OsgEarthNet.uav[56] utilizationEnergyOverdrawMaintenance 0
scalar OsgEarthNet.uav[56] utilizationCountMissions 2
scalar OsgEarthNet.uav[56] utilizationCountManeuversMission 22
scalar OsgEarthNet.uav[56] utilizationCountManeuversMaintenance 4
scalar OsgEarthNet.uav[56] utilizationCountChargeState 2
scalar OsgEarthNet.uav[56] utilizationCountOverdrawnAfterMission 0
scalar OsgEarthNet.uav[56] utilizationCountIdleState 3
scalar OsgEarthNet.uav[56] utilizationFail 0
scalar OsgEarthNet.uav[56] simulationTime 259200
scalar OsgEarthNet.uav[57] utilizationSecMission 26055.118480965
scalar OsgEarthNet.uav[57] utilizationSecMaintenance 14832.909608346
scalar OsgEarthNet.uav[57] utilizationSecCharge 159877.26521165
scalar OsgEarthNet.uav[57] utilizationSecIdle 58434.705699036
scalar OsgEarthNet.uav[57] utilizationEnergyMission 120675.61105347
scalar OsgEarthNet.uav[57] utilizationEnergyMaintenance 70497.067367554
scalar OsgEarthNet.uav[57] utilizationEnergyCharge 190288.76025391
scalar OsgEarthNet.uav[57] utilizationEnergyOverdrawMission 0
scalar OsgEarthNet.uav[57] utilizationEnergyOverdrawMaintenance 0
scalar OsgEarthNet.uav[57] utilizationCountMissions 51
scalar OsgEarthNet.uav[57] utilizationCountManeuversMission 409
scalar OsgEarthNet.uav[57] utilizationCountManeuversMaintenance 102
scalar OsgEarthNet.uav[57] utilizationCountChargeState 51
scalar OsgEarthNet.uav[57] utilizationCountOverdrawnAfterMission 0
scalar OsgEarthNet.uav[57] utilizationCountIdleState 51
scalar OsgEarthNet.uav[57] utilizationFail 0
scalar OsgEarthNet.uav[57] simulationTime 259200
scalar OsgEarthNet.uav[58] utilizationSecMission 443.5870541303
scalar OsgEarthNet.uav[58] utilizationSecMaintenance 125.81102573108
scalar OsgEarthNet.uav[58] utilizationSecCharge 2480
scalar OsgEarthNet.uav[58] utilizationSecIdle 256150.60092014
scalar OsgEarthNet.uav[58] utilizationEnergyMission 1874.0389709473
scalar OsgEarthNet.uav[58] utilizationEnergyMaintenance 523.15537261963
scalar OsgEarthNet.uav[58] utilizationEnergyCharge 2588.0434570312
scalar OsgEarthNet.uav[58] utilizationEnergyOverdrawMission 0
scalar OsgEarthNet.uav[58] utilizationEnergyOverdrawMaintenance 0
scalar OsgEarthNet.uav[58] utilizationCountMissions 1
scalar OsgEarthNet.uav[58] utilizationCountManeuversMission 7
scalar OsgEarthNet.uav[58] utilizationCountManeuversMaintenance 2
scalar OsgEarthNet.uav[58] utilizationCountChargeState 1
scalar OsgEarthNet.uav[58] utilizationCountOverdrawnAfterMission 0
scalar OsgEarthNet.uav[58] utilizationCountIdleState 2
scalar OsgEarthNet.uav[58] utilizationFail 0
scalar OsgEarthNet.uav[58] simulationTime 259200
scalar OsgEarthNet.uav[59] utilizationSecMission 750.20472747826
scalar OsgEarthNet.uav[59] utilizationSecMaintenance 261.68051383311
scalar OsgEarthNet.uav[59] utilizationSecCharge 3660
scalar OsgEarthNet.uav[59] utilizationSecIdle 254528.11375869
scalar OsgEarthNet.uav[59] utilizationEnergyMission 3341.045211792
scalar OsgEarthNet.uav[59] utilizationEnergyMaintenance 1280.8554191589
scalar OsgEarthNet.uav[59] utilizationEnergyCharge 4621.8999023438
scalar OsgEarthNet.uav[59] utilizationEnergyOverdrawMission 0
scalar OsgEarthNet.uav[59] utilizationEnergyOverdrawMaintenance 0
scalar OsgEarthNet.uav[59] utilizationCountMissions 1
scalar OsgEarthNet.uav[59] utilizationCountManeuversMission 11
scalar OsgEarthNet.uav[59] utilizationCountManeuversMaintenance 2
scalar OsgEarthNet.uav[59] utilizationCountChargeState 1
scalar OsgEarthNet.uav[59] utilizationCountOverdrawnAfterMission 0
scalar OsgEarthNet.uav[59] utilizationCountIdleState 2
scalar OsgEarthNet.uav[59] utilizationFail 0
scalar OsgEarthNet.uav[59] simulationTime 259200
scalar OsgEarthNet.uav[60] utilizationSecMission 179.21601502944
scalar OsgEarthNet.uav[60] utilizationSecMaintenance 354.43405905663
scalar OsgEarthNet.uav[60] utilizationSecCharge 2460
scalar OsgEarthNet.uav[60] utilizationSecIdle 256206.34892591
scalar OsgEarthNet.uav[60] utilizationEnergyMission 810.603515625
scalar OsgEarthNet.uav[60] utilizationEnergyMaintenance 1767.5937423706
scalar OsgEarthNet.uav[60] utilizationEnergyCharge 2578.1994628906
scalar OsgEarthNet.uav[60] utilizationEnergyOverdrawMission 0
scalar OsgEarthNet.uav[60] utilizationEnergyOverdrawMaintenance 0
scalar OsgEarthNet.uav[60] utilizationCountMissions 1
scalar OsgEarthNet.uav[60] utilizationCountManeuversMission 3
scalar OsgEarthNet.uav[60] utilizationCountManeuversMaintenance 2
scalar OsgEarthNet.uav[60] utilizationCountChargeState 1
scalar OsgEarthNet.uav[60] utilizationCountOverdrawnAfterMission 0
scalar OsgEarthNet.uav[60] utilizationCountIdleState 2
scalar OsgEarthNet.uav[60] utilizationFail 0
scalar OsgEarthNet.uav[60] simulationTime 259200
scalar OsgEarthNet.uav[61] utilizationSecMission 27188.176081891
scalar OsgEarthNet.uav[61] utilizationSecMaintenance 14292.813339182
scalar OsgEarthNet.uav[61] utilizationSecCharge 162421.6934971
scalar OsgEarthNet.uav[61] utilizationSecIdle 55297.316081831
scalar OsgEarthNet.uav[61] utilizationEnergyMission 125030.33050537
scalar OsgEarthNet.uav[61] utilizationEnergyMaintenance 66605.181732178
scalar OsgEarthNet.uav[61] utilizationEnergyCharge 191511.56054688
scalar OsgEarthNet.uav[61] utilizationEnergyOverdrawMission 0
scalar OsgEarthNet.uav[61] utilizationEnergyOverdrawMaintenance 0
scalar OsgEarthNet.uav[61] utilizationCountMissions 52
scalar OsgEarthNet.uav[61] utilizationCountManeuversMission 448
scalar OsgEarthNet.uav[61] utilizationCountManeuversMaintenance 104
scalar OsgEarthNet.uav[61] utilizationCountChargeState 52
scalar OsgEarthNet.uav[61] utilizationCountOverdrawnAfterMission 0
scalar OsgEarthNet.uav[61] utilizationCountIdleState 52
scalar OsgEarthNet.uav[61] utilizationFail 0
scalar OsgEarthNet.uav[61] simulationTime 259200
scalar OsgEarthNet.uav[62] utilizationSecMission 22632.350935918
scalar OsgEarthNet.uav[62] utilizationSecMaintenance 11744.541927286
scalar OsgEarthNet.uav[62] utilizationSecCharge 133398.18753294
scalar OsgEarthNet.uav[62] utilizationSecIdle 91424.918603858
scalar OsgEarthNet.uav[62] utilizationEnergyMission 104440.97852325
scalar OsgEarthNet.uav[62] utilizationEnergyMaintenance 55275.875782013
scalar OsgEarthNet.uav[62] utilizationEnergyCharge 156644.46520996
scalar OsgEarthNet.uav[62] utilizationEnergyOverdrawMission 0
scalar OsgEarthNet.uav[62] utilizationEnergyOverdrawMaintenance 0
scalar OsgEarthNet.uav[62] utilizationCountMissions 44
scalar OsgEarthNet.uav[62] utilizationCountManeuversMission 369
scalar OsgEarthNet.uav[62] utilizationCountManeuversMaintenance 88
scalar OsgEarthNet.uav[62] utilizationCountChargeState 44
scalar OsgEarthNet.uav[62] utilizationCountOverdrawnAfterMission 0
scalar OsgEarthNet.uav[62] utilizationCountIdleState 44
scalar OsgEarthNet.uav[62] utilizationFail 0
scalar OsgEarthNet.uav[62] simulationTime 259200
scalar OsgEarthNet.uav[63] utilizationSecMission 570.98871244881
scalar OsgEarthNet.uav[63] utilizationSecMaintenance 276.2282017063
scalar OsgEarthNet.uav[63] utilizationSecCharge 3360
scalar OsgEarthNet.uav[63] utilizationSecIdle 254992.78208584
scalar OsgEarthNet.uav[63] utilizationEnergyMission 2792.4069519043
scalar OsgEarthNet.uav[63] utilizationEnergyMaintenance 1336.1727714539
scalar OsgEarthNet.uav[63] utilizationEnergyCharge 4128.578125
scalar OsgEarthNet.uav[63] utilizationEnergyOverdrawMission 0
scalar OsgEarthNet.uav[63] utilizationEnergyOverdrawMaintenance 0
scalar OsgEarthNet.uav[63] utilizationCountMissions 1
scalar OsgEarthNet.uav[63] utilizationCountManeuversMission 8
scalar OsgEarthNet.uav[63] utilizationCountManeuversMaintenance 2
scalar OsgEarthNet.uav[63] utilizationCountChargeState 1
scalar OsgEarthNet.uav[63] utilizationCountOverdrawnAfterMission 0
scalar OsgEarthNet.uav[63] utilizationCountIdleState 2
scalar OsgEarthNet.uav[63] utilizationFail 0
scalar OsgEarthNet.uav[63] simulationTime 259200
scalar OsgEarthNet.uav[64] utilizationSecMission 9330.0352148317
scalar OsgEarthNet.uav[64] utilizationSecMaintenance 5497.2154563095
scalar OsgEarthNet.uav[64] utilizationSecCharge 57660
scalar OsgEarthNet.uav[64] utilizationSecIdle 186712.74832886
scalar OsgEarthNet.uav[64] utilizationEnergyMission 43765.220249577
scalar OsgEarthNet.uav[64] utilizationEnergyMaintenance 26543.149318695
scalar OsgEarthNet.uav[64] utilizationEnergyCharge 68664.595214844
scalar OsgEarthNet.uav[64] utilizationEnergyOverdrawMission 0
scalar OsgEarthNet.uav[64] utilizationEnergyOverdrawMaintenance 0
scalar OsgEarthNet.uav[64] utilizationCountMissions 18
scalar OsgEarthNet.uav[64] utilizationCountManeuversMission 151
scalar OsgEarthNet.uav[64] utilizationCountManeuversMaintenance 37
scalar OsgEarthNet.uav[64] utilizationCountChargeState 18
scalar OsgEarthNet.uav[64] utilizationCountOverdrawnAfterMission 0
scalar OsgEarthNet.uav[64] utilizationCountIdleState 19
scalar OsgEarthNet.uav[64] utilizationFail 0
scalar OsgEarthNet.uav[64] simulationTime 259200
scalar OsgEarthNet.uav[65] utilizationSecMission 887.1741082606
scalar OsgEarthNet.uav[65] utilizationSecMaintenance 125.81102573108
scalar OsgEarthNet.uav[65] utilizationSecCharge 3370
scalar OsgEarthNet.uav[65] utilizationSecIdle 254817.01386601
scalar OsgEarthNet.uav[65] utilizationEnergyMission 4066.2589569092
[...]
scalar OsgEarthNet.uav[82] utilizationSecIdle 254973.50775516
scalar OsgEarthNet.uav[82] utilizationEnergyMission 2647.7520446777
scalar OsgEarthNet.uav[82] utilizationEnergyMaintenance 1482.3372306824
scalar OsgEarthNet.uav[82] utilizationEnergyCharge 4130.0922851562
scalar OsgEarthNet.uav[82] utilizationEnergyOverdrawMission 0
scalar OsgEarthNet.uav[82] utilizationEnergyOverdrawMaintenance 0
scalar OsgEarthNet.uav[82] utilizationCountMissions 1
scalar OsgEarthNet.uav[82] utilizationCountManeuversMission 8
scalar OsgEarthNet.uav[82] utilizationCountManeuversMaintenance 2
scalar OsgEarthNet.uav[82] utilizationCountChargeState 1
scalar OsgEarthNet.uav[82] utilizationCountOverdrawnAfterMission 0
scalar OsgEarthNet.uav[82] utilizationCountIdleState 2
scalar OsgEarthNet.uav[82] utilizationFail 0
scalar OsgEarthNet.uav[82] simulationTime 259200
scalar OsgEarthNet.uav[83] utilizationSecMission 443.5870541303
scalar OsgEarthNet.uav[83] utilizationSecMaintenance 425.80795651079
scalar OsgEarthNet.uav[83] utilizationSecCharge 3310
scalar OsgEarthNet.uav[83] utilizationSecIdle 255020.60398936
scalar OsgEarthNet.uav[83] utilizationEnergyMission 2109.4413604736
scalar OsgEarthNet.uav[83] utilizationEnergyMaintenance 1983.1079216003
scalar OsgEarthNet.uav[83] utilizationEnergyCharge 4029.1059570312
scalar OsgEarthNet.uav[83] utilizationEnergyOverdrawMission 0
scalar OsgEarthNet.uav[83] utilizationEnergyOverdrawMaintenance 0
scalar OsgEarthNet.uav[83] utilizationCountMissions 1
scalar OsgEarthNet.uav[83] utilizationCountManeuversMission 7
scalar OsgEarthNet.uav[83] utilizationCountManeuversMaintenance 2
scalar OsgEarthNet.uav[83] utilizationCountChargeState 1
scalar OsgEarthNet.uav[83] utilizationCountOverdrawnAfterMission 0
scalar OsgEarthNet.uav[83] utilizationCountIdleState 2
scalar OsgEarthNet.uav[83] utilizationFail 0
scalar OsgEarthNet.uav[83] simulationTime 259200
scalar OsgEarthNet.uav[84] utilizationSecMission 28947.475489279
scalar OsgEarthNet.uav[84] utilizationSecMaintenance 13157.97725042
scalar OsgEarthNet.uav[84] utilizationSecCharge 166659.93437078
scalar OsgEarthNet.uav[84] utilizationSecIdle 50434.611889516
scalar OsgEarthNet.uav[84] utilizationEnergyMission 133890.95362091
scalar OsgEarthNet.uav[84] utilizationEnergyMaintenance 61197.383224487
scalar OsgEarthNet.uav[84] utilizationEnergyCharge 193444.73730469
scalar OsgEarthNet.uav[84] utilizationEnergyOverdrawMission 0
scalar OsgEarthNet.uav[84] utilizationEnergyOverdrawMaintenance 0
scalar OsgEarthNet.uav[84] utilizationCountMissions 56
scalar OsgEarthNet.uav[84] utilizationCountManeuversMission 487
scalar OsgEarthNet.uav[84] utilizationCountManeuversMaintenance 112
scalar OsgEarthNet.uav[84] utilizationCountChargeState 56
scalar OsgEarthNet.uav[84] utilizationCountOverdrawnAfterMission 0
scalar OsgEarthNet.uav[84] utilizationCountIdleState 56
scalar OsgEarthNet.uav[84] utilizationFail 0
scalar OsgEarthNet.uav[84] simulationTime 259200
scalar OsgEarthNet.uav[85] utilizationSecMission 694.00169469977
scalar OsgEarthNet.uav[85] utilizationSecMaintenance 229.48898285212
scalar OsgEarthNet.uav[85] utilizationSecCharge 3300
scalar OsgEarthNet.uav[85] utilizationSecIdle 254976.50832245
scalar OsgEarthNet.uav[85] utilizationEnergyMission 3297.1561965942
scalar OsgEarthNet.uav[85] utilizationEnergyMaintenance 843.962059021
scalar OsgEarthNet.uav[85] utilizationEnergyCharge 4037.2080078125
scalar OsgEarthNet.uav[85] utilizationEnergyOverdrawMission 0
scalar OsgEarthNet.uav[85] utilizationEnergyOverdrawMaintenance 0
scalar OsgEarthNet.uav[85] utilizationCountMissions 1
scalar OsgEarthNet.uav[85] utilizationCountManeuversMission 13
scalar OsgEarthNet.uav[85] utilizationCountManeuversMaintenance 2
scalar OsgEarthNet.uav[85] utilizationCountChargeState 1
scalar OsgEarthNet.uav[85] utilizationCountOverdrawnAfterMission 0
scalar OsgEarthNet.uav[85] utilizationCountIdleState 2
scalar OsgEarthNet.uav[85] utilizationFail 0
scalar OsgEarthNet.uav[85] simulationTime 259200
scalar OsgEarthNet.uav[86] utilizationSecMission 30965.9143008
scalar OsgEarthNet.uav[86] utilizationSecMaintenance 14052.413726895
scalar OsgEarthNet.uav[86] utilizationSecCharge 173179.6709723
scalar OsgEarthNet.uav[86] utilizationSecIdle 41002
scalar OsgEarthNet.uav[86] utilizationEnergyMission 142882.99512401
scalar OsgEarthNet.uav[86] utilizationEnergyMaintenance 66635.354545593
scalar OsgEarthNet.uav[86] utilizationEnergyCharge 206532.20776367
scalar OsgEarthNet.uav[86] utilizationEnergyOverdrawMission 0
scalar OsgEarthNet.uav[86] utilizationEnergyOverdrawMaintenance 0
scalar OsgEarthNet.uav[86] utilizationCountMissions 55
scalar OsgEarthNet.uav[86] utilizationCountManeuversMission 520
scalar OsgEarthNet.uav[86] utilizationCountManeuversMaintenance 109
scalar OsgEarthNet.uav[86] utilizationCountChargeState 55
scalar OsgEarthNet.uav[86] utilizationCountOverdrawnAfterMission 0
scalar OsgEarthNet.uav[86] utilizationCountIdleState 55
scalar OsgEarthNet.uav[86] utilizationFail 0
scalar OsgEarthNet.uav[86] simulationTime 259200
scalar OsgEarthNet.uav[87] utilizationSecMission 1827.0832933761
scalar OsgEarthNet.uav[87] utilizationSecMaintenance 1485.3275942825
scalar OsgEarthNet.uav[87] utilizationSecCharge 13880
scalar OsgEarthNet.uav[87] utilizationSecIdle 242007.58811234
scalar OsgEarthNet.uav[87] utilizationEnergyMission 8420.1194534302
scalar OsgEarthNet.uav[87] utilizationEnergyMaintenance 7002.4567947388
scalar OsgEarthNet.uav[87] utilizationEnergyCharge 15347.763671875
scalar OsgEarthNet.uav[87] utilizationEnergyOverdrawMission 0
scalar OsgEarthNet.uav[87] utilizationEnergyOverdrawMaintenance 0
scalar OsgEarthNet.uav[87] utilizationCountMissions 5
scalar OsgEarthNet.uav[87] utilizationCountManeuversMission 32
scalar OsgEarthNet.uav[87] utilizationCountManeuversMaintenance 10
scalar OsgEarthNet.uav[87] utilizationCountChargeState 5
scalar OsgEarthNet.uav[87] utilizationCountOverdrawnAfterMission 0
scalar OsgEarthNet.uav[87] utilizationCountIdleState 6
scalar OsgEarthNet.uav[87] utilizationFail 0
scalar OsgEarthNet.uav[87] simulationTime 259200
scalar OsgEarthNet.uav[88] utilizationSecMission 4308.6111084185
scalar OsgEarthNet.uav[88] utilizationSecMaintenance 3444.191266573
scalar OsgEarthNet.uav[88] utilizationSecCharge 30750
scalar OsgEarthNet.uav[88] utilizationSecIdle 220697.19662501
scalar OsgEarthNet.uav[88] utilizationEnergyMission 19996.258758545
scalar OsgEarthNet.uav[88] utilizationEnergyMaintenance 15927.063682556
scalar OsgEarthNet.uav[88] utilizationEnergyCharge 35940.049316406
scalar OsgEarthNet.uav[88] utilizationEnergyOverdrawMission 0
scalar OsgEarthNet.uav[88] utilizationEnergyOverdrawMaintenance 0
scalar OsgEarthNet.uav[88] utilizationCountMissions 10
scalar OsgEarthNet.uav[88] utilizationCountManeuversMission 70
scalar OsgEarthNet.uav[88] utilizationCountManeuversMaintenance 20
scalar OsgEarthNet.uav[88] utilizationCountChargeState 10
scalar OsgEarthNet.uav[88] utilizationCountOverdrawnAfterMission 0
scalar OsgEarthNet.uav[88] utilizationCountIdleState 11
scalar OsgEarthNet.uav[88] utilizationFail 0
scalar OsgEarthNet.uav[88] simulationTime 259200
scalar OsgEarthNet.uav[89] utilizationSecMission 702.33488532666
scalar OsgEarthNet.uav[89] utilizationSecMaintenance 256.18820590911
scalar OsgEarthNet.uav[89] utilizationSecCharge 3610
scalar OsgEarthNet.uav[89] utilizationSecIdle 254631.47590876
scalar OsgEarthNet.uav[89] utilizationEnergyMission 3438.3952026367
scalar OsgEarthNet.uav[89] utilizationEnergyMaintenance 1135.7383842468
scalar OsgEarthNet.uav[89] utilizationEnergyCharge 4574.1323242188
scalar OsgEarthNet.uav[89] utilizationEnergyOverdrawMission 0
scalar OsgEarthNet.uav[89] utilizationEnergyOverdrawMaintenance 0
scalar OsgEarthNet.uav[89] utilizationCountMissions 1
scalar OsgEarthNet.uav[89] utilizationCountManeuversMission 11
scalar OsgEarthNet.uav[89] utilizationCountManeuversMaintenance 2
scalar OsgEarthNet.uav[89] utilizationCountChargeState 1
scalar OsgEarthNet.uav[89] utilizationCountOverdrawnAfterMission 0
scalar OsgEarthNet.uav[89] utilizationCountIdleState 2
scalar OsgEarthNet.uav[89] utilizationFail 0
scalar OsgEarthNet.uav[89] simulationTime 259200
scalar OsgEarthNet.uav[90] utilizationSecMission 20490.781247088
scalar OsgEarthNet.uav[90] utilizationSecMaintenance 12290.042082386
scalar OsgEarthNet.uav[90] utilizationSecCharge 129410.4969746
scalar OsgEarthNet.uav[90] utilizationSecIdle 97008.678695922
scalar OsgEarthNet.uav[90] utilizationEnergyMission 94858.293693542
scalar OsgEarthNet.uav[90] utilizationEnergyMaintenance 58323.573730469
scalar OsgEarthNet.uav[90] utilizationEnergyCharge 151577.62744141
scalar OsgEarthNet.uav[90] utilizationEnergyOverdrawMission 0
scalar OsgEarthNet.uav[90] utilizationEnergyOverdrawMaintenance 0
scalar OsgEarthNet.uav[90] utilizationCountMissions 43
scalar OsgEarthNet.uav[90] utilizationCountManeuversMission 339
scalar OsgEarthNet.uav[90] utilizationCountManeuversMaintenance 86
scalar OsgEarthNet.uav[90] utilizationCountChargeState 43
scalar OsgEarthNet.uav[90] utilizationCountOverdrawnAfterMission 0
scalar OsgEarthNet.uav[90] utilizationCountIdleState 43
scalar OsgEarthNet.uav[90] utilizationFail 0
scalar OsgEarthNet.uav[90] simulationTime 259200
scalar OsgEarthNet.uav[91] utilizationSecMission 19838.840038672
scalar OsgEarthNet.uav[91] utilizationSecMaintenance 7530.8021228901
scalar OsgEarthNet.uav[91] utilizationSecCharge 104840
scalar OsgEarthNet.uav[91] utilizationSecIdle 126990.35683844
scalar OsgEarthNet.uav[91] utilizationEnergyMission 91105.406852722
scalar OsgEarthNet.uav[91] utilizationEnergyMaintenance 35191.187717438
scalar OsgEarthNet.uav[91] utilizationEnergyCharge 126273.95605469
scalar OsgEarthNet.uav[91] utilizationEnergyOverdrawMission 0
scalar OsgEarthNet.uav[91] utilizationEnergyOverdrawMaintenance 0
scalar OsgEarthNet.uav[91] utilizationCountMissions 32
scalar OsgEarthNet.uav[91] utilizationCountManeuversMission 323
scalar OsgEarthNet.uav[91] utilizationCountManeuversMaintenance 64
scalar OsgEarthNet.uav[91] utilizationCountChargeState 32
scalar OsgEarthNet.uav[91] utilizationCountOverdrawnAfterMission 0
scalar OsgEarthNet.uav[91] utilizationCountIdleState 33
scalar OsgEarthNet.uav[91] utilizationFail 0
scalar OsgEarthNet.uav[91] simulationTime 259200
scalar OsgEarthNet.uav[92] utilizationSecMission 17447.120963231
scalar OsgEarthNet.uav[92] utilizationSecMaintenance 8587.6603465492
scalar OsgEarthNet.uav[92] utilizationSecCharge 100703.68173799
scalar OsgEarthNet.uav[92] utilizationSecIdle 132461.53595223
scalar OsgEarthNet.uav[92] utilizationEnergyMission 80076.209899902
scalar OsgEarthNet.uav[92] utilizationEnergyMaintenance 40072.110866547
scalar OsgEarthNet.uav[92] utilizationEnergyCharge 119311.15185547
scalar OsgEarthNet.uav[92] utilizationEnergyOverdrawMission 0
scalar OsgEarthNet.uav[92] utilizationEnergyOverdrawMaintenance 0
scalar OsgEarthNet.uav[92] utilizationCountMissions 33
scalar OsgEarthNet.uav[92] utilizationCountManeuversMission 276
scalar OsgEarthNet.uav[92] utilizationCountManeuversMaintenance 66
scalar OsgEarthNet.uav[92] utilizationCountChargeState 33
scalar OsgEarthNet.uav[92] utilizationCountOverdrawnAfterMission 0
scalar OsgEarthNet.uav[92] utilizationCountIdleState 33
scalar OsgEarthNet.uav[92] utilizationFail 0
scalar OsgEarthNet.uav[92] simulationTime 259200
scalar OsgEarthNet.uav[93] utilizationSecMission 17579.271641166
scalar OsgEarthNet.uav[93] utilizationSecMaintenance 10581.422505501
scalar OsgEarthNet.uav[93] utilizationSecCharge 110440
scalar OsgEarthNet.uav[93] utilizationSecIdle 120599.30485333
scalar OsgEarthNet.uav[93] utilizationEnergyMission 81356.734771729
scalar OsgEarthNet.uav[93] utilizationEnergyMaintenance 49620.104487451
scalar OsgEarthNet.uav[93] utilizationEnergyCharge 130711.31494141
scalar OsgEarthNet.uav[93] utilizationEnergyOverdrawMission 0
scalar OsgEarthNet.uav[93] utilizationEnergyOverdrawMaintenance 0
scalar OsgEarthNet.uav[93] utilizationCountMissions 35
scalar OsgEarthNet.uav[93] utilizationCountManeuversMission 276
scalar OsgEarthNet.uav[93] utilizationCountManeuversMaintenance 71
scalar OsgEarthNet.uav[93] utilizationCountChargeState 35
scalar OsgEarthNet.uav[93] utilizationCountOverdrawnAfterMission 0
scalar OsgEarthNet.uav[93] utilizationCountIdleState 36
scalar OsgEarthNet.uav[93] utilizationFail 0
scalar OsgEarthNet.uav[93] simulationTime 259200
scalar OsgEarthNet.uav[94] utilizationSecMission 25856.708327917
scalar OsgEarthNet.uav[94] utilizationSecMaintenance 12560.861125815
scalar OsgEarthNet.uav[94] utilizationSecCharge 154400
scalar OsgEarthNet.uav[94] utilizationSecIdle 66382.429546269
scalar OsgEarthNet.uav[94] utilizationEnergyMission 118873.5619812
scalar OsgEarthNet.uav[94] utilizationEnergyMaintenance 60694.427879333
scalar OsgEarthNet.uav[94] utilizationEnergyCharge 180641.40185547
scalar OsgEarthNet.uav[94] utilizationEnergyOverdrawMission 0
scalar OsgEarthNet.uav[94] utilizationEnergyOverdrawMaintenance 0
scalar OsgEarthNet.uav[94] utilizationCountMissions 50
scalar OsgEarthNet.uav[94] utilizationCountManeuversMission 426
scalar OsgEarthNet.uav[94] utilizationCountManeuversMaintenance 100
scalar OsgEarthNet.uav[94] utilizationCountChargeState 50
scalar OsgEarthNet.uav[94] utilizationCountOverdrawnAfterMission 0
scalar OsgEarthNet.uav[94] utilizationCountIdleState 51
scalar OsgEarthNet.uav[94] utilizationFail 0
scalar OsgEarthNet.uav[94] simulationTime 259200
scalar OsgEarthNet.uav[95] utilizationSecMission 19584.182608411
scalar OsgEarthNet.uav[95] utilizationSecMaintenance 8604.6058952155
scalar OsgEarthNet.uav[95] utilizationSecCharge 109900
scalar OsgEarthNet.uav[95] utilizationSecIdle 121111.21049637
scalar OsgEarthNet.uav[95] utilizationEnergyMission 90734.87587738
scalar OsgEarthNet.uav[95] utilizationEnergyMaintenance 39828.077255249
scalar OsgEarthNet.uav[95] utilizationEnergyCharge 129792.08203125
scalar OsgEarthNet.uav[95] utilizationEnergyOverdrawMission 0
scalar OsgEarthNet.uav[95] utilizationEnergyOverdrawMaintenance 0
scalar OsgEarthNet.uav[95] utilizationCountMissions 35
scalar OsgEarthNet.uav[95] utilizationCountManeuversMission 319
scalar OsgEarthNet.uav[95] utilizationCountManeuversMaintenance 70
scalar OsgEarthNet.uav[95] utilizationCountChargeState 35
scalar OsgEarthNet.uav[95] utilizationCountOverdrawnAfterMission 0
scalar OsgEarthNet.uav[95] utilizationCountIdleState 36
scalar OsgEarthNet.uav[95] utilizationFail 0
scalar OsgEarthNet.uav[95] simulationTime 259200
scalar OsgEarthNet.uav[96] utilizationSecMission 27716.288432758
scalar OsgEarthNet.uav[96] utilizationSecMaintenance 12456.28418614
scalar OsgEarthNet.uav[96] utilizationSecCharge 153360
scalar OsgEarthNet.uav[96] utilizationSecIdle 65667.426381102
scalar OsgEarthNet.uav[96] utilizationEnergyMission 127695.94970703
scalar OsgEarthNet.uav[96] utilizationEnergyMaintenance 59286.129882314
scalar OsgEarthNet.uav[96] utilizationEnergyCharge 182456.26660156
scalar OsgEarthNet.uav[96] utilizationEnergyOverdrawMission 0
scalar OsgEarthNet.uav[96] utilizationEnergyOverdrawMaintenance 0
scalar OsgEarthNet.uav[96] utilizationCountMissions 49
scalar OsgEarthNet.uav[96] utilizationCountManeuversMission 460
scalar OsgEarthNet.uav[96] utilizationCountManeuversMaintenance 98
scalar OsgEarthNet.uav[96] utilizationCountChargeState 48
scalar OsgEarthNet.uav[96] utilizationCountOverdrawnAfterMission 0
scalar OsgEarthNet.uav[96] utilizationCountIdleState 49
scalar OsgEarthNet.uav[96] utilizationFail 0
scalar OsgEarthNet.uav[96] simulationTime 259200
scalar OsgEarthNet.uav[97] utilizationSecMission 11531.129537822
scalar OsgEarthNet.uav[97] utilizationSecMaintenance 7368.2244998617
scalar OsgEarthNet.uav[97] utilizationSecCharge 75796.654602908
scalar OsgEarthNet.uav[97] utilizationSecIdle 164503.99035941
scalar OsgEarthNet.uav[97] utilizationEnergyMission 52979.457473755
scalar OsgEarthNet.uav[97] utilizationEnergyMaintenance 34326.191207886
scalar OsgEarthNet.uav[97] utilizationEnergyCharge 88186.244384766
scalar OsgEarthNet.uav[97] utilizationEnergyOverdrawMission 0
scalar OsgEarthNet.uav[97] utilizationEnergyOverdrawMaintenance 0
scalar OsgEarthNet.uav[97] utilizationCountMissions 25
scalar OsgEarthNet.uav[97] utilizationCountManeuversMission 179
scalar OsgEarthNet.uav[97] utilizationCountManeuversMaintenance 50
scalar OsgEarthNet.uav[97] utilizationCountChargeState 25
scalar OsgEarthNet.uav[97] utilizationCountOverdrawnAfterMission 0
scalar OsgEarthNet.uav[97] utilizationCountIdleState 24
scalar OsgEarthNet.uav[97] utilizationFail 0
scalar OsgEarthNet.uav[97] simulationTime 259200
scalar OsgEarthNet.uav[98] utilizationSecMission 23187.952073489
scalar OsgEarthNet.uav[98] utilizationSecMaintenance 12873.184992054
scalar OsgEarthNet.uav[98] utilizationSecCharge 139612.00189561
scalar OsgEarthNet.uav[98] utilizationSecIdle 83526.860038846
scalar OsgEarthNet.uav[98] utilizationEnergyMission 107380.77135468
scalar OsgEarthNet.uav[98] utilizationEnergyMaintenance 60109.247909546
scalar OsgEarthNet.uav[98] utilizationEnergyCharge 163719.46142578
scalar OsgEarthNet.uav[98] utilizationEnergyOverdrawMission 0
scalar OsgEarthNet.uav[98] utilizationEnergyOverdrawMaintenance 0
scalar OsgEarthNet.uav[98] utilizationCountMissions 46
scalar OsgEarthNet.uav[98] utilizationCountManeuversMission 385
scalar OsgEarthNet.uav[98] utilizationCountManeuversMaintenance 92
scalar OsgEarthNet.uav[98] utilizationCountChargeState 46
scalar OsgEarthNet.uav[98] utilizationCountOverdrawnAfterMission 0
scalar OsgEarthNet.uav[98] utilizationCountIdleState 46
scalar OsgEarthNet.uav[98] utilizationFail 0
scalar OsgEarthNet.uav[98] simulationTime 259200
scalar OsgEarthNet.uav[99] utilizationSecMission 15178.461659903
scalar OsgEarthNet.uav[99] utilizationSecMaintenance 11552.735057797
scalar OsgEarthNet.uav[99] utilizationSecCharge 104590
scalar OsgEarthNet.uav[99] utilizationSecIdle 127878.8022823
scalar OsgEarthNet.uav[99] utilizationEnergyMission 69722.925254822
scalar OsgEarthNet.uav[99] utilizationEnergyMaintenance 52652.528972626
scalar OsgEarthNet.uav[99] utilizationEnergyCharge 122599.5859375
scalar OsgEarthNet.uav[99] utilizationEnergyOverdrawMission 0
scalar OsgEarthNet.uav[99] utilizationEnergyOverdrawMaintenance 0
scalar OsgEarthNet.uav[99] utilizationCountMissions 34
scalar OsgEarthNet.uav[99] utilizationCountManeuversMission 242
scalar OsgEarthNet.uav[99] utilizationCountManeuversMaintenance 68
scalar OsgEarthNet.uav[99] utilizationCountChargeState 34
scalar OsgEarthNet.uav[99] utilizationCountOverdrawnAfterMission 0
scalar OsgEarthNet.uav[99] utilizationCountIdleState 34
scalar OsgEarthNet.uav[99] utilizationFail 0
scalar OsgEarthNet.uav[99] simulationTime 259200
scalar OsgEarthNet.cs[0] usedPower 347374.89622622
scalar OsgEarthNet.cs[0] chargedPower 347374.89622622
scalar OsgEarthNet.cs[0] chargedMobileNodes 139
scalar OsgEarthNet.cs[0] reservations 142
scalar OsgEarthNet.cs[1] usedPower 877266.87323427
scalar OsgEarthNet.cs[1] chargedPower 877266.87323427
scalar OsgEarthNet.cs[1] chargedMobileNodes 322
scalar OsgEarthNet.cs[1] reservations 325
scalar OsgEarthNet.cs[2] usedPower 3569459.5686905
scalar OsgEarthNet.cs[2] chargedPower 3569459.5686905
scalar OsgEarthNet.cs[2] chargedMobileNodes 936
scalar OsgEarthNet.cs[2] reservations 950
scalar OsgEarthNet.cs[3] usedPower 0
scalar OsgEarthNet.cs[3] chargedPower 0
scalar OsgEarthNet.cs[3] chargedMobileNodes 0
scalar OsgEarthNet.cs[3] reservations 0
scalar OsgEarthNet.cs[4] usedPower 996731.39338827
scalar OsgEarthNet.cs[4] chargedPower 996731.39338827
scalar OsgEarthNet.cs[4] chargedMobileNodes 230
scalar OsgEarthNet.cs[4] reservations 233
scalar OsgEarthNet.cs[5] usedPower 1554019.1053035
scalar OsgEarthNet.cs[5] chargedPower 1554019.1053035
scalar OsgEarthNet.cs[5] chargedMobileNodes 363
scalar OsgEarthNet.cs[5] reservations 370
scalar OsgEarthNet.cs[6] usedPower 1395052.8789557
scalar OsgEarthNet.cs[6] chargedPower 1395052.8789557
scalar OsgEarthNet.cs[6] chargedMobileNodes 356
scalar OsgEarthNet.cs[6] reservations 361

