version 2
run Szenario_Hotel_Gabelbach-36-20180709-00:53:02-14620
attr configname Szenario_Hotel_Gabelbach
attr datetime 20180709-00:53:02
attr experiment Szenario_Hotel_Gabelbach
attr inifile omnetpp.ini
attr iterationvars $replM=1
attr iterationvarsf replM=1-
attr measurement $replM=1
attr network OsgEarthNet
attr processid 14620
attr repetition 12
attr replication #12
attr resultdir results
attr runnumber 36
attr seedset 36
itervar replM 1
param *.osgEarthScene.scene "\"Szenario_Hotel_Gabelbach.earth\""
param *.playgroundLatitude 50.6830269
param *.playgroundLongitude 10.8538055
param *.playgroundWidth 3500m
param *.playgroundHeight 3500m
param *.numUAVs 100
param *.cs[0].posX 3537m
param *.cs[0].posY 965m
param *.cs[0].posZ 538m
param *.cs[1].posX 312m
param *.cs[1].posY 1262m
param *.cs[1].posZ 539m
param *.cs[2].posX 2185m
param *.cs[2].posY 3026m
param *.cs[2].posZ 777m
param *.cs[3].posX 10m
param *.cs[3].posY 2200m
param *.cs[3].posZ 560m
param *.cs[4].posX 750m
param *.cs[4].posY 200m
param *.cs[4].posZ 540m
param *.cs[5].posX 2450m
param *.cs[5].posY 180m
param *.cs[5].posZ 524m
param *.cs[6].posX 3140m
param *.cs[6].posY 1790m
param *.cs[6].posZ 606m
param *.numCSs 7
param *.uav[*].replacementMethod 1
param *.*.timeStep 10s
param *.uav[*].commandPreviewCommandCount 20
param *.missionControl.missionFiles "\"missions\\\\Szenario_WB_Hotel_Gabelbach_Mission_Hotel.waypoints,missions\\\\Szenario_WB_Hotel_Gabelbach_Mission_Kickelhahn.waypoints,missions\\\\Szenario_WB_Hotel_Gabelbach_Mission_Ilmenau_Sportplatz.waypoints,missions\\\\Szenario_WB_Hotel_Gabelbach_Mission_Manebach_Mitte.waypoints,missions\\\\Szenario_WB_Hotel_Gabelbach_Mission_Manebach_Sued.waypoints\""
param *.missionControl.missionFiles "\"missions\\\\Szenario_WB_Hotel_Gabelbach_Mission_Hotel.waypoints,missions\\\\Szenario_WB_Hotel_Gabelbach_Mission_Kickelhahn.waypoints,missions\\\\Szenario_WB_Hotel_Gabelbach_Mission_Ilmenau_Sportplatz.waypoints,missions\\\\Szenario_WB_Hotel_Gabelbach_Mission_Manebach_Mitte.waypoints,missions\\\\Szenario_WB_Hotel_Gabelbach_Mission_Manebach_Sued.waypoints,missions\\\\Szenario_WB_Hotel_Gabelbach_Hover_HoheSchlaufe.waypoints,missions\\\\Szenario_WB_Hotel_Gabelbach_Hover_Kickelhahn.waypoints,missions\\\\Szenario_WB_Hotel_Gabelbach_Hover_Gabelbachskopf.waypoints,missions\\\\Szenario_WB_Hotel_Gabelbach_Hover_Dachskopf.waypoints\""
param *.uav[0].startX 3537m
param *.uav[0].startY 965m
param *.uav[0].startZ 539m
param *.uav[1].startX 312m
param *.uav[1].startY 1262m
param *.uav[1].startZ 540m
param *.uav[2].startX 2185m
param *.uav[2].startY 3026m
param *.uav[2].startZ 778m
param *.uav[3].startX 3537m
param *.uav[3].startY 965m
param *.uav[3].startZ 539m
param *.uav[4].startX 312m
param *.uav[4].startY 1262m
param *.uav[4].startZ 540m
param *.uav[5].startX 2185m
param *.uav[5].startY 3026m
param *.uav[5].startZ 778m
param *.uav[6].startX 3537m
param *.uav[6].startY 965m
param *.uav[6].startZ 539m
param *.uav[7].startX 312m
param *.uav[7].startY 1262m
param *.uav[7].startZ 540m
param *.uav[8].startX 2185m
param *.uav[8].startY 3026m
param *.uav[8].startZ 778m
param *.uav[9].startX 3537m
param *.uav[9].startY 965m
param *.uav[9].startZ 539m
param *.uav[10].startX 3537m
param *.uav[10].startY 965m
param *.uav[10].startZ 539m
param *.uav[11].startX 312m
param *.uav[11].startY 1262m
param *.uav[11].startZ 540m
param *.uav[12].startX 2185m
param *.uav[12].startY 3026m
param *.uav[12].startZ 778m
param *.uav[13].startX 3537m
param *.uav[13].startY 965m
param *.uav[13].startZ 539m
param *.uav[14].startX 312m
param *.uav[14].startY 1262m
param *.uav[14].startZ 540m
param *.uav[15].startX 2185m
param *.uav[15].startY 3026m
param *.uav[15].startZ 778m
param *.uav[16].startX 3537m
param *.uav[16].startY 965m
param *.uav[16].startZ 539m
param *.uav[17].startX 312m
param *.uav[17].startY 1262m
param *.uav[17].startZ 540m
param *.uav[18].startX 2185m
param *.uav[18].startY 3026m
param *.uav[18].startZ 778m
param *.uav[19].startX 3537m
param *.uav[19].startY 965m
param *.uav[19].startZ 539m
param *.uav[20].startX 3537m
param *.uav[20].startY 965m
param *.uav[20].startZ 539m
param *.uav[21].startX 312m
param *.uav[21].startY 1262m
param *.uav[21].startZ 540m
param *.uav[22].startX 2185m
param *.uav[22].startY 3026m
param *.uav[22].startZ 778m
param *.uav[23].startX 3537m
param *.uav[23].startY 965m
param *.uav[23].startZ 539m
param *.uav[24].startX 312m
param *.uav[24].startY 1262m
param *.uav[24].startZ 540m
param *.uav[25].startX 2185m
param *.uav[25].startY 3026m
param *.uav[25].startZ 778m
param *.uav[26].startX 3537m
param *.uav[26].startY 965m
param *.uav[26].startZ 539m
param *.uav[27].startX 312m
param *.uav[27].startY 1262m
param *.uav[27].startZ 540m
param *.uav[28].startX 2185m
param *.uav[28].startY 3026m
param *.uav[28].startZ 778m
param *.uav[29].startX 3537m
param *.uav[29].startY 965m
param *.uav[29].startZ 539m
param *.uav[30].startX 3537m
param *.uav[30].startY 965m
param *.uav[30].startZ 539m
param *.uav[31].startX 312m
param *.uav[31].startY 1262m
param *.uav[31].startZ 540m
param *.uav[32].startX 2185m
param *.uav[32].startY 3026m
param *.uav[32].startZ 778m
param *.uav[33].startX 3537m
param *.uav[33].startY 965m
param *.uav[33].startZ 539m
param *.uav[34].startX 312m
param *.uav[34].startY 1262m
param *.uav[34].startZ 540m
param *.uav[35].startX 2185m
param *.uav[35].startY 3026m
param *.uav[35].startZ 778m
param *.uav[36].startX 3537m
param *.uav[36].startY 965m
param *.uav[36].startZ 539m
param *.uav[37].startX 312m
param *.uav[37].startY 1262m
param *.uav[37].startZ 540m
param *.uav[38].startX 2185m
param *.uav[38].startY 3026m
param *.uav[38].startZ 778m
param *.uav[39].startX 3537m
param *.uav[39].startY 965m
param *.uav[39].startZ 539m
param *.uav[40].startX 3537m
param *.uav[40].startY 965m
param *.uav[40].startZ 539m
param *.uav[41].startX 312m
param *.uav[41].startY 1262m
param *.uav[41].startZ 540m
param *.uav[42].startX 2185m
param *.uav[42].startY 3026m
param *.uav[42].startZ 778m
param *.uav[43].startX 3537m
param *.uav[43].startY 965m
param *.uav[43].startZ 539m
param *.uav[44].startX 312m
param *.uav[44].startY 1262m
param *.uav[44].startZ 540m
param *.uav[45].startX 2185m
param *.uav[45].startY 3026m
param *.uav[45].startZ 778m
param *.uav[46].startX 3537m
param *.uav[46].startY 965m
param *.uav[46].startZ 539m
param *.uav[47].startX 312m
param *.uav[47].startY 1262m
param *.uav[47].startZ 540m
param *.uav[48].startX 2185m
param *.uav[48].startY 3026m
param *.uav[48].startZ 778m
param *.uav[49].startX 3537m
param *.uav[49].startY 965m
param *.uav[49].startZ 539m
param *.uav[50].startX 3537m
param *.uav[50].startY 965m
param *.uav[50].startZ 539m
param *.uav[51].startX 312m
param *.uav[51].startY 1262m
param *.uav[51].startZ 540m
param *.uav[52].startX 2185m
param *.uav[52].startY 3026m
param *.uav[52].startZ 778m
param *.uav[53].startX 3537m
param *.uav[53].startY 965m
param *.uav[53].startZ 539m
param *.uav[54].startX 312m
param *.uav[54].startY 1262m
param *.uav[54].startZ 540m
param *.uav[55].startX 2185m
param *.uav[55].startY 3026m
param *.uav[55].startZ 778m
param *.uav[56].startX 3537m
param *.uav[56].startY 965m
param *.uav[56].startZ 539m
param *.uav[57].startX 312m
param *.uav[57].startY 1262m
param *.uav[57].startZ 540m
param *.uav[58].startX 2185m
param *.uav[58].startY 3026m
param *.uav[58].startZ 778m
param *.uav[59].startX 3537m
param *.uav[59].startY 965m
param *.uav[59].startZ 539m
param *.uav[60].startX 3537m
param *.uav[60].startY 965m
param *.uav[60].startZ 539m
param *.uav[61].startX 312m
param *.uav[61].startY 1262m
param *.uav[61].startZ 540m
param *.uav[62].startX 2185m
param *.uav[62].startY 3026m
param *.uav[62].startZ 778m
param *.uav[63].startX 3537m
param *.uav[63].startY 965m
param *.uav[63].startZ 539m
param *.uav[64].startX 312m
param *.uav[64].startY 1262m
param *.uav[64].startZ 540m
param *.uav[65].startX 2185m
param *.uav[65].startY 3026m
param *.uav[65].startZ 778m
param *.uav[66].startX 3537m
param *.uav[66].startY 965m
param *.uav[66].startZ 539m
param *.uav[67].startX 312m
param *.uav[67].startY 1262m
param *.uav[67].startZ 540m
param *.uav[68].startX 2185m
param *.uav[68].startY 3026m
param *.uav[68].startZ 778m
param *.uav[69].startX 3537m
param *.uav[69].startY 965m
param *.uav[69].startZ 539m
param *.uav[70].startX 3537m
param *.uav[70].startY 965m
param *.uav[70].startZ 539m
param *.uav[71].startX 312m
param *.uav[71].startY 1262m
param *.uav[71].startZ 540m
param *.uav[72].startX 2185m
param *.uav[72].startY 3026m
param *.uav[72].startZ 778m
param *.uav[73].startX 3537m
param *.uav[73].startY 965m
param *.uav[73].startZ 539m
param *.uav[74].startX 312m
param *.uav[74].startY 1262m
param *.uav[74].startZ 540m
param *.uav[75].startX 2185m
param *.uav[75].startY 3026m
param *.uav[75].startZ 778m
param *.uav[76].startX 3537m
param *.uav[76].startY 965m
param *.uav[76].startZ 539m
param *.uav[77].startX 312m
param *.uav[77].startY 1262m
param *.uav[77].startZ 540m
param *.uav[78].startX 2185m
param *.uav[78].startY 3026m
param *.uav[78].startZ 778m
param *.uav[79].startX 3537m
param *.uav[79].startY 965m
param *.uav[79].startZ 539m
param *.uav[80].startX 3537m
param *.uav[80].startY 965m
param *.uav[80].startZ 539m
param *.uav[81].startX 312m
param *.uav[81].startY 1262m
param *.uav[81].startZ 540m
param *.uav[82].startX 2185m
param *.uav[82].startY 3026m
param *.uav[82].startZ 778m
param *.uav[83].startX 3537m
param *.uav[83].startY 965m
param *.uav[83].startZ 539m
param *.uav[84].startX 312m
param *.uav[84].startY 1262m
param *.uav[84].startZ 540m
param *.uav[85].startX 2185m
param *.uav[85].startY 3026m
param *.uav[85].startZ 778m
param *.uav[86].startX 3537m
param *.uav[86].startY 965m
param *.uav[86].startZ 539m
param *.uav[87].startX 312m
param *.uav[87].startY 1262m
param *.uav[87].startZ 540m
param *.uav[88].startX 2185m
param *.uav[88].startY 3026m
param *.uav[88].startZ 778m
param *.uav[89].startX 3537m
param *.uav[89].startY 965m
param *.uav[89].startZ 539m
param *.uav[90].startX 3537m
param *.uav[90].startY 965m
param *.uav[90].startZ 539m
param *.uav[91].startX 312m
param *.uav[91].startY 1262m
param *.uav[91].startZ 540m
param *.uav[92].startX 2185m
param *.uav[92].startY 3026m
param *.uav[92].startZ 778m
param *.uav[93].startX 3537m
param *.uav[93].startY 965m
param *.uav[93].startZ 539m
param *.uav[94].startX 312m
param *.uav[94].startY 1262m
param *.uav[94].startZ 540m
param *.uav[95].startX 2185m
param *.uav[95].startY 3026m
param *.uav[95].startZ 778m
param *.uav[96].startX 3537m
param *.uav[96].startY 965m
param *.uav[96].startZ 539m
param *.uav[97].startX 312m
param *.uav[97].startY 1262m
param *.uav[97].startZ 540m
param *.uav[98].startX 2185m
param *.uav[98].startY 3026m
param *.uav[98].startZ 778m
param *.uav[99].startX 3537m
param *.uav[99].startY 965m
param *.uav[99].startZ 539m
param *.osgEarthScene.scene "\"boston.earth\""
param *.playgroundLatitude 42.3558
param *.playgroundLongitude -71.0677
param *.playgroundWidth 400m
param *.playgroundHeight 200m
param *.channelController.connectionColor "\"#0000FF40\""
param *.channelController.showConnections false
param *.uav[*].modelURL "\"quadrocopter.small.obj.15.scale.0,0,90.rot\""
param *.uav[*].labelColor "\"#FF7C00CC\""
param *.uav[*].label2Color "\"#FF7C00EE\""
param *.uav[*].batteryCapacity 5200mAh
param *.uav[*].batteryRemaining uav[index].batteryCapacity
param *.uav[*].predictionQuantile 0.95
param *.uav[*].replacementMethod 2
param *.uav[*].weightedSumWeight 0.5
param *.cs[*].modelURL "\"chargingstation_v1.osgt.2.scale.0,0,0.rot.0,0,-15e-1.trans\""
param *.cs[*].spotsWaiting 999
param *.cs[*].spotsCharging 999
param *.cs[*].chargeEffectivenessPercentage 100
param *.cs[*].nonLinearPhaseStartPercentage 85
param *.cs[*].chargeCurrent 6.0A
param *.cs[*].prioritizeFastCharge true
param *.missionControl.replacementSearchMethod 0
param *.*.timeStep 9s

scalar OsgEarthNet.uav[0] utilizationSecMission 570.98871244881
scalar OsgEarthNet.uav[0] utilizationSecMaintenance 276.2282017063
scalar OsgEarthNet.uav[0] utilizationSecCharge 3450
scalar OsgEarthNet.uav[0] utilizationSecIdle 254902.78208584
scalar OsgEarthNet.uav[0] utilizationEnergyMission 2769.2722244263
scalar OsgEarthNet.uav[0] utilizationEnergyMaintenance 1491.3310050964
scalar OsgEarthNet.uav[0] utilizationEnergyCharge 4260.603515625
scalar OsgEarthNet.uav[0] utilizationEnergyOverdrawMission 0
scalar OsgEarthNet.uav[0] utilizationEnergyOverdrawMaintenance 0
scalar OsgEarthNet.uav[0] utilizationCountMissions 1
scalar OsgEarthNet.uav[0] utilizationCountManeuversMission 8
scalar OsgEarthNet.uav[0] utilizationCountManeuversMaintenance 2
scalar OsgEarthNet.uav[0] utilizationCountChargeState 1
scalar OsgEarthNet.uav[0] utilizationCountOverdrawnAfterMission 0
scalar OsgEarthNet.uav[0] utilizationCountIdleState 2
scalar OsgEarthNet.uav[0] utilizationFail 0
scalar OsgEarthNet.uav[0] simulationTime 259200
scalar OsgEarthNet.uav[1] utilizationSecMission 25186.037185565
scalar OsgEarthNet.uav[1] utilizationSecMaintenance 15109.256115398
scalar OsgEarthNet.uav[1] utilizationSecCharge 161400
scalar OsgEarthNet.uav[1] utilizationSecIdle 57504.705699036
scalar OsgEarthNet.uav[1] utilizationEnergyMission 116423.04098892
scalar OsgEarthNet.uav[1] utilizationEnergyMaintenance 70268.382555001
scalar OsgEarthNet.uav[1] utilizationEnergyCharge 186151.88867188
scalar OsgEarthNet.uav[1] utilizationEnergyOverdrawMission 0
scalar OsgEarthNet.uav[1] utilizationEnergyOverdrawMaintenance 0
scalar OsgEarthNet.uav[1] utilizationCountMissions 54
scalar OsgEarthNet.uav[1] utilizationCountManeuversMission 412
scalar OsgEarthNet.uav[1] utilizationCountManeuversMaintenance 109
scalar OsgEarthNet.uav[1] utilizationCountChargeState 54
scalar OsgEarthNet.uav[1] utilizationCountOverdrawnAfterMission 0
scalar OsgEarthNet.uav[1] utilizationCountIdleState 55
scalar OsgEarthNet.uav[1] utilizationFail 0
scalar OsgEarthNet.uav[1] simulationTime 259200
scalar OsgEarthNet.uav[2] utilizationSecMission 27413.453822226
scalar OsgEarthNet.uav[2] utilizationSecMaintenance 10943.113884115
scalar OsgEarthNet.uav[2] utilizationSecCharge 146996.57224748
scalar OsgEarthNet.uav[2] utilizationSecIdle 73846.859046175
scalar OsgEarthNet.uav[2] utilizationEnergyMission 126411.23521423
scalar OsgEarthNet.uav[2] utilizationEnergyMaintenance 51841.039924622
scalar OsgEarthNet.uav[2] utilizationEnergyCharge 174861.01452637
scalar OsgEarthNet.uav[2] utilizationEnergyOverdrawMission 0
scalar OsgEarthNet.uav[2] utilizationEnergyOverdrawMaintenance 0
scalar OsgEarthNet.uav[2] utilizationCountMissions 47
scalar OsgEarthNet.uav[2] utilizationCountManeuversMission 440
scalar OsgEarthNet.uav[2] utilizationCountManeuversMaintenance 94
scalar OsgEarthNet.uav[2] utilizationCountChargeState 47
scalar OsgEarthNet.uav[2] utilizationCountOverdrawnAfterMission 0
scalar OsgEarthNet.uav[2] utilizationCountIdleState 47
scalar OsgEarthNet.uav[2] utilizationFail 0
scalar OsgEarthNet.uav[2] simulationTime 259200
scalar OsgEarthNet.uav[3] utilizationSecMission 27545.413734043
scalar OsgEarthNet.uav[3] utilizationSecMaintenance 14755.098210424
scalar OsgEarthNet.uav[3] utilizationSecCharge 164433.31398886
scalar OsgEarthNet.uav[3] utilizationSecIdle 52466.173066668
scalar OsgEarthNet.uav[3] utilizationEnergyMission 128092.01373291
scalar OsgEarthNet.uav[3] utilizationEnergyMaintenance 70642.383537292
scalar OsgEarthNet.uav[3] utilizationEnergyCharge 198265.44042969
scalar OsgEarthNet.uav[3] utilizationEnergyOverdrawMission 0
scalar OsgEarthNet.uav[3] utilizationEnergyOverdrawMaintenance 0
scalar OsgEarthNet.uav[3] utilizationCountMissions 51
scalar OsgEarthNet.uav[3] utilizationCountManeuversMission 440
scalar OsgEarthNet.uav[3] utilizationCountManeuversMaintenance 102
scalar OsgEarthNet.uav[3] utilizationCountChargeState 51
scalar OsgEarthNet.uav[3] utilizationCountOverdrawnAfterMission 0
scalar OsgEarthNet.uav[3] utilizationCountIdleState 51
scalar OsgEarthNet.uav[3] utilizationFail 0
scalar OsgEarthNet.uav[3] simulationTime 259200
scalar OsgEarthNet.uav[4] utilizationSecMission 22917.712530934
scalar OsgEarthNet.uav[4] utilizationSecMaintenance 12078.038968144
scalar OsgEarthNet.uav[4] utilizationSecCharge 137030
scalar OsgEarthNet.uav[4] utilizationSecIdle 87174.247500923
scalar OsgEarthNet.uav[4] utilizationEnergyMission 105698.6217804
scalar OsgEarthNet.uav[4] utilizationEnergyMaintenance 57218.349487305
scalar OsgEarthNet.uav[4] utilizationEnergyCharge 162934.71972656
scalar OsgEarthNet.uav[4] utilizationEnergyOverdrawMission 0
scalar OsgEarthNet.uav[4] utilizationEnergyOverdrawMaintenance 0
scalar OsgEarthNet.uav[4] utilizationCountMissions 43
scalar OsgEarthNet.uav[4] utilizationCountManeuversMission 384
scalar OsgEarthNet.uav[4] utilizationCountManeuversMaintenance 86
scalar OsgEarthNet.uav[4] utilizationCountChargeState 43
scalar OsgEarthNet.uav[4] utilizationCountOverdrawnAfterMission 0
scalar OsgEarthNet.uav[4] utilizationCountIdleState 44
scalar OsgEarthNet.uav[4] utilizationFail 0
scalar OsgEarthNet.uav[4] simulationTime 259200
scalar OsgEarthNet.uav[5] utilizationSecMission 694.00169469977
scalar OsgEarthNet.uav[5] utilizationSecMaintenance 229.48898285212
scalar OsgEarthNet.uav[5] utilizationSecCharge 3500
scalar OsgEarthNet.uav[5] utilizationSecIdle 254776.50832245
scalar OsgEarthNet.uav[5] utilizationEnergyMission 3239.2668838501
scalar OsgEarthNet.uav[5] utilizationEnergyMaintenance 1036.4240036011
scalar OsgEarthNet.uav[5] utilizationEnergyCharge 4315.7446289062
scalar OsgEarthNet.uav[5] utilizationEnergyOverdrawMission 0
scalar OsgEarthNet.uav[5] utilizationEnergyOverdrawMaintenance 0
scalar OsgEarthNet.uav[5] utilizationCountMissions 1
scalar OsgEarthNet.uav[5] utilizationCountManeuversMission 13
scalar OsgEarthNet.uav[5] utilizationCountManeuversMaintenance 2
scalar OsgEarthNet.uav[5] utilizationCountChargeState 1
scalar OsgEarthNet.uav[5] utilizationCountOverdrawnAfterMission 0
scalar OsgEarthNet.uav[5] utilizationCountIdleState 2
scalar OsgEarthNet.uav[5] utilizationFail 0
scalar OsgEarthNet.uav[5] simulationTime 259200
scalar OsgEarthNet.uav[6] utilizationSecMission 750.20472747826
scalar OsgEarthNet.uav[6] utilizationSecMaintenance 261.68051383311
scalar OsgEarthNet.uav[6] utilizationSecCharge 3690
scalar OsgEarthNet.uav[6] utilizationSecIdle 254498.11375869
scalar OsgEarthNet.uav[6] utilizationEnergyMission 3501.1466522217
scalar OsgEarthNet.uav[6] utilizationEnergyMaintenance 1211.1814994812
scalar OsgEarthNet.uav[6] utilizationEnergyCharge 4712.33203125
scalar OsgEarthNet.uav[6] utilizationEnergyOverdrawMission 0
scalar OsgEarthNet.uav[6] utilizationEnergyOverdrawMaintenance 0
scalar OsgEarthNet.uav[6] utilizationCountMissions 1
scalar OsgEarthNet.uav[6] utilizationCountManeuversMission 11
scalar OsgEarthNet.uav[6] utilizationCountManeuversMaintenance 2
scalar OsgEarthNet.uav[6] utilizationCountChargeState 1
scalar OsgEarthNet.uav[6] utilizationCountOverdrawnAfterMission 0
scalar OsgEarthNet.uav[6] utilizationCountIdleState 2
scalar OsgEarthNet.uav[6] utilizationFail 0
scalar OsgEarthNet.uav[6] simulationTime 259200
scalar OsgEarthNet.uav[7] utilizationSecMission 682.94783150361
scalar OsgEarthNet.uav[7] utilizationSecMaintenance 228.1606024445
scalar OsgEarthNet.uav[7] utilizationSecCharge 3470
scalar OsgEarthNet.uav[7] utilizationSecIdle 254818.89056605
scalar OsgEarthNet.uav[7] utilizationEnergyMission 3171.1514434814
scalar OsgEarthNet.uav[7] utilizationEnergyMaintenance 1104.8445663452
scalar OsgEarthNet.uav[7] utilizationEnergyCharge 4275.9965820312
scalar OsgEarthNet.uav[7] utilizationEnergyOverdrawMission 0
scalar OsgEarthNet.uav[7] utilizationEnergyOverdrawMaintenance 0
scalar OsgEarthNet.uav[7] utilizationCountMissions 1
scalar OsgEarthNet.uav[7] utilizationCountManeuversMission 12
scalar OsgEarthNet.uav[7] utilizationCountManeuversMaintenance 2
scalar OsgEarthNet.uav[7] utilizationCountChargeState 1
scalar OsgEarthNet.uav[7] utilizationCountOverdrawnAfterMission 0
scalar OsgEarthNet.uav[7] utilizationCountIdleState 2
scalar OsgEarthNet.uav[7] utilizationFail 0
scalar OsgEarthNet.uav[7] simulationTime 259200
scalar OsgEarthNet.uav[8] utilizationSecMission 20398.19610879
scalar OsgEarthNet.uav[8] utilizationSecMaintenance 15016.205812041
scalar OsgEarthNet.uav[8] utilizationSecCharge 144250
scalar OsgEarthNet.uav[8] utilizationSecIdle 79535.597079168
scalar OsgEarthNet.uav[8] utilizationEnergyMission 95187.135162354
scalar OsgEarthNet.uav[8] utilizationEnergyMaintenance 72181.812141418
scalar OsgEarthNet.uav[8] utilizationEnergyCharge 166713.27758789
scalar OsgEarthNet.uav[8] utilizationEnergyOverdrawMission 0
scalar OsgEarthNet.uav[8] utilizationEnergyOverdrawMaintenance 0
scalar OsgEarthNet.uav[8] utilizationCountMissions 48
scalar OsgEarthNet.uav[8] utilizationCountManeuversMission 340
scalar OsgEarthNet.uav[8] utilizationCountManeuversMaintenance 96
scalar OsgEarthNet.uav[8] utilizationCountChargeState 48
scalar OsgEarthNet.uav[8] utilizationCountOverdrawnAfterMission 0
scalar OsgEarthNet.uav[8] utilizationCountIdleState 49
scalar OsgEarthNet.uav[8] utilizationFail 0
scalar OsgEarthNet.uav[8] simulationTime 259200
scalar OsgEarthNet.uav[9] utilizationSecMission 443.5870541303
scalar OsgEarthNet.uav[9] utilizationSecMaintenance 425.80795651079
scalar OsgEarthNet.uav[9] utilizationSecCharge 3380
scalar OsgEarthNet.uav[9] utilizationSecIdle 254950.60398936
scalar OsgEarthNet.uav[9] utilizationEnergyMission 2092.8549804687
scalar OsgEarthNet.uav[9] utilizationEnergyMaintenance 2084.2885551453
scalar OsgEarthNet.uav[9] utilizationEnergyCharge 4120.4536132812
scalar OsgEarthNet.uav[9] utilizationEnergyOverdrawMission 0
scalar OsgEarthNet.uav[9] utilizationEnergyOverdrawMaintenance 0
scalar OsgEarthNet.uav[9] utilizationCountMissions 1
scalar OsgEarthNet.uav[9] utilizationCountManeuversMission 7
scalar OsgEarthNet.uav[9] utilizationCountManeuversMaintenance 2
scalar OsgEarthNet.uav[9] utilizationCountChargeState 1
scalar OsgEarthNet.uav[9] utilizationCountOverdrawnAfterMission 0
scalar OsgEarthNet.uav[9] utilizationCountIdleState 2
scalar OsgEarthNet.uav[9] utilizationFail 0
scalar OsgEarthNet.uav[9] simulationTime 259200
scalar OsgEarthNet.uav[10] utilizationSecMission 26650.69055773
scalar OsgEarthNet.uav[10] utilizationSecMaintenance 13930.261533144
scalar OsgEarthNet.uav[10] utilizationSecCharge 157356.81798666
scalar OsgEarthNet.uav[10] utilizationSecIdle 61262.228922467
scalar OsgEarthNet.uav[10] utilizationEnergyMission 123904.47398376
scalar OsgEarthNet.uav[10] utilizationEnergyMaintenance 65126.309257507
scalar OsgEarthNet.uav[10] utilizationEnergyCharge 188782.66015625
scalar OsgEarthNet.uav[10] utilizationEnergyOverdrawMission 0
scalar OsgEarthNet.uav[10] utilizationEnergyOverdrawMaintenance 0
scalar OsgEarthNet.uav[10] utilizationCountMissions 50
scalar OsgEarthNet.uav[10] utilizationCountManeuversMission 441
scalar OsgEarthNet.uav[10] utilizationCountManeuversMaintenance 100
scalar OsgEarthNet.uav[10] utilizationCountChargeState 50
scalar OsgEarthNet.uav[10] utilizationCountOverdrawnAfterMission 0
scalar OsgEarthNet.uav[10] utilizationCountIdleState 50
scalar OsgEarthNet.uav[10] utilizationFail 0
scalar OsgEarthNet.uav[10] simulationTime 259200
scalar OsgEarthNet.uav[11] utilizationSecMission 27792.017544141
scalar OsgEarthNet.uav[11] utilizationSecMaintenance 13824.804266055
scalar OsgEarthNet.uav[11] utilizationSecCharge 164520
scalar OsgEarthNet.uav[11] utilizationSecIdle 53063.177189804
scalar OsgEarthNet.uav[11] utilizationEnergyMission 129270.86677551
scalar OsgEarthNet.uav[11] utilizationEnergyMaintenance 66592.640312195
scalar OsgEarthNet.uav[11] utilizationEnergyCharge 195351.08789062
scalar OsgEarthNet.uav[11] utilizationEnergyOverdrawMission 0
scalar OsgEarthNet.uav[11] utilizationEnergyOverdrawMaintenance 0
scalar OsgEarthNet.uav[11] utilizationCountMissions 52
scalar OsgEarthNet.uav[11] utilizationCountManeuversMission 453
scalar OsgEarthNet.uav[11] utilizationCountManeuversMaintenance 104
scalar OsgEarthNet.uav[11] utilizationCountChargeState 52
scalar OsgEarthNet.uav[11] utilizationCountOverdrawnAfterMission 0
scalar OsgEarthNet.uav[11] utilizationCountIdleState 53
scalar OsgEarthNet.uav[11] utilizationFail 0
scalar OsgEarthNet.uav[11] simulationTime 259200
scalar OsgEarthNet.uav[12] utilizationSecMission 21637.495713962
scalar OsgEarthNet.uav[12] utilizationSecMaintenance 11680.055865223
scalar OsgEarthNet.uav[12] utilizationSecCharge 128306.02483337
scalar OsgEarthNet.uav[12] utilizationSecIdle 97576.42258744
scalar OsgEarthNet.uav[12] utilizationEnergyMission 100728.91532135
scalar OsgEarthNet.uav[12] utilizationEnergyMaintenance 54246.489685059
scalar OsgEarthNet.uav[12] utilizationEnergyCharge 154544.38256836
scalar OsgEarthNet.uav[12] utilizationEnergyOverdrawMission 0
scalar OsgEarthNet.uav[12] utilizationEnergyOverdrawMaintenance 0
scalar OsgEarthNet.uav[12] utilizationCountMissions 40
scalar OsgEarthNet.uav[12] utilizationCountManeuversMission 360
scalar OsgEarthNet.uav[12] utilizationCountManeuversMaintenance 80
scalar OsgEarthNet.uav[12] utilizationCountChargeState 40
scalar OsgEarthNet.uav[12] utilizationCountOverdrawnAfterMission 0
scalar OsgEarthNet.uav[12] utilizationCountIdleState 40
scalar OsgEarthNet.uav[12] utilizationFail 0
scalar OsgEarthNet.uav[12] simulationTime 259200
scalar OsgEarthNet.uav[13] utilizationSecMission 443.5870541303
scalar OsgEarthNet.uav[13] utilizationSecMaintenance 425.80795651079
scalar OsgEarthNet.uav[13] utilizationSecCharge 3390
scalar OsgEarthNet.uav[13] utilizationSecIdle 254940.60398936
scalar OsgEarthNet.uav[13] utilizationEnergyMission 2105.0470123291
scalar OsgEarthNet.uav[13] utilizationEnergyMaintenance 1995.757183075
scalar OsgEarthNet.uav[13] utilizationEnergyCharge 4123.0903320312
scalar OsgEarthNet.uav[13] utilizationEnergyOverdrawMission 0
scalar OsgEarthNet.uav[13] utilizationEnergyOverdrawMaintenance 0
scalar OsgEarthNet.uav[13] utilizationCountMissions 1
scalar OsgEarthNet.uav[13] utilizationCountManeuversMission 7
scalar OsgEarthNet.uav[13] utilizationCountManeuversMaintenance 2
scalar OsgEarthNet.uav[13] utilizationCountChargeState 1
scalar OsgEarthNet.uav[13] utilizationCountOverdrawnAfterMission 0
scalar OsgEarthNet.uav[13] utilizationCountIdleState 2
scalar OsgEarthNet.uav[13] utilizationFail 0
scalar OsgEarthNet.uav[13] simulationTime 259200
scalar OsgEarthNet.uav[14] utilizationSecMission 23.329233930829
scalar OsgEarthNet.uav[14] utilizationSecMaintenance 476.50021886036
scalar OsgEarthNet.uav[14] utilizationSecCharge 2400
scalar OsgEarthNet.uav[14] utilizationSecIdle 256300.16954721
scalar OsgEarthNet.uav[14] utilizationEnergyMission 127.78374481201
scalar OsgEarthNet.uav[14] utilizationEnergyMaintenance 2288.209892273
scalar OsgEarthNet.uav[14] utilizationEnergyCharge 2415.9919433594
scalar OsgEarthNet.uav[14] utilizationEnergyOverdrawMission 0
scalar OsgEarthNet.uav[14] utilizationEnergyOverdrawMaintenance 0
scalar OsgEarthNet.uav[14] utilizationCountMissions 1
scalar OsgEarthNet.uav[14] utilizationCountManeuversMission 1
scalar OsgEarthNet.uav[14] utilizationCountManeuversMaintenance 2
scalar OsgEarthNet.uav[14] utilizationCountChargeState 1
scalar OsgEarthNet.uav[14] utilizationCountOverdrawnAfterMission 0
scalar OsgEarthNet.uav[14] utilizationCountIdleState 2
scalar OsgEarthNet.uav[14] utilizationFail 0
scalar OsgEarthNet.uav[14] simulationTime 259200
scalar OsgEarthNet.uav[15] utilizationSecMission 694.00169469977
scalar OsgEarthNet.uav[15] utilizationSecMaintenance 229.48898285212
scalar OsgEarthNet.uav[15] utilizationSecCharge 3580
scalar OsgEarthNet.uav[15] utilizationSecIdle 254696.50832245
scalar OsgEarthNet.uav[15] utilizationEnergyMission 3485.1786346436
scalar OsgEarthNet.uav[15] utilizationEnergyMaintenance 1017.2140426636
scalar OsgEarthNet.uav[15] utilizationEnergyCharge 4446.0400390625
scalar OsgEarthNet.uav[15] utilizationEnergyOverdrawMission 0
scalar OsgEarthNet.uav[15] utilizationEnergyOverdrawMaintenance 0
scalar OsgEarthNet.uav[15] utilizationCountMissions 1
scalar OsgEarthNet.uav[15] utilizationCountManeuversMission 13
scalar OsgEarthNet.uav[15] utilizationCountManeuversMaintenance 2
scalar OsgEarthNet.uav[15] utilizationCountChargeState 1
scalar OsgEarthNet.uav[15] utilizationCountOverdrawnAfterMission 0
scalar OsgEarthNet.uav[15] utilizationCountIdleState 2
scalar OsgEarthNet.uav[15] utilizationFail 0
scalar OsgEarthNet.uav[15] simulationTime 259200
scalar OsgEarthNet.uav[16] utilizationSecMission 21469.312933959
scalar OsgEarthNet.uav[16] utilizationSecMaintenance 13621.862511552
scalar OsgEarthNet.uav[16] utilizationSecCharge 140340.77201559
scalar OsgEarthNet.uav[16] utilizationSecIdle 83768.051538898
scalar OsgEarthNet.uav[16] utilizationEnergyMission 100284.60912323
scalar OsgEarthNet.uav[16] utilizationEnergyMaintenance 65116.655536652
scalar OsgEarthNet.uav[16] utilizationEnergyCharge 164991.6730957
scalar OsgEarthNet.uav[16] utilizationEnergyOverdrawMission 0
scalar OsgEarthNet.uav[16] utilizationEnergyOverdrawMaintenance 0
scalar OsgEarthNet.uav[16] utilizationCountMissions 46
scalar OsgEarthNet.uav[16] utilizationCountManeuversMission 352
scalar OsgEarthNet.uav[16] utilizationCountManeuversMaintenance 92
scalar OsgEarthNet.uav[16] utilizationCountChargeState 46
scalar OsgEarthNet.uav[16] utilizationCountOverdrawnAfterMission 0
scalar OsgEarthNet.uav[16] utilizationCountIdleState 46
scalar OsgEarthNet.uav[16] utilizationFail 0
scalar OsgEarthNet.uav[16] simulationTime 259200
scalar OsgEarthNet.uav[17] utilizationSecMission 682.94783150361
scalar OsgEarthNet.uav[17] utilizationSecMaintenance 228.1606024445
scalar OsgEarthNet.uav[17] utilizationSecCharge 3470
scalar OsgEarthNet.uav[17] utilizationSecIdle 254818.89056605
scalar OsgEarthNet.uav[17] utilizationEnergyMission 3140.8466110229
scalar OsgEarthNet.uav[17] utilizationEnergyMaintenance 1165.131401062
scalar OsgEarthNet.uav[17] utilizationEnergyCharge 4305.9760742188
scalar OsgEarthNet.uav[17] utilizationEnergyOverdrawMission 0
scalar OsgEarthNet.uav[17] utilizationEnergyOverdrawMaintenance 0
scalar OsgEarthNet.uav[17] utilizationCountMissions 1
scalar OsgEarthNet.uav[17] utilizationCountManeuversMission 12
scalar OsgEarthNet.uav[17] utilizationCountManeuversMaintenance 2
scalar OsgEarthNet.uav[17] utilizationCountChargeState 1
scalar OsgEarthNet.uav[17] utilizationCountOverdrawnAfterMission 0
scalar OsgEarthNet.uav[17] utilizationCountIdleState 2
scalar OsgEarthNet.uav[17] utilizationFail 0
scalar OsgEarthNet.uav[17] simulationTime 259200
scalar OsgEarthNet.uav[18] utilizationSecMission 26911.844297038
scalar OsgEarthNet.uav[18] utilizationSecMaintenance 13950.312229249
scalar OsgEarthNet.uav[18] utilizationSecCharge 158880
scalar OsgEarthNet.uav[18] utilizationSecIdle 59457.842473713
scalar OsgEarthNet.uav[18] utilizationEnergyMission 123438.84729767
scalar OsgEarthNet.uav[18] utilizationEnergyMaintenance 66050.153030395
scalar OsgEarthNet.uav[18] utilizationEnergyCharge 189333.86474609
scalar OsgEarthNet.uav[18] utilizationEnergyOverdrawMission 0
scalar OsgEarthNet.uav[18] utilizationEnergyOverdrawMaintenance 0
scalar OsgEarthNet.uav[18] utilizationCountMissions 50
scalar OsgEarthNet.uav[18] utilizationCountManeuversMission 431
scalar OsgEarthNet.uav[18] utilizationCountManeuversMaintenance 100
scalar OsgEarthNet.uav[18] utilizationCountChargeState 50
scalar OsgEarthNet.uav[18] utilizationCountOverdrawnAfterMission 0
scalar OsgEarthNet.uav[18] utilizationCountIdleState 51
scalar OsgEarthNet.uav[18] utilizationFail 0
scalar OsgEarthNet.uav[18] simulationTime 259200
scalar OsgEarthNet.uav[19] utilizationSecMission 23902.983933883
scalar OsgEarthNet.uav[19] utilizationSecMaintenance 15521.466097219
scalar OsgEarthNet.uav[19] utilizationSecCharge 152248.12358741
scalar OsgEarthNet.uav[19] utilizationSecIdle 67527.425381488
scalar OsgEarthNet.uav[19] utilizationEnergyMission 111180.45355225
scalar OsgEarthNet.uav[19] utilizationEnergyMaintenance 73437.966499329
scalar OsgEarthNet.uav[19] utilizationEnergyCharge 180584.42004395
scalar OsgEarthNet.uav[19] utilizationEnergyOverdrawMission 0
scalar OsgEarthNet.uav[19] utilizationEnergyOverdrawMaintenance 0
scalar OsgEarthNet.uav[19] utilizationCountMissions 49
scalar OsgEarthNet.uav[19] utilizationCountManeuversMission 380
scalar OsgEarthNet.uav[19] utilizationCountManeuversMaintenance 98
scalar OsgEarthNet.uav[19] utilizationCountChargeState 49
scalar OsgEarthNet.uav[19] utilizationCountOverdrawnAfterMission 0
scalar OsgEarthNet.uav[19] utilizationCountIdleState 49
scalar OsgEarthNet.uav[19] utilizationFail 0
scalar OsgEarthNet.uav[19] simulationTime 259200
scalar OsgEarthNet.uav[20] utilizationSecMission 25188.18139571
scalar OsgEarthNet.uav[20] utilizationSecMaintenance 11533.139907983
scalar OsgEarthNet.uav[20] utilizationSecCharge 138700
scalar OsgEarthNet.uav[20] utilizationSecIdle 83778.677696308
scalar OsgEarthNet.uav[20] utilizationEnergyMission 116684.35036018
scalar OsgEarthNet.uav[20] utilizationEnergyMaintenance 53633.656337738
scalar OsgEarthNet.uav[20] utilizationEnergyCharge 169497.4909668
scalar OsgEarthNet.uav[20] utilizationEnergyOverdrawMission 0
scalar OsgEarthNet.uav[20] utilizationEnergyOverdrawMaintenance 0
scalar OsgEarthNet.uav[20] utilizationCountMissions 41
scalar OsgEarthNet.uav[20] utilizationCountManeuversMission 409
scalar OsgEarthNet.uav[20] utilizationCountManeuversMaintenance 83
scalar OsgEarthNet.uav[20] utilizationCountChargeState 41
scalar OsgEarthNet.uav[20] utilizationCountOverdrawnAfterMission 0
scalar OsgEarthNet.uav[20] utilizationCountIdleState 42
scalar OsgEarthNet.uav[20] utilizationFail 0
scalar OsgEarthNet.uav[20] simulationTime 259200
scalar OsgEarthNet.uav[21] utilizationSecMission 18084.784328406
scalar OsgEarthNet.uav[21] utilizationSecMaintenance 9160.5378745938
scalar OsgEarthNet.uav[21] utilizationSecCharge 107450
scalar OsgEarthNet.uav[21] utilizationSecIdle 124504.676797
scalar OsgEarthNet.uav[21] utilizationEnergyMission 84413.440315247
scalar OsgEarthNet.uav[21] utilizationEnergyMaintenance 42576.725261688
scalar OsgEarthNet.uav[21] utilizationEnergyCharge 127072.83520508
scalar OsgEarthNet.uav[21] utilizationEnergyOverdrawMission 0
scalar OsgEarthNet.uav[21] utilizationEnergyOverdrawMaintenance 0
scalar OsgEarthNet.uav[21] utilizationCountMissions 34
scalar OsgEarthNet.uav[21] utilizationCountManeuversMission 305
scalar OsgEarthNet.uav[21] utilizationCountManeuversMaintenance 68
scalar OsgEarthNet.uav[21] utilizationCountChargeState 34
scalar OsgEarthNet.uav[21] utilizationCountOverdrawnAfterMission 0
scalar OsgEarthNet.uav[21] utilizationCountIdleState 35
scalar OsgEarthNet.uav[21] utilizationFail 0
scalar OsgEarthNet.uav[21] simulationTime 259200
scalar OsgEarthNet.uav[22] utilizationSecMission 443.5870541303
scalar OsgEarthNet.uav[22] utilizationSecMaintenance 125.81102573108
scalar OsgEarthNet.uav[22] utilizationSecCharge 2530
scalar OsgEarthNet.uav[22] utilizationSecIdle 256100.60092014
scalar OsgEarthNet.uav[22] utilizationEnergyMission 2059.9410247803
scalar OsgEarthNet.uav[22] utilizationEnergyMaintenance 633.52495574951
scalar OsgEarthNet.uav[22] utilizationEnergyCharge 2650.2265625
scalar OsgEarthNet.uav[22] utilizationEnergyOverdrawMission 0
scalar OsgEarthNet.uav[22] utilizationEnergyOverdrawMaintenance 0
scalar OsgEarthNet.uav[22] utilizationCountMissions 1
scalar OsgEarthNet.uav[22] utilizationCountManeuversMission 7
scalar OsgEarthNet.uav[22] utilizationCountManeuversMaintenance 2
scalar OsgEarthNet.uav[22] utilizationCountChargeState 1
scalar OsgEarthNet.uav[22] utilizationCountOverdrawnAfterMission 0
scalar OsgEarthNet.uav[22] utilizationCountIdleState 2
scalar OsgEarthNet.uav[22] utilizationFail 0
scalar OsgEarthNet.uav[22] simulationTime 259200
scalar OsgEarthNet.uav[23] utilizationSecMission 570.98871244881
scalar OsgEarthNet.uav[23] utilizationSecMaintenance 286.2282017063
scalar OsgEarthNet.uav[23] utilizationSecCharge 3430
scalar OsgEarthNet.uav[23] utilizationSecIdle 254912.78208584
scalar OsgEarthNet.uav[23] utilizationEnergyMission 2838.3738250732
scalar OsgEarthNet.uav[23] utilizationEnergyMaintenance 1413.6711044312
scalar OsgEarthNet.uav[23] utilizationEnergyCharge 4252.041015625
scalar OsgEarthNet.uav[23] utilizationEnergyOverdrawMission 0
scalar OsgEarthNet.uav[23] utilizationEnergyOverdrawMaintenance 0
scalar OsgEarthNet.uav[23] utilizationCountMissions 1
scalar OsgEarthNet.uav[23] utilizationCountManeuversMission 8
scalar OsgEarthNet.uav[23] utilizationCountManeuversMaintenance 2
scalar OsgEarthNet.uav[23] utilizationCountChargeState 1
scalar OsgEarthNet.uav[23] utilizationCountOverdrawnAfterMission 0
scalar OsgEarthNet.uav[23] utilizationCountIdleState 2
scalar OsgEarthNet.uav[23] utilizationFail 0
scalar OsgEarthNet.uav[23] simulationTime 259200
scalar OsgEarthNet.uav[24] utilizationSecMission 20658.039091366
scalar OsgEarthNet.uav[24] utilizationSecMaintenance 12782.644437367
scalar OsgEarthNet.uav[24] utilizationSecCharge 134130
scalar OsgEarthNet.uav[24] utilizationSecIdle 91629.315471267
scalar OsgEarthNet.uav[24] utilizationEnergyMission 96203.109382629
scalar OsgEarthNet.uav[24] utilizationEnergyMaintenance 60766.894699097
scalar OsgEarthNet.uav[24] utilizationEnergyCharge 156483.46704102
scalar OsgEarthNet.uav[24] utilizationEnergyOverdrawMission 0
scalar OsgEarthNet.uav[24] utilizationEnergyOverdrawMaintenance 0
scalar OsgEarthNet.uav[24] utilizationCountMissions 44
scalar OsgEarthNet.uav[24] utilizationCountManeuversMission 336
scalar OsgEarthNet.uav[24] utilizationCountManeuversMaintenance 88
scalar OsgEarthNet.uav[24] utilizationCountChargeState 44
scalar OsgEarthNet.uav[24] utilizationCountOverdrawnAfterMission 0
scalar OsgEarthNet.uav[24] utilizationCountIdleState 45
scalar OsgEarthNet.uav[24] utilizationFail 0
scalar OsgEarthNet.uav[24] simulationTime 259200
scalar OsgEarthNet.uav[25] utilizationSecMission 29166.660674284
scalar OsgEarthNet.uav[25] utilizationSecMaintenance 13767.962321973
scalar OsgEarthNet.uav[25] utilizationSecCharge 167599.33990497
scalar OsgEarthNet.uav[25] utilizationSecIdle 48666.036098769
scalar OsgEarthNet.uav[25] utilizationEnergyMission 133058.06430054
scalar OsgEarthNet.uav[25] utilizationEnergyMaintenance 64083.136035919
scalar OsgEarthNet.uav[25] utilizationEnergyCharge 197112.08886719
scalar OsgEarthNet.uav[25] utilizationEnergyOverdrawMission 0
scalar OsgEarthNet.uav[25] utilizationEnergyOverdrawMaintenance 0
scalar OsgEarthNet.uav[25] utilizationCountMissions 54
scalar OsgEarthNet.uav[25] utilizationCountManeuversMission 470
scalar OsgEarthNet.uav[25] utilizationCountManeuversMaintenance 108
scalar OsgEarthNet.uav[25] utilizationCountChargeState 54
scalar OsgEarthNet.uav[25] utilizationCountOverdrawnAfterMission 0
scalar OsgEarthNet.uav[25] utilizationCountIdleState 54
scalar OsgEarthNet.uav[25] utilizationFail 0
scalar OsgEarthNet.uav[25] simulationTime 259200
scalar OsgEarthNet.uav[26] utilizationSecMission 443.5870541303
scalar OsgEarthNet.uav[26] utilizationSecMaintenance 425.80795651079
scalar OsgEarthNet.uav[26] utilizationSecCharge 3210
scalar OsgEarthNet.uav[26] utilizationSecIdle 255120.60398936
scalar OsgEarthNet.uav[26] utilizationEnergyMission 1982.7771911621
scalar OsgEarthNet.uav[26] utilizationEnergyMaintenance 1879.1838340759
scalar OsgEarthNet.uav[26] utilizationEnergyCharge 3808.4509277344
scalar OsgEarthNet.uav[26] utilizationEnergyOverdrawMission 0
scalar OsgEarthNet.uav[26] utilizationEnergyOverdrawMaintenance 0
scalar OsgEarthNet.uav[26] utilizationCountMissions 1
scalar OsgEarthNet.uav[26] utilizationCountManeuversMission 7
scalar OsgEarthNet.uav[26] utilizationCountManeuversMaintenance 2
scalar OsgEarthNet.uav[26] utilizationCountChargeState 1
scalar OsgEarthNet.uav[26] utilizationCountOverdrawnAfterMission 0
scalar OsgEarthNet.uav[26] utilizationCountIdleState 2
scalar OsgEarthNet.uav[26] utilizationFail 0
scalar OsgEarthNet.uav[26] simulationTime 259200
scalar OsgEarthNet.uav[27] utilizationSecMission 1792.7001962491
scalar OsgEarthNet.uav[27] utilizationSecMaintenance 1001.2049194676
scalar OsgEarthNet.uav[27] utilizationSecCharge 11750
scalar OsgEarthNet.uav[27] utilizationSecIdle 244656.09388428
scalar OsgEarthNet.uav[27] utilizationEnergyMission 8493.9808654785
scalar OsgEarthNet.uav[27] utilizationEnergyMaintenance 4896.3966331482
scalar OsgEarthNet.uav[27] utilizationEnergyCharge 13390.378417969
scalar OsgEarthNet.uav[27] utilizationEnergyOverdrawMission 0
scalar OsgEarthNet.uav[27] utilizationEnergyOverdrawMaintenance 0
scalar OsgEarthNet.uav[27] utilizationCountMissions 4
scalar OsgEarthNet.uav[27] utilizationCountManeuversMission 30
scalar OsgEarthNet.uav[27] utilizationCountManeuversMaintenance 8
scalar OsgEarthNet.uav[27] utilizationCountChargeState 4
scalar OsgEarthNet.uav[27] utilizationCountOverdrawnAfterMission 0
scalar OsgEarthNet.uav[27] utilizationCountIdleState 5
scalar OsgEarthNet.uav[27] utilizationFail 0
scalar OsgEarthNet.uav[27] simulationTime 259200
scalar OsgEarthNet.uav[28] utilizationSecMission 29820.736069299
scalar OsgEarthNet.uav[28] utilizationSecMaintenance 13836.781571982
scalar OsgEarthNet.uav[28] utilizationSecCharge 167096.47866578
scalar OsgEarthNet.uav[28] utilizationSecIdle 48446.002692942
scalar OsgEarthNet.uav[28] utilizationEnergyMission 138655.71768188
scalar OsgEarthNet.uav[28] utilizationEnergyMaintenance 64997.327877045
scalar OsgEarthNet.uav[28] utilizationEnergyCharge 201387.18994141
scalar OsgEarthNet.uav[28] utilizationEnergyOverdrawMission 0
scalar OsgEarthNet.uav[28] utilizationEnergyOverdrawMaintenance 0
scalar OsgEarthNet.uav[28] utilizationCountMissions 52
scalar OsgEarthNet.uav[28] utilizationCountManeuversMission 483
scalar OsgEarthNet.uav[28] utilizationCountManeuversMaintenance 104
scalar OsgEarthNet.uav[28] utilizationCountChargeState 52
scalar OsgEarthNet.uav[28] utilizationCountOverdrawnAfterMission 0
scalar OsgEarthNet.uav[28] utilizationCountIdleState 52
scalar OsgEarthNet.uav[28] utilizationFail 0
scalar OsgEarthNet.uav[28] simulationTime 259200
scalar OsgEarthNet.uav[29] utilizationSecMission 14658.749549593
scalar OsgEarthNet.uav[29] utilizationSecMaintenance 7697.4243013417
scalar OsgEarthNet.uav[29] utilizationSecCharge 87120
scalar OsgEarthNet.uav[29] utilizationSecIdle 149723.82514906
scalar OsgEarthNet.uav[29] utilizationEnergyMission 68297.536903381
scalar OsgEarthNet.uav[29] utilizationEnergyMaintenance 36203.726573944
scalar OsgEarthNet.uav[29] utilizationEnergyCharge 104296.9206543
scalar OsgEarthNet.uav[29] utilizationEnergyOverdrawMission 0
scalar OsgEarthNet.uav[29] utilizationEnergyOverdrawMaintenance 0
scalar OsgEarthNet.uav[29] utilizationCountMissions 27
scalar OsgEarthNet.uav[29] utilizationCountManeuversMission 242
scalar OsgEarthNet.uav[29] utilizationCountManeuversMaintenance 54
scalar OsgEarthNet.uav[29] utilizationCountChargeState 27
scalar OsgEarthNet.uav[29] utilizationCountOverdrawnAfterMission 0
scalar OsgEarthNet.uav[29] utilizationCountIdleState 28
scalar OsgEarthNet.uav[29] utilizationFail 0
scalar OsgEarthNet.uav[29] simulationTime 259200
scalar OsgEarthNet.uav[30] utilizationSecMission 4123.0378460058
scalar OsgEarthNet.uav[30] utilizationSecMaintenance 1913.9307586177
scalar OsgEarthNet.uav[30] utilizationSecCharge 22620
scalar OsgEarthNet.uav[30] utilizationSecIdle 230543.03039538
scalar OsgEarthNet.uav[30] utilizationEnergyMission 18243.617164612
scalar OsgEarthNet.uav[30] utilizationEnergyMaintenance 8952.0050201416
scalar OsgEarthNet.uav[30] utilizationEnergyCharge 27135.259033203
scalar OsgEarthNet.uav[30] utilizationEnergyOverdrawMission 0
scalar OsgEarthNet.uav[30] utilizationEnergyOverdrawMaintenance 0
scalar OsgEarthNet.uav[30] utilizationCountMissions 7
scalar OsgEarthNet.uav[30] utilizationCountManeuversMission 63
scalar OsgEarthNet.uav[30] utilizationCountManeuversMaintenance 14
scalar OsgEarthNet.uav[30] utilizationCountChargeState 7
scalar OsgEarthNet.uav[30] utilizationCountOverdrawnAfterMission 0
scalar OsgEarthNet.uav[30] utilizationCountIdleState 8
scalar OsgEarthNet.uav[30] utilizationFail 0
scalar OsgEarthNet.uav[30] simulationTime 259200
scalar OsgEarthNet.uav[31] utilizationSecMission 23.329233930829
scalar OsgEarthNet.uav[31] utilizationSecMaintenance 476.50021886036
scalar OsgEarthNet.uav[31] utilizationSecCharge 2390
scalar OsgEarthNet.uav[31] utilizationSecIdle 256310.16954721
scalar OsgEarthNet.uav[31] utilizationEnergyMission 130.41693115234
scalar OsgEarthNet.uav[31] utilizationEnergyMaintenance 2240.4638595581
scalar OsgEarthNet.uav[31] utilizationEnergyCharge 2370.8857421875
scalar OsgEarthNet.uav[31] utilizationEnergyOverdrawMission 0
scalar OsgEarthNet.uav[31] utilizationEnergyOverdrawMaintenance 0
scalar OsgEarthNet.uav[31] utilizationCountMissions 1
scalar OsgEarthNet.uav[31] utilizationCountManeuversMission 1
scalar OsgEarthNet.uav[31] utilizationCountManeuversMaintenance 2
scalar OsgEarthNet.uav[31] utilizationCountChargeState 1
scalar OsgEarthNet.uav[31] utilizationCountOverdrawnAfterMission 0
scalar OsgEarthNet.uav[31] utilizationCountIdleState 2
scalar OsgEarthNet.uav[31] utilizationFail 0
scalar OsgEarthNet.uav[31] simulationTime 259200
scalar OsgEarthNet.uav[32] utilizationSecMission 29718.162825519
scalar OsgEarthNet.uav[32] utilizationSecMaintenance 10956.616825027
scalar OsgEarthNet.uav[32] utilizationSecCharge 154939.55991734
scalar OsgEarthNet.uav[32] utilizationSecIdle 63585.659432111
scalar OsgEarthNet.uav[32] utilizationEnergyMission 137719.43502045
scalar OsgEarthNet.uav[32] utilizationEnergyMaintenance 50866.699886322
scalar OsgEarthNet.uav[32] utilizationEnergyCharge 188032.56616211
scalar OsgEarthNet.uav[32] utilizationEnergyOverdrawMission 0
scalar OsgEarthNet.uav[32] utilizationEnergyOverdrawMaintenance 0
scalar OsgEarthNet.uav[32] utilizationCountMissions 47
scalar OsgEarthNet.uav[32] utilizationCountManeuversMission 482
scalar OsgEarthNet.uav[32] utilizationCountManeuversMaintenance 94
scalar OsgEarthNet.uav[32] utilizationCountChargeState 47
scalar OsgEarthNet.uav[32] utilizationCountOverdrawnAfterMission 0
scalar OsgEarthNet.uav[32] utilizationCountIdleState 47
scalar OsgEarthNet.uav[32] utilizationFail 0
scalar OsgEarthNet.uav[32] simulationTime 259200
scalar OsgEarthNet.uav[33] utilizationSecMission 23.32923393083
scalar OsgEarthNet.uav[33] utilizationSecMaintenance 574.24089467002
scalar OsgEarthNet.uav[33] utilizationSecCharge 2580
scalar OsgEarthNet.uav[33] utilizationSecIdle 256022.4288714
scalar OsgEarthNet.uav[33] utilizationEnergyMission 96.248405456544
scalar OsgEarthNet.uav[33] utilizationEnergyMaintenance 2644.0260124207
scalar OsgEarthNet.uav[33] utilizationEnergyCharge 2740.2690429688
scalar OsgEarthNet.uav[33] utilizationEnergyOverdrawMission 0
scalar OsgEarthNet.uav[33] utilizationEnergyOverdrawMaintenance 0
scalar OsgEarthNet.uav[33] utilizationCountMissions 1
scalar OsgEarthNet.uav[33] utilizationCountManeuversMission 1
scalar OsgEarthNet.uav[33] utilizationCountManeuversMaintenance 2
scalar OsgEarthNet.uav[33] utilizationCountChargeState 1
scalar OsgEarthNet.uav[33] utilizationCountOverdrawnAfterMission 0
scalar OsgEarthNet.uav[33] utilizationCountIdleState 2
scalar OsgEarthNet.uav[33] utilizationFail 0
scalar OsgEarthNet.uav[33] simulationTime 259200
scalar OsgEarthNet.uav[34] utilizationSecMission 25596.717256566
scalar OsgEarthNet.uav[34] utilizationSecMaintenance 16164.928140555
scalar OsgEarthNet.uav[34] utilizationSecCharge 165680
scalar OsgEarthNet.uav[34] utilizationSecIdle 51758.353602879
scalar OsgEarthNet.uav[34] utilizationEnergyMission 118488.40401501
scalar OsgEarthNet.uav[34] utilizationEnergyMaintenance 75655.720134735
scalar OsgEarthNet.uav[34] utilizationEnergyCharge 190148.97631836
scalar OsgEarthNet.uav[34] utilizationEnergyOverdrawMission 0
scalar OsgEarthNet.uav[34] utilizationEnergyOverdrawMaintenance 0
scalar OsgEarthNet.uav[34] utilizationCountMissions 56
scalar OsgEarthNet.uav[34] utilizationCountManeuversMission 426
scalar OsgEarthNet.uav[34] utilizationCountManeuversMaintenance 113
scalar OsgEarthNet.uav[34] utilizationCountChargeState 56
scalar OsgEarthNet.uav[34] utilizationCountOverdrawnAfterMission 0
scalar OsgEarthNet.uav[34] utilizationCountIdleState 57
scalar OsgEarthNet.uav[34] utilizationFail 0
scalar OsgEarthNet.uav[34] simulationTime 259200
scalar OsgEarthNet.uav[35] utilizationSecMission 694.00169469977
scalar OsgEarthNet.uav[35] utilizationSecMaintenance 229.48898285212
scalar OsgEarthNet.uav[35] utilizationSecCharge 3420
scalar OsgEarthNet.uav[35] utilizationSecIdle 254856.50832245
scalar OsgEarthNet.uav[35] utilizationEnergyMission 3293.5567321777
scalar OsgEarthNet.uav[35] utilizationEnergyMaintenance 994.34883880615
scalar OsgEarthNet.uav[35] utilizationEnergyCharge 4186.0893554688
scalar OsgEarthNet.uav[35] utilizationEnergyOverdrawMission 0
scalar OsgEarthNet.uav[35] utilizationEnergyOverdrawMaintenance 0
scalar OsgEarthNet.uav[35] utilizationCountMissions 1
scalar OsgEarthNet.uav[35] utilizationCountManeuversMission 13
scalar OsgEarthNet.uav[35] utilizationCountManeuversMaintenance 2
scalar OsgEarthNet.uav[35] utilizationCountChargeState 1
scalar OsgEarthNet.uav[35] utilizationCountOverdrawnAfterMission 0
scalar OsgEarthNet.uav[35] utilizationCountIdleState 2
scalar OsgEarthNet.uav[35] utilizationFail 0
scalar OsgEarthNet.uav[35] simulationTime 259200
scalar OsgEarthNet.uav[36] utilizationSecMission 27108.704700353
scalar OsgEarthNet.uav[36] utilizationSecMaintenance 15627.817664795
scalar OsgEarthNet.uav[36] utilizationSecCharge 167877.92972559
scalar OsgEarthNet.uav[36] utilizationSecIdle 48585.546909258
scalar OsgEarthNet.uav[36] utilizationEnergyMission 124800.31246567
scalar OsgEarthNet.uav[36] utilizationEnergyMaintenance 72839.753871918
scalar OsgEarthNet.uav[36] utilizationEnergyCharge 195589.78100586
scalar OsgEarthNet.uav[36] utilizationEnergyOverdrawMission 0
scalar OsgEarthNet.uav[36] utilizationEnergyOverdrawMaintenance 0
scalar OsgEarthNet.uav[36] utilizationCountMissions 56
scalar OsgEarthNet.uav[36] utilizationCountManeuversMission 440
scalar OsgEarthNet.uav[36] utilizationCountManeuversMaintenance 112
scalar OsgEarthNet.uav[36] utilizationCountChargeState 56
scalar OsgEarthNet.uav[36] utilizationCountOverdrawnAfterMission 0
scalar OsgEarthNet.uav[36] utilizationCountIdleState 56
scalar OsgEarthNet.uav[36] utilizationFail 0
scalar OsgEarthNet.uav[36] simulationTime 259200
scalar OsgEarthNet.uav[37] utilizationSecMission 4428.7651083473
scalar OsgEarthNet.uav[37] utilizationSecMaintenance 2387.5479381061
scalar OsgEarthNet.uav[37] utilizationSecCharge 28920
scalar OsgEarthNet.uav[37] utilizationSecIdle 223463.68595355
scalar OsgEarthNet.uav[37] utilizationEnergyMission 20627.758041382
scalar OsgEarthNet.uav[37] utilizationEnergyMaintenance 12161.110710144
scalar OsgEarthNet.uav[37] utilizationEnergyCharge 32788.869384766
scalar OsgEarthNet.uav[37] utilizationEnergyOverdrawMission 0
scalar OsgEarthNet.uav[37] utilizationEnergyOverdrawMaintenance 0
scalar OsgEarthNet.uav[37] utilizationCountMissions 10
scalar OsgEarthNet.uav[37] utilizationCountManeuversMission 74
scalar OsgEarthNet.uav[37] utilizationCountManeuversMaintenance 20
scalar OsgEarthNet.uav[37] utilizationCountChargeState 10
scalar OsgEarthNet.uav[37] utilizationCountOverdrawnAfterMission 0
scalar OsgEarthNet.uav[37] utilizationCountIdleState 11
scalar OsgEarthNet.uav[37] utilizationFail 0
scalar OsgEarthNet.uav[37] simulationTime 259200
scalar OsgEarthNet.uav[38] utilizationSecMission 570.98871244881
scalar OsgEarthNet.uav[38] utilizationSecMaintenance 295.50253239167
scalar OsgEarthNet.uav[38] utilizationSecCharge 3470
scalar OsgEarthNet.uav[38] utilizationSecIdle 254863.50775516
scalar OsgEarthNet.uav[38] utilizationEnergyMission 2754.696182251
scalar OsgEarthNet.uav[38] utilizationEnergyMaintenance 1495.3139762878
scalar OsgEarthNet.uav[38] utilizationEnergyCharge 4250.009765625
scalar OsgEarthNet.uav[38] utilizationEnergyOverdrawMission 0
scalar OsgEarthNet.uav[38] utilizationEnergyOverdrawMaintenance 0
scalar OsgEarthNet.uav[38] utilizationCountMissions 1
scalar OsgEarthNet.uav[38] utilizationCountManeuversMission 8
scalar OsgEarthNet.uav[38] utilizationCountManeuversMaintenance 2
scalar OsgEarthNet.uav[38] utilizationCountChargeState 1
scalar OsgEarthNet.uav[38] utilizationCountOverdrawnAfterMission 0
scalar OsgEarthNet.uav[38] utilizationCountIdleState 2
scalar OsgEarthNet.uav[38] utilizationFail 0
scalar OsgEarthNet.uav[38] simulationTime 259200
scalar OsgEarthNet.uav[39] utilizationSecMission 2261.0346075368
scalar OsgEarthNet.uav[39] utilizationSecMaintenance 1141.8702249159
scalar OsgEarthNet.uav[39] utilizationSecCharge 13030
scalar OsgEarthNet.uav[39] utilizationSecIdle 242767.09416755
scalar OsgEarthNet.uav[39] utilizationEnergyMission 10270.411743164
scalar OsgEarthNet.uav[39] utilizationEnergyMaintenance 5357.6912231445
scalar OsgEarthNet.uav[39] utilizationEnergyCharge 15628.095458984
scalar OsgEarthNet.uav[39] utilizationEnergyOverdrawMission 0
scalar OsgEarthNet.uav[39] utilizationEnergyOverdrawMaintenance 0
scalar OsgEarthNet.uav[39] utilizationCountMissions 4
scalar OsgEarthNet.uav[39] utilizationCountManeuversMission 34
scalar OsgEarthNet.uav[39] utilizationCountManeuversMaintenance 8
scalar OsgEarthNet.uav[39] utilizationCountChargeState 4
scalar OsgEarthNet.uav[39] utilizationCountOverdrawnAfterMission 0
scalar OsgEarthNet.uav[39] utilizationCountIdleState 5
scalar OsgEarthNet.uav[39] utilizationFail 0
scalar OsgEarthNet.uav[39] simulationTime 259200
scalar OsgEarthNet.uav[40] utilizationSecMission 4842.3828726966
scalar OsgEarthNet.uav[40] utilizationSecMaintenance 4212.2192176154
scalar OsgEarthNet.uav[40] utilizationSecCharge 36280
scalar OsgEarthNet.uav[40] utilizationSecIdle 213865.39690969
scalar OsgEarthNet.uav[40] utilizationEnergyMission 22600.36075592
scalar OsgEarthNet.uav[40] utilizationEnergyMaintenance 19642.176818848
scalar OsgEarthNet.uav[40] utilizationEnergyCharge 42072.681884766
scalar OsgEarthNet.uav[40] utilizationEnergyOverdrawMission 0
scalar OsgEarthNet.uav[40] utilizationEnergyOverdrawMaintenance 0
scalar OsgEarthNet.uav[40] utilizationCountMissions 12
scalar OsgEarthNet.uav[40] utilizationCountManeuversMission 77
scalar OsgEarthNet.uav[40] utilizationCountManeuversMaintenance 24
scalar OsgEarthNet.uav[40] utilizationCountChargeState 12
scalar OsgEarthNet.uav[40] utilizationCountOverdrawnAfterMission 0
scalar OsgEarthNet.uav[40] utilizationCountIdleState 13
scalar OsgEarthNet.uav[40] utilizationFail 0
scalar OsgEarthNet.uav[40] simulationTime 259200
scalar OsgEarthNet.uav[41] utilizationSecMission 4209.5552109789
scalar OsgEarthNet.uav[41] utilizationSecMaintenance 2591.085830956
scalar OsgEarthNet.uav[41] utilizationSecCharge 25349.0155025
scalar OsgEarthNet.uav[41] utilizationSecIdle 227050.34245557
scalar OsgEarthNet.uav[41] utilizationEnergyMission 19982.617851257
scalar OsgEarthNet.uav[41] utilizationEnergyMaintenance 12049.450756073
scalar OsgEarthNet.uav[41] utilizationEnergyCharge 30052.057373047
scalar OsgEarthNet.uav[41] utilizationEnergyOverdrawMission 0
scalar OsgEarthNet.uav[41] utilizationEnergyOverdrawMaintenance 0
scalar OsgEarthNet.uav[41] utilizationCountMissions 9
scalar OsgEarthNet.uav[41] utilizationCountManeuversMission 70
scalar OsgEarthNet.uav[41] utilizationCountManeuversMaintenance 18
scalar OsgEarthNet.uav[41] utilizationCountChargeState 9
scalar OsgEarthNet.uav[41] utilizationCountOverdrawnAfterMission 0
scalar OsgEarthNet.uav[41] utilizationCountIdleState 9
scalar OsgEarthNet.uav[41] utilizationFail 0
scalar OsgEarthNet.uav[41] simulationTime 259200
scalar OsgEarthNet.uav[42] utilizationSecMission 29249.761505167
scalar OsgEarthNet.uav[42] utilizationSecMaintenance 15322.676998496
scalar OsgEarthNet.uav[42] utilizationSecCharge 171525.56049634
scalar OsgEarthNet.uav[42] utilizationSecIdle 43102
scalar OsgEarthNet.uav[42] utilizationEnergyMission 134338.06127703
scalar OsgEarthNet.uav[42] utilizationEnergyMaintenance 72294.411624908
scalar OsgEarthNet.uav[42] utilizationEnergyCharge 203874.36584473
scalar OsgEarthNet.uav[42] utilizationEnergyOverdrawMission 0
scalar OsgEarthNet.uav[42] utilizationEnergyOverdrawMaintenance 0
scalar OsgEarthNet.uav[42] utilizationCountMissions 55
scalar OsgEarthNet.uav[42] utilizationCountManeuversMission 464
scalar OsgEarthNet.uav[42] utilizationCountManeuversMaintenance 109
scalar OsgEarthNet.uav[42] utilizationCountChargeState 55
scalar OsgEarthNet.uav[42] utilizationCountOverdrawnAfterMission 0
scalar OsgEarthNet.uav[42] utilizationCountIdleState 55
scalar OsgEarthNet.uav[42] utilizationFail 0
scalar OsgEarthNet.uav[42] simulationTime 259200
scalar OsgEarthNet.uav[43] utilizationSecMission 11688.74427452
scalar OsgEarthNet.uav[43] utilizationSecMaintenance 6218.8522255433
scalar OsgEarthNet.uav[43] utilizationSecCharge 69710
scalar OsgEarthNet.uav[43] utilizationSecIdle 171582.40249994
scalar OsgEarthNet.uav[43] utilizationEnergyMission 53865.499820709
scalar OsgEarthNet.uav[43] utilizationEnergyMaintenance 28942.172531128
scalar OsgEarthNet.uav[43] utilizationEnergyCharge 82847.767578125
scalar OsgEarthNet.uav[43] utilizationEnergyOverdrawMission 0
scalar OsgEarthNet.uav[43] utilizationEnergyOverdrawMaintenance 0
scalar OsgEarthNet.uav[43] utilizationCountMissions 22
scalar OsgEarthNet.uav[43] utilizationCountManeuversMission 185
scalar OsgEarthNet.uav[43] utilizationCountManeuversMaintenance 44
scalar OsgEarthNet.uav[43] utilizationCountChargeState 22
scalar OsgEarthNet.uav[43] utilizationCountOverdrawnAfterMission 0
scalar OsgEarthNet.uav[43] utilizationCountIdleState 23
scalar OsgEarthNet.uav[43] utilizationFail 0
scalar OsgEarthNet.uav[43] simulationTime 259200
scalar OsgEarthNet.uav[44] utilizationSecMission 9079.3359682102
scalar OsgEarthNet.uav[44] utilizationSecMaintenance 4972.6289008518
scalar OsgEarthNet.uav[44] utilizationSecCharge 54680
scalar OsgEarthNet.uav[44] utilizationSecIdle 190468.03413094
scalar OsgEarthNet.uav[44] utilizationEnergyMission 41831.285331726
scalar OsgEarthNet.uav[44] utilizationEnergyMaintenance 23512.156410217
scalar OsgEarthNet.uav[44] utilizationEnergyCharge 65295.363769531
scalar OsgEarthNet.uav[44] utilizationEnergyOverdrawMission 0
scalar OsgEarthNet.uav[44] utilizationEnergyOverdrawMaintenance 0
scalar OsgEarthNet.uav[44] utilizationCountMissions 17
scalar OsgEarthNet.uav[44] utilizationCountManeuversMission 148
scalar OsgEarthNet.uav[44] utilizationCountManeuversMaintenance 34
scalar OsgEarthNet.uav[44] utilizationCountChargeState 17
scalar OsgEarthNet.uav[44] utilizationCountOverdrawnAfterMission 0
scalar OsgEarthNet.uav[44] utilizationCountIdleState 18
scalar OsgEarthNet.uav[44] utilizationFail 0
scalar OsgEarthNet.uav[44] simulationTime 259200
scalar OsgEarthNet.uav[45] utilizationSecMission 15841.299834127
scalar OsgEarthNet.uav[45] utilizationSecMaintenance 6982.1659039865
scalar OsgEarthNet.uav[45] utilizationSecCharge 86850
scalar OsgEarthNet.uav[45] utilizationSecIdle 149526.53326189
scalar OsgEarthNet.uav[45] utilizationEnergyMission 73675.969631195
scalar OsgEarthNet.uav[45] utilizationEnergyMaintenance 32430.860389709
scalar OsgEarthNet.uav[45] utilizationEnergyCharge 105801.29516602
scalar OsgEarthNet.uav[45] utilizationEnergyOverdrawMission 0
scalar OsgEarthNet.uav[45] utilizationEnergyOverdrawMaintenance 0
scalar OsgEarthNet.uav[45] utilizationCountMissions 26
scalar OsgEarthNet.uav[45] utilizationCountManeuversMission 266
scalar OsgEarthNet.uav[45] utilizationCountManeuversMaintenance 52
scalar OsgEarthNet.uav[45] utilizationCountChargeState 26
scalar OsgEarthNet.uav[45] utilizationCountOverdrawnAfterMission 0
scalar OsgEarthNet.uav[45] utilizationCountIdleState 27
scalar OsgEarthNet.uav[45] utilizationFail 0
scalar OsgEarthNet.uav[45] simulationTime 259200
scalar OsgEarthNet.uav[46] utilizationSecMission 443.5870541303
scalar OsgEarthNet.uav[46] utilizationSecMaintenance 425.80795651079
scalar OsgEarthNet.uav[46] utilizationSecCharge 3370
scalar OsgEarthNet.uav[46] utilizationSecIdle 254960.60398936
scalar OsgEarthNet.uav[46] utilizationEnergyMission 2112.8050689697
scalar OsgEarthNet.uav[46] utilizationEnergyMaintenance 2019.6807060242
scalar OsgEarthNet.uav[46] utilizationEnergyCharge 4130.7036132812
scalar OsgEarthNet.uav[46] utilizationEnergyOverdrawMission 0
scalar OsgEarthNet.uav[46] utilizationEnergyOverdrawMaintenance 0
scalar OsgEarthNet.uav[46] utilizationCountMissions 1
scalar OsgEarthNet.uav[46] utilizationCountManeuversMission 7
scalar OsgEarthNet.uav[46] utilizationCountManeuversMaintenance 2
scalar OsgEarthNet.uav[46] utilizationCountChargeState 1
scalar OsgEarthNet.uav[46] utilizationCountOverdrawnAfterMission 0
scalar OsgEarthNet.uav[46] utilizationCountIdleState 2
scalar OsgEarthNet.uav[46] utilizationFail 0
scalar OsgEarthNet.uav[46] simulationTime 259200
scalar OsgEarthNet.uav[47] utilizationSecMission 25437.633172521
scalar OsgEarthNet.uav[47] utilizationSecMaintenance 11933.887562429
scalar OsgEarthNet.uav[47] utilizationSecCharge 145231.0683737
scalar OsgEarthNet.uav[47] utilizationSecIdle 76597.40989135
scalar OsgEarthNet.uav[47] utilizationEnergyMission 116266.26907349
scalar OsgEarthNet.uav[47] utilizationEnergyMaintenance 56192.309783936
scalar OsgEarthNet.uav[47] utilizationEnergyCharge 171683.05493164
scalar OsgEarthNet.uav[47] utilizationEnergyOverdrawMission 0
scalar OsgEarthNet.uav[47] utilizationEnergyOverdrawMaintenance 0
scalar OsgEarthNet.uav[47] utilizationCountMissions 47
scalar OsgEarthNet.uav[47] utilizationCountManeuversMission 406
scalar OsgEarthNet.uav[47] utilizationCountManeuversMaintenance 94
scalar OsgEarthNet.uav[47] utilizationCountChargeState 47
scalar OsgEarthNet.uav[47] utilizationCountOverdrawnAfterMission 0
scalar OsgEarthNet.uav[47] utilizationCountIdleState 47
scalar OsgEarthNet.uav[47] utilizationFail 0
scalar OsgEarthNet.uav[47] simulationTime 259200
scalar OsgEarthNet.uav[48] utilizationSecMission 887.1741082606
scalar OsgEarthNet.uav[48] utilizationSecMaintenance 125.81102573108
scalar OsgEarthNet.uav[48] utilizationSecCharge 3600
scalar OsgEarthNet.uav[48] utilizationSecIdle 254587.01386601
scalar OsgEarthNet.uav[48] utilizationEnergyMission 4062.5637054443
scalar OsgEarthNet.uav[48] utilizationEnergyMaintenance 511.27362823486
scalar OsgEarthNet.uav[48] utilizationEnergyCharge 4519.4477539062
scalar OsgEarthNet.uav[48] utilizationEnergyOverdrawMission 0
scalar OsgEarthNet.uav[48] utilizationEnergyOverdrawMaintenance 0
scalar OsgEarthNet.uav[48] utilizationCountMissions 1
scalar OsgEarthNet.uav[48] utilizationCountManeuversMission 14
scalar OsgEarthNet.uav[48] utilizationCountManeuversMaintenance 2
scalar OsgEarthNet.uav[48] utilizationCountChargeState 1
scalar OsgEarthNet.uav[48] utilizationCountOverdrawnAfterMission 0
scalar OsgEarthNet.uav[48] utilizationCountIdleState 2
scalar OsgEarthNet.uav[48] utilizationFail 0
scalar OsgEarthNet.uav[48] simulationTime 259200
scalar OsgEarthNet.uav[49] utilizationSecMission 32089.733024415
scalar OsgEarthNet.uav[49] utilizationSecMaintenance 12818.265975585
scalar OsgEarthNet.uav[49] utilizationSecCharge 170830
scalar OsgEarthNet.uav[49] utilizationSecIdle 43462
scalar OsgEarthNet.uav[49] utilizationEnergyMission 148739.93873978
scalar OsgEarthNet.uav[49] utilizationEnergyMaintenance 60026.89039894
scalar OsgEarthNet.uav[49] utilizationEnergyCharge 204360.43945312
scalar OsgEarthNet.uav[49] utilizationEnergyOverdrawMission 0
scalar OsgEarthNet.uav[49] utilizationEnergyOverdrawMaintenance 0
scalar OsgEarthNet.uav[49] utilizationCountMissions 54
scalar OsgEarthNet.uav[49] utilizationCountManeuversMission 526
scalar OsgEarthNet.uav[49] utilizationCountManeuversMaintenance 107
scalar OsgEarthNet.uav[49] utilizationCountChargeState 53
scalar OsgEarthNet.uav[49] utilizationCountOverdrawnAfterMission 0
scalar OsgEarthNet.uav[49] utilizationCountIdleState 54
scalar OsgEarthNet.uav[49] utilizationFail 0
scalar OsgEarthNet.uav[49] simulationTime 259200
scalar OsgEarthNet.uav[50] utilizationSecMission 15409.70434908
scalar OsgEarthNet.uav[50] utilizationSecMaintenance 7242.4196900992
scalar OsgEarthNet.uav[50] utilizationSecCharge 87610
scalar OsgEarthNet.uav[50] utilizationSecIdle 148937.87496082
scalar OsgEarthNet.uav[50] utilizationEnergyMission 72051.227928162
scalar OsgEarthNet.uav[50] utilizationEnergyMaintenance 33796.774944305
scalar OsgEarthNet.uav[50] utilizationEnergyCharge 105110.84033203
scalar OsgEarthNet.uav[50] utilizationEnergyOverdrawMission 0
scalar OsgEarthNet.uav[50] utilizationEnergyOverdrawMaintenance 0
scalar OsgEarthNet.uav[50] utilizationCountMissions 27
scalar OsgEarthNet.uav[50] utilizationCountManeuversMission 255
scalar OsgEarthNet.uav[50] utilizationCountManeuversMaintenance 54
scalar OsgEarthNet.uav[50] utilizationCountChargeState 27
scalar OsgEarthNet.uav[50] utilizationCountOverdrawnAfterMission 0
scalar OsgEarthNet.uav[50] utilizationCountIdleState 28
scalar OsgEarthNet.uav[50] utilizationFail 0
scalar OsgEarthNet.uav[50] simulationTime 259200
scalar OsgEarthNet.uav[51] utilizationSecMission 213.40226662093
scalar OsgEarthNet.uav[51] utilizationSecMaintenance 292.41944606525
scalar OsgEarthNet.uav[51] utilizationSecCharge 2400
scalar OsgEarthNet.uav[51] utilizationSecIdle 256294.17728731
scalar OsgEarthNet.uav[51] utilizationEnergyMission 1056.8714599609
scalar OsgEarthNet.uav[51] utilizationEnergyMaintenance 1379.5833358765
scalar OsgEarthNet.uav[51] utilizationEnergyCharge 2436.4543457031
scalar OsgEarthNet.uav[51] utilizationEnergyOverdrawMission 0
scalar OsgEarthNet.uav[51] utilizationEnergyOverdrawMaintenance 0
scalar OsgEarthNet.uav[51] utilizationCountMissions 1
scalar OsgEarthNet.uav[51] utilizationCountManeuversMission 3
scalar OsgEarthNet.uav[51] utilizationCountManeuversMaintenance 2
scalar OsgEarthNet.uav[51] utilizationCountChargeState 1
scalar OsgEarthNet.uav[51] utilizationCountOverdrawnAfterMission 0
scalar OsgEarthNet.uav[51] utilizationCountIdleState 2
scalar OsgEarthNet.uav[51] utilizationFail 0
scalar OsgEarthNet.uav[51] simulationTime 259200
scalar OsgEarthNet.uav[52] utilizationSecMission 27648.372103046
scalar OsgEarthNet.uav[52] utilizationSecMaintenance 12848.792360114
scalar OsgEarthNet.uav[52] utilizationSecCharge 160490
scalar OsgEarthNet.uav[52] utilizationSecIdle 58212.834536841
scalar OsgEarthNet.uav[52] utilizationEnergyMission 127289.98827657
scalar OsgEarthNet.uav[52] utilizationEnergyMaintenance 60017.119369507
scalar OsgEarthNet.uav[52] utilizationEnergyCharge 184557.07885742
scalar OsgEarthNet.uav[52] utilizationEnergyOverdrawMission 0
scalar OsgEarthNet.uav[52] utilizationEnergyOverdrawMaintenance 0
scalar OsgEarthNet.uav[52] utilizationCountMissions 54
scalar OsgEarthNet.uav[52] utilizationCountManeuversMission 440
scalar OsgEarthNet.uav[52] utilizationCountManeuversMaintenance 109
scalar OsgEarthNet.uav[52] utilizationCountChargeState 54
scalar OsgEarthNet.uav[52] utilizationCountOverdrawnAfterMission 0
scalar OsgEarthNet.uav[52] utilizationCountIdleState 55
scalar OsgEarthNet.uav[52] utilizationFail 0
scalar OsgEarthNet.uav[52] simulationTime 259200
scalar OsgEarthNet.uav[53] utilizationSecMission 570.98871244881
scalar OsgEarthNet.uav[53] utilizationSecMaintenance 276.2282017063
scalar OsgEarthNet.uav[53] utilizationSecCharge 3410
scalar OsgEarthNet.uav[53] utilizationSecIdle 254942.78208584
scalar OsgEarthNet.uav[53] utilizationEnergyMission 2885.4100799561
scalar OsgEarthNet.uav[53] utilizationEnergyMaintenance 1313.4735832214
scalar OsgEarthNet.uav[53] utilizationEnergyCharge 4198.8881835938
scalar OsgEarthNet.uav[53] utilizationEnergyOverdrawMission 0
scalar OsgEarthNet.uav[53] utilizationEnergyOverdrawMaintenance 0
scalar OsgEarthNet.uav[53] utilizationCountMissions 1
scalar OsgEarthNet.uav[53] utilizationCountManeuversMission 8
scalar OsgEarthNet.uav[53] utilizationCountManeuversMaintenance 2
scalar OsgEarthNet.uav[53] utilizationCountChargeState 1
scalar OsgEarthNet.uav[53] utilizationCountOverdrawnAfterMission 0
scalar OsgEarthNet.uav[53] utilizationCountIdleState 2
scalar OsgEarthNet.uav[53] utilizationFail 0
scalar OsgEarthNet.uav[53] simulationTime 259200
scalar OsgEarthNet.uav[54] utilizationSecMission 369.16643303525
scalar OsgEarthNet.uav[54] utilizationSecMaintenance 404.35423372053
scalar OsgEarthNet.uav[54] utilizationSecCharge 3150
scalar OsgEarthNet.uav[54] utilizationSecIdle 255276.47833324
scalar OsgEarthNet.uav[54] utilizationEnergyMission 1827.6272888184
scalar OsgEarthNet.uav[54] utilizationEnergyMaintenance 1939.8601799011
scalar OsgEarthNet.uav[54] utilizationEnergyCharge 3767.4926757812
scalar OsgEarthNet.uav[54] utilizationEnergyOverdrawMission 0
scalar OsgEarthNet.uav[54] utilizationEnergyOverdrawMaintenance 0
scalar OsgEarthNet.uav[54] utilizationCountMissions 1
scalar OsgEarthNet.uav[54] utilizationCountManeuversMission 6
scalar OsgEarthNet.uav[54] utilizationCountManeuversMaintenance 2
scalar OsgEarthNet.uav[54] utilizationCountChargeState 1
scalar OsgEarthNet.uav[54] utilizationCountOverdrawnAfterMission 0
scalar OsgEarthNet.uav[54] utilizationCountIdleState 2
scalar OsgEarthNet.uav[54] utilizationFail 0
scalar OsgEarthNet.uav[54] simulationTime 259200
scalar OsgEarthNet.uav[55] utilizationSecMission 1481.6137245749
scalar OsgEarthNet.uav[55] utilizationSecMaintenance 1002.8685857368
scalar OsgEarthNet.uav[55] utilizationSecCharge 9610
scalar OsgEarthNet.uav[55] utilizationSecIdle 247105.51668969
scalar OsgEarthNet.uav[55] utilizationEnergyMission 6637.6564865112
scalar OsgEarthNet.uav[55] utilizationEnergyMaintenance 4662.1282157898
scalar OsgEarthNet.uav[55] utilizationEnergyCharge 11396.298095703
scalar OsgEarthNet.uav[55] utilizationEnergyOverdrawMission 0
scalar OsgEarthNet.uav[55] utilizationEnergyOverdrawMaintenance 0
scalar OsgEarthNet.uav[55] utilizationCountMissions 3
scalar OsgEarthNet.uav[55] utilizationCountManeuversMission 28
scalar OsgEarthNet.uav[55] utilizationCountManeuversMaintenance 6
scalar OsgEarthNet.uav[55] utilizationCountChargeState 3
scalar OsgEarthNet.uav[55] utilizationCountOverdrawnAfterMission 0
scalar OsgEarthNet.uav[55] utilizationCountIdleState 4
scalar OsgEarthNet.uav[55] utilizationFail 0
scalar OsgEarthNet.uav[55] simulationTime 259200
scalar OsgEarthNet.uav[56] utilizationSecMission 760.62515258028
scalar OsgEarthNet.uav[56] utilizationSecMaintenance 245.74410321072
scalar OsgEarthNet.uav[56] utilizationSecCharge 3550
scalar OsgEarthNet.uav[56] utilizationSecIdle 254643.62974421
scalar OsgEarthNet.uav[56] utilizationEnergyMission 3352.3348007202
scalar OsgEarthNet.uav[56] utilizationEnergyMaintenance 1073.2655754089
scalar OsgEarthNet.uav[56] utilizationEnergyCharge 4425.599609375
scalar OsgEarthNet.uav[56] utilizationEnergyOverdrawMission 0
scalar OsgEarthNet.uav[56] utilizationEnergyOverdrawMaintenance 0
scalar OsgEarthNet.uav[56] utilizationCountMissions 1
scalar OsgEarthNet.uav[56] utilizationCountManeuversMission 12
scalar OsgEarthNet.uav[56] utilizationCountManeuversMaintenance 2
scalar OsgEarthNet.uav[56] utilizationCountChargeState 1
scalar OsgEarthNet.uav[56] utilizationCountOverdrawnAfterMission 0
scalar OsgEarthNet.uav[56] utilizationCountIdleState 2
scalar OsgEarthNet.uav[56] utilizationFail 0
scalar OsgEarthNet.uav[56] simulationTime 259200
scalar OsgEarthNet.uav[57] utilizationSecMission 23.329233930829
scalar OsgEarthNet.uav[57] utilizationSecMaintenance 636.50021886036
scalar OsgEarthNet.uav[57] utilizationSecCharge 2770
scalar OsgEarthNet.uav[57] utilizationSecIdle 255770.16954721
scalar OsgEarthNet.uav[57] utilizationEnergyMission 136.90567016601
scalar OsgEarthNet.uav[57] utilizationEnergyMaintenance 2972.9670333862
scalar OsgEarthNet.uav[57] utilizationEnergyCharge 3109.869140625
scalar OsgEarthNet.uav[57] utilizationEnergyOverdrawMission 0
scalar OsgEarthNet.uav[57] utilizationEnergyOverdrawMaintenance 0
scalar OsgEarthNet.uav[57] utilizationCountMissions 1
scalar OsgEarthNet.uav[57] utilizationCountManeuversMission 1
scalar OsgEarthNet.uav[57] utilizationCountManeuversMaintenance 2
scalar OsgEarthNet.uav[57] utilizationCountChargeState 1
scalar OsgEarthNet.uav[57] utilizationCountOverdrawnAfterMission 0
scalar OsgEarthNet.uav[57] utilizationCountIdleState 2
scalar OsgEarthNet.uav[57] utilizationFail 0
scalar OsgEarthNet.uav[57] simulationTime 259200
scalar OsgEarthNet.uav[58] utilizationSecMission 7158.9587658786
scalar OsgEarthNet.uav[58] utilizationSecMaintenance 3909.6856573609
scalar OsgEarthNet.uav[58] utilizationSecCharge 40149.34111205
scalar OsgEarthNet.uav[58] utilizationSecIdle 207982.01346471
scalar OsgEarthNet.uav[58] utilizationEnergyMission 32428.822151184
scalar OsgEarthNet.uav[58] utilizationEnergyMaintenance 18109.050197601
scalar OsgEarthNet.uav[58] utilizationEnergyCharge 48953.955078125
scalar OsgEarthNet.uav[58] utilizationEnergyOverdrawMission 0
scalar OsgEarthNet.uav[58] utilizationEnergyOverdrawMaintenance 0
scalar OsgEarthNet.uav[58] utilizationCountMissions 13
scalar OsgEarthNet.uav[58] utilizationCountManeuversMission 113
scalar OsgEarthNet.uav[58] utilizationCountManeuversMaintenance 26
scalar OsgEarthNet.uav[58] utilizationCountChargeState 13
scalar OsgEarthNet.uav[58] utilizationCountOverdrawnAfterMission 0
scalar OsgEarthNet.uav[58] utilizationCountIdleState 13
scalar OsgEarthNet.uav[58] utilizationFail 0
scalar OsgEarthNet.uav[58] simulationTime 259200
scalar OsgEarthNet.uav[59] utilizationSecMission 443.5870541303
scalar OsgEarthNet.uav[59] utilizationSecMaintenance 425.80795651079
scalar OsgEarthNet.uav[59] utilizationSecCharge 3360
scalar OsgEarthNet.uav[59] utilizationSecIdle 254970.60398936
scalar OsgEarthNet.uav[59] utilizationEnergyMission 2125.6305236816
scalar OsgEarthNet.uav[59] utilizationEnergyMaintenance 2080.7081108093
scalar OsgEarthNet.uav[59] utilizationEnergyCharge 4096.537109375
scalar OsgEarthNet.uav[59] utilizationEnergyOverdrawMission 0
scalar OsgEarthNet.uav[59] utilizationEnergyOverdrawMaintenance 0
scalar OsgEarthNet.uav[59] utilizationCountMissions 1
scalar OsgEarthNet.uav[59] utilizationCountManeuversMission 7
scalar OsgEarthNet.uav[59] utilizationCountManeuversMaintenance 2
scalar OsgEarthNet.uav[59] utilizationCountChargeState 1
scalar OsgEarthNet.uav[59] utilizationCountOverdrawnAfterMission 0
scalar OsgEarthNet.uav[59] utilizationCountIdleState 2
scalar OsgEarthNet.uav[59] utilizationFail 0
scalar OsgEarthNet.uav[59] simulationTime 259200
scalar OsgEarthNet.uav[60] utilizationSecMission 179.21601502944
scalar OsgEarthNet.uav[60] utilizationSecMaintenance 354.43405905663
scalar OsgEarthNet.uav[60] utilizationSecCharge 2420
scalar OsgEarthNet.uav[60] utilizationSecIdle 256246.34892591
scalar OsgEarthNet.uav[60] utilizationEnergyMission 837.24407958984
scalar OsgEarthNet.uav[60] utilizationEnergyMaintenance 1618.7180099487
scalar OsgEarthNet.uav[60] utilizationEnergyCharge 2455.9582519531
scalar OsgEarthNet.uav[60] utilizationEnergyOverdrawMission 0
scalar OsgEarthNet.uav[60] utilizationEnergyOverdrawMaintenance 0
scalar OsgEarthNet.uav[60] utilizationCountMissions 1
scalar OsgEarthNet.uav[60] utilizationCountManeuversMission 3
scalar OsgEarthNet.uav[60] utilizationCountManeuversMaintenance 2
scalar OsgEarthNet.uav[60] utilizationCountChargeState 1
scalar OsgEarthNet.uav[60] utilizationCountOverdrawnAfterMission 0
scalar OsgEarthNet.uav[60] utilizationCountIdleState 2
scalar OsgEarthNet.uav[60] utilizationFail 0
scalar OsgEarthNet.uav[60] simulationTime 259200
scalar OsgEarthNet.uav[61] utilizationSecMission 27758.143223101
scalar OsgEarthNet.uav[61] utilizationSecMaintenance 14651.781000273
scalar OsgEarthNet.uav[61] utilizationSecCharge 169278.0732699
scalar OsgEarthNet.uav[61] utilizationSecIdle 47512.001506722
scalar OsgEarthNet.uav[61] utilizationEnergyMission 128800.50471115
scalar OsgEarthNet.uav[61] utilizationEnergyMaintenance 68198.154903412
scalar OsgEarthNet.uav[61] utilizationEnergyCharge 196404.75976562
scalar OsgEarthNet.uav[61] utilizationEnergyOverdrawMission 0
scalar OsgEarthNet.uav[61] utilizationEnergyOverdrawMaintenance 0
scalar OsgEarthNet.uav[61] utilizationCountMissions 57
scalar OsgEarthNet.uav[61] utilizationCountManeuversMission 463
scalar OsgEarthNet.uav[61] utilizationCountManeuversMaintenance 114
scalar OsgEarthNet.uav[61] utilizationCountChargeState 57
scalar OsgEarthNet.uav[61] utilizationCountOverdrawnAfterMission 0
scalar OsgEarthNet.uav[61] utilizationCountIdleState 57
scalar OsgEarthNet.uav[61] utilizationFail 0
scalar OsgEarthNet.uav[61] simulationTime 259200
scalar OsgEarthNet.uav[62] utilizationSecMission 25311.072176116
scalar OsgEarthNet.uav[62] utilizationSecMaintenance 16015.950185979
scalar OsgEarthNet.uav[62] utilizationSecCharge 160455.70611803
scalar OsgEarthNet.uav[62] utilizationSecIdle 57417.270519877
scalar OsgEarthNet.uav[62] utilizationEnergyMission 116414.50550079
scalar OsgEarthNet.uav[62] utilizationEnergyMaintenance 74717.753955841
scalar OsgEarthNet.uav[62] utilizationEnergyCharge 191191.95483398
scalar OsgEarthNet.uav[62] utilizationEnergyOverdrawMission 0
scalar OsgEarthNet.uav[62] utilizationEnergyOverdrawMaintenance 0
scalar OsgEarthNet.uav[62] utilizationCountMissions 51
scalar OsgEarthNet.uav[62] utilizationCountManeuversMission 425
scalar OsgEarthNet.uav[62] utilizationCountManeuversMaintenance 102
scalar OsgEarthNet.uav[62] utilizationCountChargeState 51
scalar OsgEarthNet.uav[62] utilizationCountOverdrawnAfterMission 0
scalar OsgEarthNet.uav[62] utilizationCountIdleState 51
scalar OsgEarthNet.uav[62] utilizationFail 0
scalar OsgEarthNet.uav[62] simulationTime 259200
scalar OsgEarthNet.uav[63] utilizationSecMission 28050.576141757
scalar OsgEarthNet.uav[63] utilizationSecMaintenance 15868.97944631
scalar OsgEarthNet.uav[63] utilizationSecCharge 170088.44341193
scalar OsgEarthNet.uav[63] utilizationSecIdle 45192
scalar OsgEarthNet.uav[63] utilizationEnergyMission 128717.58798218
scalar OsgEarthNet.uav[63] utilizationEnergyMaintenance 74501.071781158
scalar OsgEarthNet.uav[63] utilizationEnergyCharge 201351.73706055
scalar OsgEarthNet.uav[63] utilizationEnergyOverdrawMission 0
scalar OsgEarthNet.uav[63] utilizationEnergyOverdrawMaintenance 0
scalar OsgEarthNet.uav[63] utilizationCountMissions 55
scalar OsgEarthNet.uav[63] utilizationCountManeuversMission 456
scalar OsgEarthNet.uav[63] utilizationCountManeuversMaintenance 109
scalar OsgEarthNet.uav[63] utilizationCountChargeState 55
scalar OsgEarthNet.uav[63] utilizationCountOverdrawnAfterMission 0
scalar OsgEarthNet.uav[63] utilizationCountIdleState 55
scalar OsgEarthNet.uav[63] utilizationFail 0
scalar OsgEarthNet.uav[63] simulationTime 259200
scalar OsgEarthNet.uav[64] utilizationSecMission 301.50602773369
scalar OsgEarthNet.uav[64] utilizationSecMaintenance 206.19350838146
scalar OsgEarthNet.uav[64] utilizationSecCharge 2340
scalar OsgEarthNet.uav[64] utilizationSecIdle 256352.29946388
scalar OsgEarthNet.uav[64] utilizationEnergyMission 1470.2041473389
scalar OsgEarthNet.uav[64] utilizationEnergyMaintenance 928.69329071045
scalar OsgEarthNet.uav[64] utilizationEnergyCharge 2323.5026855469
scalar OsgEarthNet.uav[64] utilizationEnergyOverdrawMission 0
scalar OsgEarthNet.uav[64] utilizationEnergyOverdrawMaintenance 0
scalar OsgEarthNet.uav[64] utilizationCountMissions 1
scalar OsgEarthNet.uav[64] utilizationCountManeuversMission 6
scalar OsgEarthNet.uav[64] utilizationCountManeuversMaintenance 2
scalar OsgEarthNet.uav[64] utilizationCountChargeState 1
scalar OsgEarthNet.uav[64] utilizationCountOverdrawnAfterMission 0
scalar OsgEarthNet.uav[64] utilizationCountIdleState 2
scalar OsgEarthNet.uav[64] utilizationFail 0
scalar OsgEarthNet.uav[64] simulationTime 259200
scalar OsgEarthNet.uav[65] utilizationSecMission 15512.769693482
scalar OsgEarthNet.uav[65] utilizationSecMaintenance 10899.753049789
scalar OsgEarthNet.uav[65] utilizationSecCharge 104830
scalar OsgEarthNet.uav[65] utilizationSecIdle 127957.47625673
scalar OsgEarthNet.uav[65] utilizationEnergyMission 72150.477013179
[...]
scalar OsgEarthNet.uav[82] utilizationSecIdle 226246.46311629
scalar OsgEarthNet.uav[82] utilizationEnergyMission 22671.165603638
scalar OsgEarthNet.uav[82] utilizationEnergyMaintenance 9072.1266899109
scalar OsgEarthNet.uav[82] utilizationEnergyCharge 31515.168701172
scalar OsgEarthNet.uav[82] utilizationEnergyOverdrawMission 0
scalar OsgEarthNet.uav[82] utilizationEnergyOverdrawMaintenance 0
scalar OsgEarthNet.uav[82] utilizationCountMissions 8
scalar OsgEarthNet.uav[82] utilizationCountManeuversMission 77
scalar OsgEarthNet.uav[82] utilizationCountManeuversMaintenance 16
scalar OsgEarthNet.uav[82] utilizationCountChargeState 8
scalar OsgEarthNet.uav[82] utilizationCountOverdrawnAfterMission 0
scalar OsgEarthNet.uav[82] utilizationCountIdleState 9
scalar OsgEarthNet.uav[82] utilizationFail 0
scalar OsgEarthNet.uav[82] simulationTime 259200
scalar OsgEarthNet.uav[83] utilizationSecMission 179.21601502944
scalar OsgEarthNet.uav[83] utilizationSecMaintenance 354.43405905663
scalar OsgEarthNet.uav[83] utilizationSecCharge 2430
scalar OsgEarthNet.uav[83] utilizationSecIdle 256236.34892591
scalar OsgEarthNet.uav[83] utilizationEnergyMission 748.96356201172
scalar OsgEarthNet.uav[83] utilizationEnergyMaintenance 1720.8759994507
scalar OsgEarthNet.uav[83] utilizationEnergyCharge 2469.8337402344
scalar OsgEarthNet.uav[83] utilizationEnergyOverdrawMission 0
scalar OsgEarthNet.uav[83] utilizationEnergyOverdrawMaintenance 0
scalar OsgEarthNet.uav[83] utilizationCountMissions 1
scalar OsgEarthNet.uav[83] utilizationCountManeuversMission 3
scalar OsgEarthNet.uav[83] utilizationCountManeuversMaintenance 2
scalar OsgEarthNet.uav[83] utilizationCountChargeState 1
scalar OsgEarthNet.uav[83] utilizationCountOverdrawnAfterMission 0
scalar OsgEarthNet.uav[83] utilizationCountIdleState 2
scalar OsgEarthNet.uav[83] utilizationFail 0
scalar OsgEarthNet.uav[83] simulationTime 259200
scalar OsgEarthNet.uav[84] utilizationSecMission 17416.253746832
scalar OsgEarthNet.uav[84] utilizationSecMaintenance 9961.386826832
scalar OsgEarthNet.uav[84] utilizationSecCharge 106454.72016309
scalar OsgEarthNet.uav[84] utilizationSecIdle 125367.63826325
scalar OsgEarthNet.uav[84] utilizationEnergyMission 81515.18598175
scalar OsgEarthNet.uav[84] utilizationEnergyMaintenance 46753.242008209
scalar OsgEarthNet.uav[84] utilizationEnergyCharge 127493.09228516
scalar OsgEarthNet.uav[84] utilizationEnergyOverdrawMission 0
scalar OsgEarthNet.uav[84] utilizationEnergyOverdrawMaintenance 0
scalar OsgEarthNet.uav[84] utilizationCountMissions 34
scalar OsgEarthNet.uav[84] utilizationCountManeuversMission 275
scalar OsgEarthNet.uav[84] utilizationCountManeuversMaintenance 68
scalar OsgEarthNet.uav[84] utilizationCountChargeState 34
scalar OsgEarthNet.uav[84] utilizationCountOverdrawnAfterMission 0
scalar OsgEarthNet.uav[84] utilizationCountIdleState 34
scalar OsgEarthNet.uav[84] utilizationFail 0
scalar OsgEarthNet.uav[84] simulationTime 259200
scalar OsgEarthNet.uav[85] utilizationSecMission 18357.238461047
scalar OsgEarthNet.uav[85] utilizationSecMaintenance 14313.435137485
scalar OsgEarthNet.uav[85] utilizationSecCharge 127865.31732264
scalar OsgEarthNet.uav[85] utilizationSecIdle 98664.008078826
scalar OsgEarthNet.uav[85] utilizationEnergyMission 85543.860183716
scalar OsgEarthNet.uav[85] utilizationEnergyMaintenance 67432.626625061
scalar OsgEarthNet.uav[85] utilizationEnergyCharge 150535.02563477
scalar OsgEarthNet.uav[85] utilizationEnergyOverdrawMission 0
scalar OsgEarthNet.uav[85] utilizationEnergyOverdrawMaintenance 0
scalar OsgEarthNet.uav[85] utilizationCountMissions 42
scalar OsgEarthNet.uav[85] utilizationCountManeuversMission 307
scalar OsgEarthNet.uav[85] utilizationCountManeuversMaintenance 84
scalar OsgEarthNet.uav[85] utilizationCountChargeState 42
scalar OsgEarthNet.uav[85] utilizationCountOverdrawnAfterMission 0
scalar OsgEarthNet.uav[85] utilizationCountIdleState 42
scalar OsgEarthNet.uav[85] utilizationFail 0
scalar OsgEarthNet.uav[85] simulationTime 259200
scalar OsgEarthNet.uav[86] utilizationSecMission 760.62515258028
scalar OsgEarthNet.uav[86] utilizationSecMaintenance 245.74410321072
scalar OsgEarthNet.uav[86] utilizationSecCharge 3600
scalar OsgEarthNet.uav[86] utilizationSecIdle 254593.62974421
scalar OsgEarthNet.uav[86] utilizationEnergyMission 3412.560333252
scalar OsgEarthNet.uav[86] utilizationEnergyMaintenance 1129.9587516785
scalar OsgEarthNet.uav[86] utilizationEnergyCharge 4542.51953125
scalar OsgEarthNet.uav[86] utilizationEnergyOverdrawMission 0
scalar OsgEarthNet.uav[86] utilizationEnergyOverdrawMaintenance 0
scalar OsgEarthNet.uav[86] utilizationCountMissions 1
scalar OsgEarthNet.uav[86] utilizationCountManeuversMission 12
scalar OsgEarthNet.uav[86] utilizationCountManeuversMaintenance 2
scalar OsgEarthNet.uav[86] utilizationCountChargeState 1
scalar OsgEarthNet.uav[86] utilizationCountOverdrawnAfterMission 0
scalar OsgEarthNet.uav[86] utilizationCountIdleState 2
scalar OsgEarthNet.uav[86] utilizationFail 0
scalar OsgEarthNet.uav[86] simulationTime 259200
scalar OsgEarthNet.uav[87] utilizationSecMission 23337.235597831
scalar OsgEarthNet.uav[87] utilizationSecMaintenance 13114.576950424
scalar OsgEarthNet.uav[87] utilizationSecCharge 145240
scalar OsgEarthNet.uav[87] utilizationSecIdle 77508.186451744
scalar OsgEarthNet.uav[87] utilizationEnergyMission 108027.56636047
scalar OsgEarthNet.uav[87] utilizationEnergyMaintenance 62290.030776978
scalar OsgEarthNet.uav[87] utilizationEnergyCharge 170518.24853516
scalar OsgEarthNet.uav[87] utilizationEnergyOverdrawMission 0
scalar OsgEarthNet.uav[87] utilizationEnergyOverdrawMaintenance 0
scalar OsgEarthNet.uav[87] utilizationCountMissions 47
scalar OsgEarthNet.uav[87] utilizationCountManeuversMission 382
scalar OsgEarthNet.uav[87] utilizationCountManeuversMaintenance 94
scalar OsgEarthNet.uav[87] utilizationCountChargeState 47
scalar OsgEarthNet.uav[87] utilizationCountOverdrawnAfterMission 0
scalar OsgEarthNet.uav[87] utilizationCountIdleState 48
scalar OsgEarthNet.uav[87] utilizationFail 0
scalar OsgEarthNet.uav[87] simulationTime 259200
scalar OsgEarthNet.uav[88] utilizationSecMission 443.5870541303
scalar OsgEarthNet.uav[88] utilizationSecMaintenance 125.81102573108
scalar OsgEarthNet.uav[88] utilizationSecCharge 2530
scalar OsgEarthNet.uav[88] utilizationSecIdle 256100.60092014
scalar OsgEarthNet.uav[88] utilizationEnergyMission 1858.6737518311
scalar OsgEarthNet.uav[88] utilizationEnergyMaintenance 501.10070037842
scalar OsgEarthNet.uav[88] utilizationEnergyCharge 2668.0363769531
scalar OsgEarthNet.uav[88] utilizationEnergyOverdrawMission 0
scalar OsgEarthNet.uav[88] utilizationEnergyOverdrawMaintenance 0
scalar OsgEarthNet.uav[88] utilizationCountMissions 1
scalar OsgEarthNet.uav[88] utilizationCountManeuversMission 7
scalar OsgEarthNet.uav[88] utilizationCountManeuversMaintenance 2
scalar OsgEarthNet.uav[88] utilizationCountChargeState 1
scalar OsgEarthNet.uav[88] utilizationCountOverdrawnAfterMission 0
scalar OsgEarthNet.uav[88] utilizationCountIdleState 2
scalar OsgEarthNet.uav[88] utilizationFail 0
scalar OsgEarthNet.uav[88] simulationTime 259200
scalar OsgEarthNet.uav[89] utilizationSecMission 1348.1660329299
scalar OsgEarthNet.uav[89] utilizationSecMaintenance 1273.5749705532
scalar OsgEarthNet.uav[89] utilizationSecCharge 10020
scalar OsgEarthNet.uav[89] utilizationSecIdle 246558.25799652
scalar OsgEarthNet.uav[89] utilizationEnergyMission 6171.809463501
scalar OsgEarthNet.uav[89] utilizationEnergyMaintenance 6009.489780426
scalar OsgEarthNet.uav[89] utilizationEnergyCharge 12181.301757812
scalar OsgEarthNet.uav[89] utilizationEnergyOverdrawMission 0
scalar OsgEarthNet.uav[89] utilizationEnergyOverdrawMaintenance 0
scalar OsgEarthNet.uav[89] utilizationCountMissions 3
scalar OsgEarthNet.uav[89] utilizationCountManeuversMission 23
scalar OsgEarthNet.uav[89] utilizationCountManeuversMaintenance 6
scalar OsgEarthNet.uav[89] utilizationCountChargeState 3
scalar OsgEarthNet.uav[89] utilizationCountOverdrawnAfterMission 0
scalar OsgEarthNet.uav[89] utilizationCountIdleState 4
scalar OsgEarthNet.uav[89] utilizationFail 0
scalar OsgEarthNet.uav[89] simulationTime 259200
scalar OsgEarthNet.uav[90] utilizationSecMission 26809.11031173
scalar OsgEarthNet.uav[90] utilizationSecMaintenance 14087.425663286
scalar OsgEarthNet.uav[90] utilizationSecCharge 162540
scalar OsgEarthNet.uav[90] utilizationSecIdle 55763.463024984
scalar OsgEarthNet.uav[90] utilizationEnergyMission 125008.97535706
scalar OsgEarthNet.uav[90] utilizationEnergyMaintenance 66520.440044403
scalar OsgEarthNet.uav[90] utilizationEnergyCharge 191648.20605469
scalar OsgEarthNet.uav[90] utilizationEnergyOverdrawMission 0
scalar OsgEarthNet.uav[90] utilizationEnergyOverdrawMaintenance 0
scalar OsgEarthNet.uav[90] utilizationCountMissions 52
scalar OsgEarthNet.uav[90] utilizationCountManeuversMission 429
scalar OsgEarthNet.uav[90] utilizationCountManeuversMaintenance 104
scalar OsgEarthNet.uav[90] utilizationCountChargeState 52
scalar OsgEarthNet.uav[90] utilizationCountOverdrawnAfterMission 0
scalar OsgEarthNet.uav[90] utilizationCountIdleState 53
scalar OsgEarthNet.uav[90] utilizationFail 0
scalar OsgEarthNet.uav[90] simulationTime 259200
scalar OsgEarthNet.uav[91] utilizationSecMission 13090.174574167
scalar OsgEarthNet.uav[91] utilizationSecMaintenance 6571.2686127022
scalar OsgEarthNet.uav[91] utilizationSecCharge 74674.565453723
scalar OsgEarthNet.uav[91] utilizationSecIdle 164863.99035941
scalar OsgEarthNet.uav[91] utilizationEnergyMission 59815.187545776
scalar OsgEarthNet.uav[91] utilizationEnergyMaintenance 30814.734809875
scalar OsgEarthNet.uav[91] utilizationEnergyCharge 88114.045532227
scalar OsgEarthNet.uav[91] utilizationEnergyOverdrawMission 0
scalar OsgEarthNet.uav[91] utilizationEnergyOverdrawMaintenance 0
scalar OsgEarthNet.uav[91] utilizationCountMissions 25
scalar OsgEarthNet.uav[91] utilizationCountManeuversMission 215
scalar OsgEarthNet.uav[91] utilizationCountManeuversMaintenance 50
scalar OsgEarthNet.uav[91] utilizationCountChargeState 25
scalar OsgEarthNet.uav[91] utilizationCountOverdrawnAfterMission 0
scalar OsgEarthNet.uav[91] utilizationCountIdleState 25
scalar OsgEarthNet.uav[91] utilizationFail 0
scalar OsgEarthNet.uav[91] simulationTime 259200
scalar OsgEarthNet.uav[92] utilizationSecMission 19023.08523133
scalar OsgEarthNet.uav[92] utilizationSecMaintenance 13049.848985644
scalar OsgEarthNet.uav[92] utilizationSecCharge 128850
scalar OsgEarthNet.uav[92] utilizationSecIdle 98277.064783026
scalar OsgEarthNet.uav[92] utilizationEnergyMission 87563.607124329
scalar OsgEarthNet.uav[92] utilizationEnergyMaintenance 61979.254806562
scalar OsgEarthNet.uav[92] utilizationEnergyCharge 146936.91699219
scalar OsgEarthNet.uav[92] utilizationEnergyOverdrawMission 0
scalar OsgEarthNet.uav[92] utilizationEnergyOverdrawMaintenance 0
scalar OsgEarthNet.uav[92] utilizationCountMissions 45
scalar OsgEarthNet.uav[92] utilizationCountManeuversMission 314
scalar OsgEarthNet.uav[92] utilizationCountManeuversMaintenance 90
scalar OsgEarthNet.uav[92] utilizationCountChargeState 44
scalar OsgEarthNet.uav[92] utilizationCountOverdrawnAfterMission 0
scalar OsgEarthNet.uav[92] utilizationCountIdleState 45
scalar OsgEarthNet.uav[92] utilizationFail 0
scalar OsgEarthNet.uav[92] simulationTime 259200
scalar OsgEarthNet.uav[93] utilizationSecMission 6634.565299753
scalar OsgEarthNet.uav[93] utilizationSecMaintenance 2958.4535332642
scalar OsgEarthNet.uav[93] utilizationSecCharge 36410
scalar OsgEarthNet.uav[93] utilizationSecIdle 213196.98016698
scalar OsgEarthNet.uav[93] utilizationEnergyMission 31046.922927856
scalar OsgEarthNet.uav[93] utilizationEnergyMaintenance 13637.426864624
scalar OsgEarthNet.uav[93] utilizationEnergyCharge 44254.270263672
scalar OsgEarthNet.uav[93] utilizationEnergyOverdrawMission 0
scalar OsgEarthNet.uav[93] utilizationEnergyOverdrawMaintenance 0
scalar OsgEarthNet.uav[93] utilizationCountMissions 11
scalar OsgEarthNet.uav[93] utilizationCountManeuversMission 107
scalar OsgEarthNet.uav[93] utilizationCountManeuversMaintenance 22
scalar OsgEarthNet.uav[93] utilizationCountChargeState 11
scalar OsgEarthNet.uav[93] utilizationCountOverdrawnAfterMission 0
scalar OsgEarthNet.uav[93] utilizationCountIdleState 12
scalar OsgEarthNet.uav[93] utilizationFail 0
scalar OsgEarthNet.uav[93] simulationTime 259200
scalar OsgEarthNet.uav[94] utilizationSecMission 24078.218092253
scalar OsgEarthNet.uav[94] utilizationSecMaintenance 18449.780907747
scalar OsgEarthNet.uav[94] utilizationSecCharge 171280
scalar OsgEarthNet.uav[94] utilizationSecIdle 45392
scalar OsgEarthNet.uav[94] utilizationEnergyMission 111696.24236298
scalar OsgEarthNet.uav[94] utilizationEnergyMaintenance 86464.363364822
scalar OsgEarthNet.uav[94] utilizationEnergyCharge 198144.46923828
scalar OsgEarthNet.uav[94] utilizationEnergyOverdrawMission 0
scalar OsgEarthNet.uav[94] utilizationEnergyOverdrawMaintenance 0
scalar OsgEarthNet.uav[94] utilizationCountMissions 57
scalar OsgEarthNet.uav[94] utilizationCountManeuversMission 397
scalar OsgEarthNet.uav[94] utilizationCountManeuversMaintenance 114
scalar OsgEarthNet.uav[94] utilizationCountChargeState 57
scalar OsgEarthNet.uav[94] utilizationCountOverdrawnAfterMission 0
scalar OsgEarthNet.uav[94] utilizationCountIdleState 58
scalar OsgEarthNet.uav[94] utilizationFail 0
scalar OsgEarthNet.uav[94] simulationTime 259200
scalar OsgEarthNet.uav[95] utilizationSecMission 30082.041735542
scalar OsgEarthNet.uav[95] utilizationSecMaintenance 14191.939311216
scalar OsgEarthNet.uav[95] utilizationSecCharge 167884.01795324
scalar OsgEarthNet.uav[95] utilizationSecIdle 47042
scalar OsgEarthNet.uav[95] utilizationEnergyMission 140040.70046905
scalar OsgEarthNet.uav[95] utilizationEnergyMaintenance 64777.429382324
scalar OsgEarthNet.uav[95] utilizationEnergyCharge 201098.95629883
scalar OsgEarthNet.uav[95] utilizationEnergyOverdrawMission 0
scalar OsgEarthNet.uav[95] utilizationEnergyOverdrawMaintenance 0
scalar OsgEarthNet.uav[95] utilizationCountMissions 53
scalar OsgEarthNet.uav[95] utilizationCountManeuversMission 505
scalar OsgEarthNet.uav[95] utilizationCountManeuversMaintenance 105
scalar OsgEarthNet.uav[95] utilizationCountChargeState 53
scalar OsgEarthNet.uav[95] utilizationCountOverdrawnAfterMission 0
scalar OsgEarthNet.uav[95] utilizationCountIdleState 53
scalar OsgEarthNet.uav[95] utilizationFail 0
scalar OsgEarthNet.uav[95] simulationTime 259200
scalar OsgEarthNet.uav[96] utilizationSecMission 18923.663642634
scalar OsgEarthNet.uav[96] utilizationSecMaintenance 13751.173857599
scalar OsgEarthNet.uav[96] utilizationSecCharge 129904.81104953
scalar OsgEarthNet.uav[96] utilizationSecIdle 96620.350450237
scalar OsgEarthNet.uav[96] utilizationEnergyMission 87270.254745483
scalar OsgEarthNet.uav[96] utilizationEnergyMaintenance 64865.828620911
scalar OsgEarthNet.uav[96] utilizationEnergyCharge 152026.35864258
scalar OsgEarthNet.uav[96] utilizationEnergyOverdrawMission 0
scalar OsgEarthNet.uav[96] utilizationEnergyOverdrawMaintenance 0
scalar OsgEarthNet.uav[96] utilizationCountMissions 43
scalar OsgEarthNet.uav[96] utilizationCountManeuversMission 308
scalar OsgEarthNet.uav[96] utilizationCountManeuversMaintenance 86
scalar OsgEarthNet.uav[96] utilizationCountChargeState 43
scalar OsgEarthNet.uav[96] utilizationCountOverdrawnAfterMission 0
scalar OsgEarthNet.uav[96] utilizationCountIdleState 41
scalar OsgEarthNet.uav[96] utilizationFail 0
scalar OsgEarthNet.uav[96] simulationTime 259200
scalar OsgEarthNet.uav[97] utilizationSecMission 25256.263397582
scalar OsgEarthNet.uav[97] utilizationSecMaintenance 12870.693476674
scalar OsgEarthNet.uav[97] utilizationSecCharge 147839.66776083
scalar OsgEarthNet.uav[97] utilizationSecIdle 73233.374364913
scalar OsgEarthNet.uav[97] utilizationEnergyMission 116991.0475769
scalar OsgEarthNet.uav[97] utilizationEnergyMaintenance 59805.426166534
scalar OsgEarthNet.uav[97] utilizationEnergyCharge 174771.76635742
scalar OsgEarthNet.uav[97] utilizationEnergyOverdrawMission 0
scalar OsgEarthNet.uav[97] utilizationEnergyOverdrawMaintenance 0
scalar OsgEarthNet.uav[97] utilizationCountMissions 48
scalar OsgEarthNet.uav[97] utilizationCountManeuversMission 422
scalar OsgEarthNet.uav[97] utilizationCountManeuversMaintenance 96
scalar OsgEarthNet.uav[97] utilizationCountChargeState 48
scalar OsgEarthNet.uav[97] utilizationCountOverdrawnAfterMission 0
scalar OsgEarthNet.uav[97] utilizationCountIdleState 48
scalar OsgEarthNet.uav[97] utilizationFail 0
scalar OsgEarthNet.uav[97] simulationTime 259200
scalar OsgEarthNet.uav[98] utilizationSecMission 10939.437333117
scalar OsgEarthNet.uav[98] utilizationSecMaintenance 6052.3507471844
scalar OsgEarthNet.uav[98] utilizationSecCharge 66870
scalar OsgEarthNet.uav[98] utilizationSecIdle 175338.2109197
scalar OsgEarthNet.uav[98] utilizationEnergyMission 50643.489448547
scalar OsgEarthNet.uav[98] utilizationEnergyMaintenance 29086.206329346
scalar OsgEarthNet.uav[98] utilizationEnergyCharge 80226.453369141
scalar OsgEarthNet.uav[98] utilizationEnergyOverdrawMission 0
scalar OsgEarthNet.uav[98] utilizationEnergyOverdrawMaintenance 0
scalar OsgEarthNet.uav[98] utilizationCountMissions 21
scalar OsgEarthNet.uav[98] utilizationCountManeuversMission 172
scalar OsgEarthNet.uav[98] utilizationCountManeuversMaintenance 42
scalar OsgEarthNet.uav[98] utilizationCountChargeState 21
scalar OsgEarthNet.uav[98] utilizationCountOverdrawnAfterMission 0
scalar OsgEarthNet.uav[98] utilizationCountIdleState 21
scalar OsgEarthNet.uav[98] utilizationFail 0
scalar OsgEarthNet.uav[98] simulationTime 259200
scalar OsgEarthNet.uav[99] utilizationSecMission 11632.190544995
scalar OsgEarthNet.uav[99] utilizationSecMaintenance 9655.4571279955
scalar OsgEarthNet.uav[99] utilizationSecCharge 84310
scalar OsgEarthNet.uav[99] utilizationSecIdle 153602.35132701
scalar OsgEarthNet.uav[99] utilizationEnergyMission 53721.149307251
scalar OsgEarthNet.uav[99] utilizationEnergyMaintenance 44862.409999847
scalar OsgEarthNet.uav[99] utilizationEnergyCharge 98474.53515625
scalar OsgEarthNet.uav[99] utilizationEnergyOverdrawMission 0
scalar OsgEarthNet.uav[99] utilizationEnergyOverdrawMaintenance 0
scalar OsgEarthNet.uav[99] utilizationCountMissions 28
scalar OsgEarthNet.uav[99] utilizationCountManeuversMission 188
scalar OsgEarthNet.uav[99] utilizationCountManeuversMaintenance 56
scalar OsgEarthNet.uav[99] utilizationCountChargeState 28
scalar OsgEarthNet.uav[99] utilizationCountOverdrawnAfterMission 0
scalar OsgEarthNet.uav[99] utilizationCountIdleState 27
scalar OsgEarthNet.uav[99] utilizationFail 0
scalar OsgEarthNet.uav[99] simulationTime 259200
scalar OsgEarthNet.cs[0] usedPower 382252.03722763
scalar OsgEarthNet.cs[0] chargedPower 382252.03722763
scalar OsgEarthNet.cs[0] chargedMobileNodes 144
scalar OsgEarthNet.cs[0] reservations 144
scalar OsgEarthNet.cs[1] usedPower 960246.97946056
scalar OsgEarthNet.cs[1] chargedPower 960246.97946056
scalar OsgEarthNet.cs[1] chargedMobileNodes 331
scalar OsgEarthNet.cs[1] reservations 337
scalar OsgEarthNet.cs[2] usedPower 3681411.2620985
scalar OsgEarthNet.cs[2] chargedPower 3681411.2620985
scalar OsgEarthNet.cs[2] chargedMobileNodes 974
scalar OsgEarthNet.cs[2] reservations 989
scalar OsgEarthNet.cs[3] usedPower 0
scalar OsgEarthNet.cs[3] chargedPower 0
scalar OsgEarthNet.cs[3] chargedMobileNodes 0
scalar OsgEarthNet.cs[3] reservations 0
scalar OsgEarthNet.cs[4] usedPower 893398.48196807
scalar OsgEarthNet.cs[4] chargedPower 893398.48196807
scalar OsgEarthNet.cs[4] chargedMobileNodes 203
scalar OsgEarthNet.cs[4] reservations 206
scalar OsgEarthNet.cs[5] usedPower 1642660.7112242
scalar OsgEarthNet.cs[5] chargedPower 1642660.7112242
scalar OsgEarthNet.cs[5] chargedMobileNodes 383
scalar OsgEarthNet.cs[5] reservations 388
scalar OsgEarthNet.cs[6] usedPower 1373504.5876249
scalar OsgEarthNet.cs[6] chargedPower 1373504.5876249
scalar OsgEarthNet.cs[6] chargedMobileNodes 362
scalar OsgEarthNet.cs[6] reservations 368

