version 2
run Szenario_Hotel_Gabelbach-50-20180709-01:29:55-28060
attr configname Szenario_Hotel_Gabelbach
attr datetime 20180709-01:29:55
attr experiment Szenario_Hotel_Gabelbach
attr inifile omnetpp.ini
attr iterationvars $replM=2
attr iterationvarsf replM=2-
attr measurement $replM=2
attr network OsgEarthNet
attr processid 28060
attr repetition 2
attr replication #2
attr resultdir results
attr runnumber 50
attr seedset 50
itervar replM 2
param *.osgEarthScene.scene "\"Szenario_Hotel_Gabelbach.earth\""
param *.playgroundLatitude 50.6830269
param *.playgroundLongitude 10.8538055
param *.playgroundWidth 3500m
param *.playgroundHeight 3500m
param *.numUAVs 100
param *.cs[0].posX 3537m
param *.cs[0].posY 965m
param *.cs[0].posZ 538m
param *.cs[1].posX 312m
param *.cs[1].posY 1262m
param *.cs[1].posZ 539m
param *.cs[2].posX 2185m
param *.cs[2].posY 3026m
param *.cs[2].posZ 777m
param *.cs[3].posX 10m
param *.cs[3].posY 2200m
param *.cs[3].posZ 560m
param *.cs[4].posX 750m
param *.cs[4].posY 200m
param *.cs[4].posZ 540m
param *.cs[5].posX 2450m
param *.cs[5].posY 180m
param *.cs[5].posZ 524m
param *.cs[6].posX 3140m
param *.cs[6].posY 1790m
param *.cs[6].posZ 606m
param *.numCSs 7
param *.uav[*].replacementMethod 2
param *.*.timeStep 10s
param *.uav[*].commandPreviewCommandCount 20
param *.missionControl.missionFiles "\"missions\\\\Szenario_WB_Hotel_Gabelbach_Mission_Hotel.waypoints,missions\\\\Szenario_WB_Hotel_Gabelbach_Mission_Kickelhahn.waypoints,missions\\\\Szenario_WB_Hotel_Gabelbach_Mission_Ilmenau_Sportplatz.waypoints,missions\\\\Szenario_WB_Hotel_Gabelbach_Mission_Manebach_Mitte.waypoints,missions\\\\Szenario_WB_Hotel_Gabelbach_Mission_Manebach_Sued.waypoints\""
param *.missionControl.missionFiles "\"missions\\\\Szenario_WB_Hotel_Gabelbach_Mission_Hotel.waypoints,missions\\\\Szenario_WB_Hotel_Gabelbach_Mission_Kickelhahn.waypoints,missions\\\\Szenario_WB_Hotel_Gabelbach_Mission_Ilmenau_Sportplatz.waypoints,missions\\\\Szenario_WB_Hotel_Gabelbach_Mission_Manebach_Mitte.waypoints,missions\\\\Szenario_WB_Hotel_Gabelbach_Mission_Manebach_Sued.waypoints,missions\\\\Szenario_WB_Hotel_Gabelbach_Hover_HoheSchlaufe.waypoints,missions\\\\Szenario_WB_Hotel_Gabelbach_Hover_Kickelhahn.waypoints,missions\\\\Szenario_WB_Hotel_Gabelbach_Hover_Gabelbachskopf.waypoints,missions\\\\Szenario_WB_Hotel_Gabelbach_Hover_Dachskopf.waypoints\""
param *.uav[0].startX 3537m
param *.uav[0].startY 965m
param *.uav[0].startZ 539m
param *.uav[1].startX 312m
param *.uav[1].startY 1262m
param *.uav[1].startZ 540m
param *.uav[2].startX 2185m
param *.uav[2].startY 3026m
param *.uav[2].startZ 778m
param *.uav[3].startX 3537m
param *.uav[3].startY 965m
param *.uav[3].startZ 539m
param *.uav[4].startX 312m
param *.uav[4].startY 1262m
param *.uav[4].startZ 540m
param *.uav[5].startX 2185m
param *.uav[5].startY 3026m
param *.uav[5].startZ 778m
param *.uav[6].startX 3537m
param *.uav[6].startY 965m
param *.uav[6].startZ 539m
param *.uav[7].startX 312m
param *.uav[7].startY 1262m
param *.uav[7].startZ 540m
param *.uav[8].startX 2185m
param *.uav[8].startY 3026m
param *.uav[8].startZ 778m
param *.uav[9].startX 3537m
param *.uav[9].startY 965m
param *.uav[9].startZ 539m
param *.uav[10].startX 3537m
param *.uav[10].startY 965m
param *.uav[10].startZ 539m
param *.uav[11].startX 312m
param *.uav[11].startY 1262m
param *.uav[11].startZ 540m
param *.uav[12].startX 2185m
param *.uav[12].startY 3026m
param *.uav[12].startZ 778m
param *.uav[13].startX 3537m
param *.uav[13].startY 965m
param *.uav[13].startZ 539m
param *.uav[14].startX 312m
param *.uav[14].startY 1262m
param *.uav[14].startZ 540m
param *.uav[15].startX 2185m
param *.uav[15].startY 3026m
param *.uav[15].startZ 778m
param *.uav[16].startX 3537m
param *.uav[16].startY 965m
param *.uav[16].startZ 539m
param *.uav[17].startX 312m
param *.uav[17].startY 1262m
param *.uav[17].startZ 540m
param *.uav[18].startX 2185m
param *.uav[18].startY 3026m
param *.uav[18].startZ 778m
param *.uav[19].startX 3537m
param *.uav[19].startY 965m
param *.uav[19].startZ 539m
param *.uav[20].startX 3537m
param *.uav[20].startY 965m
param *.uav[20].startZ 539m
param *.uav[21].startX 312m
param *.uav[21].startY 1262m
param *.uav[21].startZ 540m
param *.uav[22].startX 2185m
param *.uav[22].startY 3026m
param *.uav[22].startZ 778m
param *.uav[23].startX 3537m
param *.uav[23].startY 965m
param *.uav[23].startZ 539m
param *.uav[24].startX 312m
param *.uav[24].startY 1262m
param *.uav[24].startZ 540m
param *.uav[25].startX 2185m
param *.uav[25].startY 3026m
param *.uav[25].startZ 778m
param *.uav[26].startX 3537m
param *.uav[26].startY 965m
param *.uav[26].startZ 539m
param *.uav[27].startX 312m
param *.uav[27].startY 1262m
param *.uav[27].startZ 540m
param *.uav[28].startX 2185m
param *.uav[28].startY 3026m
param *.uav[28].startZ 778m
param *.uav[29].startX 3537m
param *.uav[29].startY 965m
param *.uav[29].startZ 539m
param *.uav[30].startX 3537m
param *.uav[30].startY 965m
param *.uav[30].startZ 539m
param *.uav[31].startX 312m
param *.uav[31].startY 1262m
param *.uav[31].startZ 540m
param *.uav[32].startX 2185m
param *.uav[32].startY 3026m
param *.uav[32].startZ 778m
param *.uav[33].startX 3537m
param *.uav[33].startY 965m
param *.uav[33].startZ 539m
param *.uav[34].startX 312m
param *.uav[34].startY 1262m
param *.uav[34].startZ 540m
param *.uav[35].startX 2185m
param *.uav[35].startY 3026m
param *.uav[35].startZ 778m
param *.uav[36].startX 3537m
param *.uav[36].startY 965m
param *.uav[36].startZ 539m
param *.uav[37].startX 312m
param *.uav[37].startY 1262m
param *.uav[37].startZ 540m
param *.uav[38].startX 2185m
param *.uav[38].startY 3026m
param *.uav[38].startZ 778m
param *.uav[39].startX 3537m
param *.uav[39].startY 965m
param *.uav[39].startZ 539m
param *.uav[40].startX 3537m
param *.uav[40].startY 965m
param *.uav[40].startZ 539m
param *.uav[41].startX 312m
param *.uav[41].startY 1262m
param *.uav[41].startZ 540m
param *.uav[42].startX 2185m
param *.uav[42].startY 3026m
param *.uav[42].startZ 778m
param *.uav[43].startX 3537m
param *.uav[43].startY 965m
param *.uav[43].startZ 539m
param *.uav[44].startX 312m
param *.uav[44].startY 1262m
param *.uav[44].startZ 540m
param *.uav[45].startX 2185m
param *.uav[45].startY 3026m
param *.uav[45].startZ 778m
param *.uav[46].startX 3537m
param *.uav[46].startY 965m
param *.uav[46].startZ 539m
param *.uav[47].startX 312m
param *.uav[47].startY 1262m
param *.uav[47].startZ 540m
param *.uav[48].startX 2185m
param *.uav[48].startY 3026m
param *.uav[48].startZ 778m
param *.uav[49].startX 3537m
param *.uav[49].startY 965m
param *.uav[49].startZ 539m
param *.uav[50].startX 3537m
param *.uav[50].startY 965m
param *.uav[50].startZ 539m
param *.uav[51].startX 312m
param *.uav[51].startY 1262m
param *.uav[51].startZ 540m
param *.uav[52].startX 2185m
param *.uav[52].startY 3026m
param *.uav[52].startZ 778m
param *.uav[53].startX 3537m
param *.uav[53].startY 965m
param *.uav[53].startZ 539m
param *.uav[54].startX 312m
param *.uav[54].startY 1262m
param *.uav[54].startZ 540m
param *.uav[55].startX 2185m
param *.uav[55].startY 3026m
param *.uav[55].startZ 778m
param *.uav[56].startX 3537m
param *.uav[56].startY 965m
param *.uav[56].startZ 539m
param *.uav[57].startX 312m
param *.uav[57].startY 1262m
param *.uav[57].startZ 540m
param *.uav[58].startX 2185m
param *.uav[58].startY 3026m
param *.uav[58].startZ 778m
param *.uav[59].startX 3537m
param *.uav[59].startY 965m
param *.uav[59].startZ 539m
param *.uav[60].startX 3537m
param *.uav[60].startY 965m
param *.uav[60].startZ 539m
param *.uav[61].startX 312m
param *.uav[61].startY 1262m
param *.uav[61].startZ 540m
param *.uav[62].startX 2185m
param *.uav[62].startY 3026m
param *.uav[62].startZ 778m
param *.uav[63].startX 3537m
param *.uav[63].startY 965m
param *.uav[63].startZ 539m
param *.uav[64].startX 312m
param *.uav[64].startY 1262m
param *.uav[64].startZ 540m
param *.uav[65].startX 2185m
param *.uav[65].startY 3026m
param *.uav[65].startZ 778m
param *.uav[66].startX 3537m
param *.uav[66].startY 965m
param *.uav[66].startZ 539m
param *.uav[67].startX 312m
param *.uav[67].startY 1262m
param *.uav[67].startZ 540m
param *.uav[68].startX 2185m
param *.uav[68].startY 3026m
param *.uav[68].startZ 778m
param *.uav[69].startX 3537m
param *.uav[69].startY 965m
param *.uav[69].startZ 539m
param *.uav[70].startX 3537m
param *.uav[70].startY 965m
param *.uav[70].startZ 539m
param *.uav[71].startX 312m
param *.uav[71].startY 1262m
param *.uav[71].startZ 540m
param *.uav[72].startX 2185m
param *.uav[72].startY 3026m
param *.uav[72].startZ 778m
param *.uav[73].startX 3537m
param *.uav[73].startY 965m
param *.uav[73].startZ 539m
param *.uav[74].startX 312m
param *.uav[74].startY 1262m
param *.uav[74].startZ 540m
param *.uav[75].startX 2185m
param *.uav[75].startY 3026m
param *.uav[75].startZ 778m
param *.uav[76].startX 3537m
param *.uav[76].startY 965m
param *.uav[76].startZ 539m
param *.uav[77].startX 312m
param *.uav[77].startY 1262m
param *.uav[77].startZ 540m
param *.uav[78].startX 2185m
param *.uav[78].startY 3026m
param *.uav[78].startZ 778m
param *.uav[79].startX 3537m
param *.uav[79].startY 965m
param *.uav[79].startZ 539m
param *.uav[80].startX 3537m
param *.uav[80].startY 965m
param *.uav[80].startZ 539m
param *.uav[81].startX 312m
param *.uav[81].startY 1262m
param *.uav[81].startZ 540m
param *.uav[82].startX 2185m
param *.uav[82].startY 3026m
param *.uav[82].startZ 778m
param *.uav[83].startX 3537m
param *.uav[83].startY 965m
param *.uav[83].startZ 539m
param *.uav[84].startX 312m
param *.uav[84].startY 1262m
param *.uav[84].startZ 540m
param *.uav[85].startX 2185m
param *.uav[85].startY 3026m
param *.uav[85].startZ 778m
param *.uav[86].startX 3537m
param *.uav[86].startY 965m
param *.uav[86].startZ 539m
param *.uav[87].startX 312m
param *.uav[87].startY 1262m
param *.uav[87].startZ 540m
param *.uav[88].startX 2185m
param *.uav[88].startY 3026m
param *.uav[88].startZ 778m
param *.uav[89].startX 3537m
param *.uav[89].startY 965m
param *.uav[89].startZ 539m
param *.uav[90].startX 3537m
param *.uav[90].startY 965m
param *.uav[90].startZ 539m
param *.uav[91].startX 312m
param *.uav[91].startY 1262m
param *.uav[91].startZ 540m
param *.uav[92].startX 2185m
param *.uav[92].startY 3026m
param *.uav[92].startZ 778m
param *.uav[93].startX 3537m
param *.uav[93].startY 965m
param *.uav[93].startZ 539m
param *.uav[94].startX 312m
param *.uav[94].startY 1262m
param *.uav[94].startZ 540m
param *.uav[95].startX 2185m
param *.uav[95].startY 3026m
param *.uav[95].startZ 778m
param *.uav[96].startX 3537m
param *.uav[96].startY 965m
param *.uav[96].startZ 539m
param *.uav[97].startX 312m
param *.uav[97].startY 1262m
param *.uav[97].startZ 540m
param *.uav[98].startX 2185m
param *.uav[98].startY 3026m
param *.uav[98].startZ 778m
param *.uav[99].startX 3537m
param *.uav[99].startY 965m
param *.uav[99].startZ 539m
param *.osgEarthScene.scene "\"boston.earth\""
param *.playgroundLatitude 42.3558
param *.playgroundLongitude -71.0677
param *.playgroundWidth 400m
param *.playgroundHeight 200m
param *.channelController.connectionColor "\"#0000FF40\""
param *.channelController.showConnections false
param *.uav[*].modelURL "\"quadrocopter.small.obj.15.scale.0,0,90.rot\""
param *.uav[*].labelColor "\"#FF7C00CC\""
param *.uav[*].label2Color "\"#FF7C00EE\""
param *.uav[*].batteryCapacity 5200mAh
param *.uav[*].batteryRemaining uav[index].batteryCapacity
param *.uav[*].predictionQuantile 0.95
param *.uav[*].replacementMethod 2
param *.uav[*].weightedSumWeight 0.5
param *.cs[*].modelURL "\"chargingstation_v1.osgt.2.scale.0,0,0.rot.0,0,-15e-1.trans\""
param *.cs[*].spotsWaiting 999
param *.cs[*].spotsCharging 999
param *.cs[*].chargeEffectivenessPercentage 100
param *.cs[*].nonLinearPhaseStartPercentage 85
param *.cs[*].chargeCurrent 6.0A
param *.cs[*].prioritizeFastCharge true
param *.missionControl.replacementSearchMethod 0
param *.*.timeStep 9s

scalar OsgEarthNet.uav[0] utilizationSecMission 510.19019122229
scalar OsgEarthNet.uav[0] utilizationSecMaintenance 438.84287141926
scalar OsgEarthNet.uav[0] utilizationSecCharge 3700
scalar OsgEarthNet.uav[0] utilizationSecIdle 254550.96593736
scalar OsgEarthNet.uav[0] utilizationEnergyMission 2456.0554351807
scalar OsgEarthNet.uav[0] utilizationEnergyMaintenance 2206.4896965027
scalar OsgEarthNet.uav[0] utilizationEnergyCharge 4653.0698242188
scalar OsgEarthNet.uav[0] utilizationEnergyOverdrawMission 0
scalar OsgEarthNet.uav[0] utilizationEnergyOverdrawMaintenance 0
scalar OsgEarthNet.uav[0] utilizationCountMissions 1
scalar OsgEarthNet.uav[0] utilizationCountManeuversMission 8
scalar OsgEarthNet.uav[0] utilizationCountManeuversMaintenance 2
scalar OsgEarthNet.uav[0] utilizationCountChargeState 1
scalar OsgEarthNet.uav[0] utilizationCountOverdrawnAfterMission 0
scalar OsgEarthNet.uav[0] utilizationCountIdleState 2
scalar OsgEarthNet.uav[0] utilizationFail 0
scalar OsgEarthNet.uav[0] simulationTime 259200
scalar OsgEarthNet.uav[1] utilizationSecMission 22806.819665415
scalar OsgEarthNet.uav[1] utilizationSecMaintenance 10087.678624842
scalar OsgEarthNet.uav[1] utilizationSecCharge 120016.98665347
scalar OsgEarthNet.uav[1] utilizationSecIdle 106288.51405628
scalar OsgEarthNet.uav[1] utilizationEnergyMission 105612.56755447
scalar OsgEarthNet.uav[1] utilizationEnergyMaintenance 47967.803459167
scalar OsgEarthNet.uav[1] utilizationEnergyCharge 150603.25305176
scalar OsgEarthNet.uav[1] utilizationEnergyOverdrawMission 0
scalar OsgEarthNet.uav[1] utilizationEnergyOverdrawMaintenance 0
scalar OsgEarthNet.uav[1] utilizationCountMissions 33
scalar OsgEarthNet.uav[1] utilizationCountManeuversMission 365
scalar OsgEarthNet.uav[1] utilizationCountManeuversMaintenance 66
scalar OsgEarthNet.uav[1] utilizationCountChargeState 33
scalar OsgEarthNet.uav[1] utilizationCountOverdrawnAfterMission 0
scalar OsgEarthNet.uav[1] utilizationCountIdleState 33
scalar OsgEarthNet.uav[1] utilizationFail 0
scalar OsgEarthNet.uav[1] simulationTime 259200
scalar OsgEarthNet.uav[2] utilizationSecMission 887.1741082606
scalar OsgEarthNet.uav[2] utilizationSecMaintenance 181.20511066264
scalar OsgEarthNet.uav[2] utilizationSecCharge 3800
scalar OsgEarthNet.uav[2] utilizationSecIdle 254331.61978108
scalar OsgEarthNet.uav[2] utilizationEnergyMission 3946.7613525391
scalar OsgEarthNet.uav[2] utilizationEnergyMaintenance 862.18696212769
scalar OsgEarthNet.uav[2] utilizationEnergyCharge 4776.2919921875
scalar OsgEarthNet.uav[2] utilizationEnergyOverdrawMission 0
scalar OsgEarthNet.uav[2] utilizationEnergyOverdrawMaintenance 0
scalar OsgEarthNet.uav[2] utilizationCountMissions 1
scalar OsgEarthNet.uav[2] utilizationCountManeuversMission 14
scalar OsgEarthNet.uav[2] utilizationCountManeuversMaintenance 2
scalar OsgEarthNet.uav[2] utilizationCountChargeState 1
scalar OsgEarthNet.uav[2] utilizationCountOverdrawnAfterMission 0
scalar OsgEarthNet.uav[2] utilizationCountIdleState 2
scalar OsgEarthNet.uav[2] utilizationFail 0
scalar OsgEarthNet.uav[2] simulationTime 259200
scalar OsgEarthNet.uav[3] utilizationSecMission 25798.666482511
scalar OsgEarthNet.uav[3] utilizationSecMaintenance 13614.533829843
scalar OsgEarthNet.uav[3] utilizationSecCharge 146690
scalar OsgEarthNet.uav[3] utilizationSecIdle 73096.798687646
scalar OsgEarthNet.uav[3] utilizationEnergyMission 117435.61054993
scalar OsgEarthNet.uav[3] utilizationEnergyMaintenance 64874.930618286
scalar OsgEarthNet.uav[3] utilizationEnergyCharge 182770.46191406
scalar OsgEarthNet.uav[3] utilizationEnergyOverdrawMission 0
scalar OsgEarthNet.uav[3] utilizationEnergyOverdrawMaintenance 0
scalar OsgEarthNet.uav[3] utilizationCountMissions 40
scalar OsgEarthNet.uav[3] utilizationCountManeuversMission 409
scalar OsgEarthNet.uav[3] utilizationCountManeuversMaintenance 80
scalar OsgEarthNet.uav[3] utilizationCountChargeState 40
scalar OsgEarthNet.uav[3] utilizationCountOverdrawnAfterMission 0
scalar OsgEarthNet.uav[3] utilizationCountIdleState 41
scalar OsgEarthNet.uav[3] utilizationFail 0
scalar OsgEarthNet.uav[3] simulationTime 259200
scalar OsgEarthNet.uav[4] utilizationSecMission 30670.413868602
scalar OsgEarthNet.uav[4] utilizationSecMaintenance 13348.994651834
scalar OsgEarthNet.uav[4] utilizationSecCharge 162265.97859005
scalar OsgEarthNet.uav[4] utilizationSecIdle 52914.611889516
scalar OsgEarthNet.uav[4] utilizationEnergyMission 142840.60041809
scalar OsgEarthNet.uav[4] utilizationEnergyMaintenance 62497.376976013
scalar OsgEarthNet.uav[4] utilizationEnergyCharge 204250.87329102
scalar OsgEarthNet.uav[4] utilizationEnergyOverdrawMission 0
scalar OsgEarthNet.uav[4] utilizationEnergyOverdrawMaintenance 0
scalar OsgEarthNet.uav[4] utilizationCountMissions 44
scalar OsgEarthNet.uav[4] utilizationCountManeuversMission 522
scalar OsgEarthNet.uav[4] utilizationCountManeuversMaintenance 88
scalar OsgEarthNet.uav[4] utilizationCountChargeState 44
scalar OsgEarthNet.uav[4] utilizationCountOverdrawnAfterMission 0
scalar OsgEarthNet.uav[4] utilizationCountIdleState 44
scalar OsgEarthNet.uav[4] utilizationFail 0
scalar OsgEarthNet.uav[4] simulationTime 259200
scalar OsgEarthNet.uav[5] utilizationSecMission 694.00169469977
scalar OsgEarthNet.uav[5] utilizationSecMaintenance 282.18572599206
scalar OsgEarthNet.uav[5] utilizationSecCharge 3600
scalar OsgEarthNet.uav[5] utilizationSecIdle 254623.81157931
scalar OsgEarthNet.uav[5] utilizationEnergyMission 3061.8065948486
scalar OsgEarthNet.uav[5] utilizationEnergyMaintenance 1419.1972885132
scalar OsgEarthNet.uav[5] utilizationEnergyCharge 4481.00390625
scalar OsgEarthNet.uav[5] utilizationEnergyOverdrawMission 0
scalar OsgEarthNet.uav[5] utilizationEnergyOverdrawMaintenance 0
scalar OsgEarthNet.uav[5] utilizationCountMissions 1
scalar OsgEarthNet.uav[5] utilizationCountManeuversMission 13
scalar OsgEarthNet.uav[5] utilizationCountManeuversMaintenance 2
scalar OsgEarthNet.uav[5] utilizationCountChargeState 1
scalar OsgEarthNet.uav[5] utilizationCountOverdrawnAfterMission 0
scalar OsgEarthNet.uav[5] utilizationCountIdleState 2
scalar OsgEarthNet.uav[5] utilizationFail 0
scalar OsgEarthNet.uav[5] simulationTime 259200
scalar OsgEarthNet.uav[6] utilizationSecMission 702.6942798579
scalar OsgEarthNet.uav[6] utilizationSecMaintenance 282.29565405678
scalar OsgEarthNet.uav[6] utilizationSecCharge 3760
scalar OsgEarthNet.uav[6] utilizationSecIdle 254455.00906609
scalar OsgEarthNet.uav[6] utilizationEnergyMission 3394.7420196533
scalar OsgEarthNet.uav[6] utilizationEnergyMaintenance 1335.5629386902
scalar OsgEarthNet.uav[6] utilizationEnergyCharge 4730.3090820312
scalar OsgEarthNet.uav[6] utilizationEnergyOverdrawMission 0
scalar OsgEarthNet.uav[6] utilizationEnergyOverdrawMaintenance 0
scalar OsgEarthNet.uav[6] utilizationCountMissions 1
scalar OsgEarthNet.uav[6] utilizationCountManeuversMission 10
scalar OsgEarthNet.uav[6] utilizationCountManeuversMaintenance 2
scalar OsgEarthNet.uav[6] utilizationCountChargeState 1
scalar OsgEarthNet.uav[6] utilizationCountOverdrawnAfterMission 0
scalar OsgEarthNet.uav[6] utilizationCountIdleState 2
scalar OsgEarthNet.uav[6] utilizationFail 0
scalar OsgEarthNet.uav[6] simulationTime 259200
scalar OsgEarthNet.uav[7] utilizationSecMission 30854.33332622
scalar OsgEarthNet.uav[7] utilizationSecMaintenance 12542.123067141
scalar OsgEarthNet.uav[7] utilizationSecCharge 160060
scalar OsgEarthNet.uav[7] utilizationSecIdle 55743.542606639
scalar OsgEarthNet.uav[7] utilizationEnergyMission 142345.82332993
scalar OsgEarthNet.uav[7] utilizationEnergyMaintenance 57878.115646362
scalar OsgEarthNet.uav[7] utilizationEnergyCharge 200620.97802734
scalar OsgEarthNet.uav[7] utilizationEnergyOverdrawMission 0
scalar OsgEarthNet.uav[7] utilizationEnergyOverdrawMaintenance 0
scalar OsgEarthNet.uav[7] utilizationCountMissions 43
scalar OsgEarthNet.uav[7] utilizationCountManeuversMission 502
scalar OsgEarthNet.uav[7] utilizationCountManeuversMaintenance 86
scalar OsgEarthNet.uav[7] utilizationCountChargeState 43
scalar OsgEarthNet.uav[7] utilizationCountOverdrawnAfterMission 0
scalar OsgEarthNet.uav[7] utilizationCountIdleState 44
scalar OsgEarthNet.uav[7] utilizationFail 0
scalar OsgEarthNet.uav[7] simulationTime 259200
scalar OsgEarthNet.uav[8] utilizationSecMission 25628.450844532
scalar OsgEarthNet.uav[8] utilizationSecMaintenance 11922.060713267
scalar OsgEarthNet.uav[8] utilizationSecCharge 139770
scalar OsgEarthNet.uav[8] utilizationSecIdle 81879.487442202
scalar OsgEarthNet.uav[8] utilizationEnergyMission 118675.32826233
scalar OsgEarthNet.uav[8] utilizationEnergyMaintenance 56158.20482254
scalar OsgEarthNet.uav[8] utilizationEnergyCharge 174658.7902832
scalar OsgEarthNet.uav[8] utilizationEnergyOverdrawMission 0
scalar OsgEarthNet.uav[8] utilizationEnergyOverdrawMaintenance 0
scalar OsgEarthNet.uav[8] utilizationCountMissions 38
scalar OsgEarthNet.uav[8] utilizationCountManeuversMission 413
scalar OsgEarthNet.uav[8] utilizationCountManeuversMaintenance 76
scalar OsgEarthNet.uav[8] utilizationCountChargeState 38
scalar OsgEarthNet.uav[8] utilizationCountOverdrawnAfterMission 0
scalar OsgEarthNet.uav[8] utilizationCountIdleState 39
scalar OsgEarthNet.uav[8] utilizationFail 0
scalar OsgEarthNet.uav[8] simulationTime 259200
scalar OsgEarthNet.uav[9] utilizationSecMission 836.77707522227
scalar OsgEarthNet.uav[9] utilizationSecMaintenance 217.0347828456
scalar OsgEarthNet.uav[9] utilizationSecCharge 3710
scalar OsgEarthNet.uav[9] utilizationSecIdle 254436.18714193
scalar OsgEarthNet.uav[9] utilizationEnergyMission 3711.6377944946
scalar OsgEarthNet.uav[9] utilizationEnergyMaintenance 969.84482955933
scalar OsgEarthNet.uav[9] utilizationEnergyCharge 4640.09375
scalar OsgEarthNet.uav[9] utilizationEnergyOverdrawMission 0
scalar OsgEarthNet.uav[9] utilizationEnergyOverdrawMaintenance 0
scalar OsgEarthNet.uav[9] utilizationCountMissions 1
scalar OsgEarthNet.uav[9] utilizationCountManeuversMission 13
scalar OsgEarthNet.uav[9] utilizationCountManeuversMaintenance 2
scalar OsgEarthNet.uav[9] utilizationCountChargeState 1
scalar OsgEarthNet.uav[9] utilizationCountOverdrawnAfterMission 0
scalar OsgEarthNet.uav[9] utilizationCountIdleState 2
scalar OsgEarthNet.uav[9] utilizationFail 0
scalar OsgEarthNet.uav[9] simulationTime 259200
scalar OsgEarthNet.uav[10] utilizationSecMission 684.4732299383
scalar OsgEarthNet.uav[10] utilizationSecMaintenance 298.56834692969
scalar OsgEarthNet.uav[10] utilizationSecCharge 3710
scalar OsgEarthNet.uav[10] utilizationSecIdle 254506.95742313
scalar OsgEarthNet.uav[10] utilizationEnergyMission 3176.6694717407
scalar OsgEarthNet.uav[10] utilizationEnergyMaintenance 1458.0112533569
scalar OsgEarthNet.uav[10] utilizationEnergyCharge 4634.6811523438
scalar OsgEarthNet.uav[10] utilizationEnergyOverdrawMission 0
scalar OsgEarthNet.uav[10] utilizationEnergyOverdrawMaintenance 0
scalar OsgEarthNet.uav[10] utilizationCountMissions 1
scalar OsgEarthNet.uav[10] utilizationCountManeuversMission 11
scalar OsgEarthNet.uav[10] utilizationCountManeuversMaintenance 2
scalar OsgEarthNet.uav[10] utilizationCountChargeState 1
scalar OsgEarthNet.uav[10] utilizationCountOverdrawnAfterMission 0
scalar OsgEarthNet.uav[10] utilizationCountIdleState 2
scalar OsgEarthNet.uav[10] utilizationFail 0
scalar OsgEarthNet.uav[10] simulationTime 259200
scalar OsgEarthNet.uav[11] utilizationSecMission 30392.85659777
scalar OsgEarthNet.uav[11] utilizationSecMaintenance 14017.765433562
scalar OsgEarthNet.uav[11] utilizationSecCharge 165598.32116471
scalar OsgEarthNet.uav[11] utilizationSecIdle 49191.055803961
scalar OsgEarthNet.uav[11] utilizationEnergyMission 140761.85721588
scalar OsgEarthNet.uav[11] utilizationEnergyMaintenance 66661.459251404
scalar OsgEarthNet.uav[11] utilizationEnergyCharge 207188.37329102
scalar OsgEarthNet.uav[11] utilizationEnergyOverdrawMission 0
scalar OsgEarthNet.uav[11] utilizationEnergyOverdrawMaintenance 0
scalar OsgEarthNet.uav[11] utilizationCountMissions 45
scalar OsgEarthNet.uav[11] utilizationCountManeuversMission 489
scalar OsgEarthNet.uav[11] utilizationCountManeuversMaintenance 90
scalar OsgEarthNet.uav[11] utilizationCountChargeState 45
scalar OsgEarthNet.uav[11] utilizationCountOverdrawnAfterMission 0
scalar OsgEarthNet.uav[11] utilizationCountIdleState 45
scalar OsgEarthNet.uav[11] utilizationFail 0
scalar OsgEarthNet.uav[11] simulationTime 259200
scalar OsgEarthNet.uav[12] utilizationSecMission 844.68187799363
scalar OsgEarthNet.uav[12] utilizationSecMaintenance 168.94893785192
scalar OsgEarthNet.uav[12] utilizationSecCharge 3730
scalar OsgEarthNet.uav[12] utilizationSecIdle 254456.36818415
scalar OsgEarthNet.uav[12] utilizationEnergyMission 3763.4112091065
scalar OsgEarthNet.uav[12] utilizationEnergyMaintenance 807.0154838562
scalar OsgEarthNet.uav[12] utilizationEnergyCharge 4688.7470703125
scalar OsgEarthNet.uav[12] utilizationEnergyOverdrawMission 0
scalar OsgEarthNet.uav[12] utilizationEnergyOverdrawMaintenance 0
scalar OsgEarthNet.uav[12] utilizationCountMissions 1
scalar OsgEarthNet.uav[12] utilizationCountManeuversMission 13
scalar OsgEarthNet.uav[12] utilizationCountManeuversMaintenance 2
scalar OsgEarthNet.uav[12] utilizationCountChargeState 1
scalar OsgEarthNet.uav[12] utilizationCountOverdrawnAfterMission 0
scalar OsgEarthNet.uav[12] utilizationCountIdleState 2
scalar OsgEarthNet.uav[12] utilizationFail 0
scalar OsgEarthNet.uav[12] simulationTime 259200
scalar OsgEarthNet.uav[13] utilizationSecMission 545.05972348896
scalar OsgEarthNet.uav[13] utilizationSecMaintenance 427.36308650536
scalar OsgEarthNet.uav[13] utilizationSecCharge 3680
scalar OsgEarthNet.uav[13] utilizationSecIdle 254547.57619001
scalar OsgEarthNet.uav[13] utilizationEnergyMission 2698.1015930176
scalar OsgEarthNet.uav[13] utilizationEnergyMaintenance 1984.4459762573
scalar OsgEarthNet.uav[13] utilizationEnergyCharge 4601.3461914062
scalar OsgEarthNet.uav[13] utilizationEnergyOverdrawMission 0
scalar OsgEarthNet.uav[13] utilizationEnergyOverdrawMaintenance 0
scalar OsgEarthNet.uav[13] utilizationCountMissions 1
scalar OsgEarthNet.uav[13] utilizationCountManeuversMission 9
scalar OsgEarthNet.uav[13] utilizationCountManeuversMaintenance 2
scalar OsgEarthNet.uav[13] utilizationCountChargeState 1
scalar OsgEarthNet.uav[13] utilizationCountOverdrawnAfterMission 0
scalar OsgEarthNet.uav[13] utilizationCountIdleState 2
scalar OsgEarthNet.uav[13] utilizationFail 0
scalar OsgEarthNet.uav[13] simulationTime 259200
scalar OsgEarthNet.uav[14] utilizationSecMission 25572.12726799
scalar OsgEarthNet.uav[14] utilizationSecMaintenance 13960.491938192
scalar OsgEarthNet.uav[14] utilizationSecCharge 143376.84521351
scalar OsgEarthNet.uav[14] utilizationSecIdle 76290.534580313
scalar OsgEarthNet.uav[14] utilizationEnergyMission 118820.46095276
scalar OsgEarthNet.uav[14] utilizationEnergyMaintenance 64840.941905975
scalar OsgEarthNet.uav[14] utilizationEnergyCharge 178658.61212158
scalar OsgEarthNet.uav[14] utilizationEnergyOverdrawMission 0
scalar OsgEarthNet.uav[14] utilizationEnergyOverdrawMaintenance 0
scalar OsgEarthNet.uav[14] utilizationCountMissions 40
scalar OsgEarthNet.uav[14] utilizationCountManeuversMission 423
scalar OsgEarthNet.uav[14] utilizationCountManeuversMaintenance 80
scalar OsgEarthNet.uav[14] utilizationCountChargeState 40
scalar OsgEarthNet.uav[14] utilizationCountOverdrawnAfterMission 0
scalar OsgEarthNet.uav[14] utilizationCountIdleState 40
scalar OsgEarthNet.uav[14] utilizationFail 0
scalar OsgEarthNet.uav[14] simulationTime 259200
scalar OsgEarthNet.uav[15] utilizationSecMission 29805.148147972
scalar OsgEarthNet.uav[15] utilizationSecMaintenance 13745.885529616
scalar OsgEarthNet.uav[15] utilizationSecCharge 161826.96532241
scalar OsgEarthNet.uav[15] utilizationSecIdle 53822
scalar OsgEarthNet.uav[15] utilizationEnergyMission 138823.52857295
scalar OsgEarthNet.uav[15] utilizationEnergyMaintenance 64501.816772461
scalar OsgEarthNet.uav[15] utilizationEnergyCharge 202566.94897461
scalar OsgEarthNet.uav[15] utilizationEnergyOverdrawMission 0
scalar OsgEarthNet.uav[15] utilizationEnergyOverdrawMaintenance 0
scalar OsgEarthNet.uav[15] utilizationCountMissions 44
scalar OsgEarthNet.uav[15] utilizationCountManeuversMission 481
scalar OsgEarthNet.uav[15] utilizationCountManeuversMaintenance 87
scalar OsgEarthNet.uav[15] utilizationCountChargeState 44
scalar OsgEarthNet.uav[15] utilizationCountOverdrawnAfterMission 0
scalar OsgEarthNet.uav[15] utilizationCountIdleState 44
scalar OsgEarthNet.uav[15] utilizationFail 0
scalar OsgEarthNet.uav[15] simulationTime 259200
scalar OsgEarthNet.uav[16] utilizationSecMission 760.62515258028
scalar OsgEarthNet.uav[16] utilizationSecMaintenance 291.95923480269
scalar OsgEarthNet.uav[16] utilizationSecCharge 3770
scalar OsgEarthNet.uav[16] utilizationSecIdle 254377.41461262
scalar OsgEarthNet.uav[16] utilizationEnergyMission 3519.7559585571
scalar OsgEarthNet.uav[16] utilizationEnergyMaintenance 1225.3320236206
scalar OsgEarthNet.uav[16] utilizationEnergyCharge 4745.087890625
scalar OsgEarthNet.uav[16] utilizationEnergyOverdrawMission 0
scalar OsgEarthNet.uav[16] utilizationEnergyOverdrawMaintenance 0
scalar OsgEarthNet.uav[16] utilizationCountMissions 1
scalar OsgEarthNet.uav[16] utilizationCountManeuversMission 12
scalar OsgEarthNet.uav[16] utilizationCountManeuversMaintenance 2
scalar OsgEarthNet.uav[16] utilizationCountChargeState 1
scalar OsgEarthNet.uav[16] utilizationCountOverdrawnAfterMission 0
scalar OsgEarthNet.uav[16] utilizationCountIdleState 2
scalar OsgEarthNet.uav[16] utilizationFail 0
scalar OsgEarthNet.uav[16] simulationTime 259200
scalar OsgEarthNet.uav[17] utilizationSecMission 28395.299036145
scalar OsgEarthNet.uav[17] utilizationSecMaintenance 12777.052031418
scalar OsgEarthNet.uav[17] utilizationSecCharge 149859.53976965
scalar OsgEarthNet.uav[17] utilizationSecIdle 68168.108162787
scalar OsgEarthNet.uav[17] utilizationEnergyMission 130561.30345917
scalar OsgEarthNet.uav[17] utilizationEnergyMaintenance 58995.82396698
scalar OsgEarthNet.uav[17] utilizationEnergyCharge 188206.67285156
scalar OsgEarthNet.uav[17] utilizationEnergyOverdrawMission 0
scalar OsgEarthNet.uav[17] utilizationEnergyOverdrawMaintenance 0
scalar OsgEarthNet.uav[17] utilizationCountMissions 41
scalar OsgEarthNet.uav[17] utilizationCountManeuversMission 462
scalar OsgEarthNet.uav[17] utilizationCountManeuversMaintenance 82
scalar OsgEarthNet.uav[17] utilizationCountChargeState 41
scalar OsgEarthNet.uav[17] utilizationCountOverdrawnAfterMission 0
scalar OsgEarthNet.uav[17] utilizationCountIdleState 41
scalar OsgEarthNet.uav[17] utilizationFail 0
scalar OsgEarthNet.uav[17] simulationTime 259200
scalar OsgEarthNet.uav[18] utilizationSecMission 750.20472747826
scalar OsgEarthNet.uav[18] utilizationSecMaintenance 280.95484451848
scalar OsgEarthNet.uav[18] utilizationSecCharge 3820
scalar OsgEarthNet.uav[18] utilizationSecIdle 254348.839428
scalar OsgEarthNet.uav[18] utilizationEnergyMission 3556.3667144775
scalar OsgEarthNet.uav[18] utilizationEnergyMaintenance 1230.6767082214
scalar OsgEarthNet.uav[18] utilizationEnergyCharge 4787.0380859375
scalar OsgEarthNet.uav[18] utilizationEnergyOverdrawMission 0
scalar OsgEarthNet.uav[18] utilizationEnergyOverdrawMaintenance 0
scalar OsgEarthNet.uav[18] utilizationCountMissions 1
scalar OsgEarthNet.uav[18] utilizationCountManeuversMission 11
scalar OsgEarthNet.uav[18] utilizationCountManeuversMaintenance 2
scalar OsgEarthNet.uav[18] utilizationCountChargeState 1
scalar OsgEarthNet.uav[18] utilizationCountOverdrawnAfterMission 0
scalar OsgEarthNet.uav[18] utilizationCountIdleState 2
scalar OsgEarthNet.uav[18] utilizationFail 0
scalar OsgEarthNet.uav[18] simulationTime 259200
scalar OsgEarthNet.uav[19] utilizationSecMission 750.20472747826
scalar OsgEarthNet.uav[19] utilizationSecMaintenance 261.68051383311
scalar OsgEarthNet.uav[19] utilizationSecCharge 3880
scalar OsgEarthNet.uav[19] utilizationSecIdle 254308.11375869
scalar OsgEarthNet.uav[19] utilizationEnergyMission 3589.6590423584
scalar OsgEarthNet.uav[19] utilizationEnergyMaintenance 1364.2863883972
scalar OsgEarthNet.uav[19] utilizationEnergyCharge 4953.9462890625
scalar OsgEarthNet.uav[19] utilizationEnergyOverdrawMission 0
scalar OsgEarthNet.uav[19] utilizationEnergyOverdrawMaintenance 0
scalar OsgEarthNet.uav[19] utilizationCountMissions 1
scalar OsgEarthNet.uav[19] utilizationCountManeuversMission 11
scalar OsgEarthNet.uav[19] utilizationCountManeuversMaintenance 2
scalar OsgEarthNet.uav[19] utilizationCountChargeState 1
scalar OsgEarthNet.uav[19] utilizationCountOverdrawnAfterMission 0
scalar OsgEarthNet.uav[19] utilizationCountIdleState 2
scalar OsgEarthNet.uav[19] utilizationFail 0
scalar OsgEarthNet.uav[19] simulationTime 259200
scalar OsgEarthNet.uav[20] utilizationSecMission 684.4732299383
scalar OsgEarthNet.uav[20] utilizationSecMaintenance 298.56834692969
scalar OsgEarthNet.uav[20] utilizationSecCharge 3760
scalar OsgEarthNet.uav[20] utilizationSecIdle 254456.95742313
scalar OsgEarthNet.uav[20] utilizationEnergyMission 3289.4712371826
scalar OsgEarthNet.uav[20] utilizationEnergyMaintenance 1416.4008407593
scalar OsgEarthNet.uav[20] utilizationEnergyCharge 4705.8720703125
scalar OsgEarthNet.uav[20] utilizationEnergyOverdrawMission 0
scalar OsgEarthNet.uav[20] utilizationEnergyOverdrawMaintenance 0
scalar OsgEarthNet.uav[20] utilizationCountMissions 1
scalar OsgEarthNet.uav[20] utilizationCountManeuversMission 11
scalar OsgEarthNet.uav[20] utilizationCountManeuversMaintenance 2
scalar OsgEarthNet.uav[20] utilizationCountChargeState 1
scalar OsgEarthNet.uav[20] utilizationCountOverdrawnAfterMission 0
scalar OsgEarthNet.uav[20] utilizationCountIdleState 2
scalar OsgEarthNet.uav[20] utilizationFail 0
scalar OsgEarthNet.uav[20] simulationTime 259200
scalar OsgEarthNet.uav[21] utilizationSecMission 23336.653325236
scalar OsgEarthNet.uav[21] utilizationSecMaintenance 12083.690449053
scalar OsgEarthNet.uav[21] utilizationSecCharge 126740
scalar OsgEarthNet.uav[21] utilizationSecIdle 97039.655225711
scalar OsgEarthNet.uav[21] utilizationEnergyMission 107451.60852051
scalar OsgEarthNet.uav[21] utilizationEnergyMaintenance 56220.136710914
scalar OsgEarthNet.uav[21] utilizationEnergyCharge 158991.68261719
scalar OsgEarthNet.uav[21] utilizationEnergyOverdrawMission 0
scalar OsgEarthNet.uav[21] utilizationEnergyOverdrawMaintenance 0
scalar OsgEarthNet.uav[21] utilizationCountMissions 35
scalar OsgEarthNet.uav[21] utilizationCountManeuversMission 388
scalar OsgEarthNet.uav[21] utilizationCountManeuversMaintenance 70
scalar OsgEarthNet.uav[21] utilizationCountChargeState 34
scalar OsgEarthNet.uav[21] utilizationCountOverdrawnAfterMission 0
scalar OsgEarthNet.uav[21] utilizationCountIdleState 35
scalar OsgEarthNet.uav[21] utilizationFail 0
scalar OsgEarthNet.uav[21] simulationTime 259200
scalar OsgEarthNet.uav[22] utilizationSecMission 28910.260785265
scalar OsgEarthNet.uav[22] utilizationSecMaintenance 13855.794851625
scalar OsgEarthNet.uav[22] utilizationSecCharge 156622.49040439
scalar OsgEarthNet.uav[22] utilizationSecIdle 59811.452958717
scalar OsgEarthNet.uav[22] utilizationEnergyMission 132930.48365784
scalar OsgEarthNet.uav[22] utilizationEnergyMaintenance 65589.464157105
scalar OsgEarthNet.uav[22] utilizationEnergyCharge 196518.36035156
scalar OsgEarthNet.uav[22] utilizationEnergyOverdrawMission 0
scalar OsgEarthNet.uav[22] utilizationEnergyOverdrawMaintenance 0
scalar OsgEarthNet.uav[22] utilizationCountMissions 43
scalar OsgEarthNet.uav[22] utilizationCountManeuversMission 472
scalar OsgEarthNet.uav[22] utilizationCountManeuversMaintenance 86
scalar OsgEarthNet.uav[22] utilizationCountChargeState 43
scalar OsgEarthNet.uav[22] utilizationCountOverdrawnAfterMission 0
scalar OsgEarthNet.uav[22] utilizationCountIdleState 43
scalar OsgEarthNet.uav[22] utilizationFail 0
scalar OsgEarthNet.uav[22] simulationTime 259200
scalar OsgEarthNet.uav[23] utilizationSecMission 26597.334449374
scalar OsgEarthNet.uav[23] utilizationSecMaintenance 16101.786812858
scalar OsgEarthNet.uav[23] utilizationSecCharge 157759.36407682
scalar OsgEarthNet.uav[23] utilizationSecIdle 58741.51366095
scalar OsgEarthNet.uav[23] utilizationEnergyMission 122453.09558105
scalar OsgEarthNet.uav[23] utilizationEnergyMaintenance 74827.057388306
scalar OsgEarthNet.uav[23] utilizationEnergyCharge 197012.87353516
scalar OsgEarthNet.uav[23] utilizationEnergyOverdrawMission 0
scalar OsgEarthNet.uav[23] utilizationEnergyOverdrawMaintenance 0
scalar OsgEarthNet.uav[23] utilizationCountMissions 43
scalar OsgEarthNet.uav[23] utilizationCountManeuversMission 439
scalar OsgEarthNet.uav[23] utilizationCountManeuversMaintenance 86
scalar OsgEarthNet.uav[23] utilizationCountChargeState 43
scalar OsgEarthNet.uav[23] utilizationCountOverdrawnAfterMission 0
scalar OsgEarthNet.uav[23] utilizationCountIdleState 43
scalar OsgEarthNet.uav[23] utilizationFail 0
scalar OsgEarthNet.uav[23] simulationTime 259200
scalar OsgEarthNet.uav[24] utilizationSecMission 14184.93434458
scalar OsgEarthNet.uav[24] utilizationSecMaintenance 8559.4349156942
scalar OsgEarthNet.uav[24] utilizationSecCharge 84570
scalar OsgEarthNet.uav[24] utilizationSecIdle 151885.62973973
scalar OsgEarthNet.uav[24] utilizationEnergyMission 65916.542633057
scalar OsgEarthNet.uav[24] utilizationEnergyMaintenance 39850.734333038
scalar OsgEarthNet.uav[24] utilizationEnergyCharge 105579.43359375
scalar OsgEarthNet.uav[24] utilizationEnergyOverdrawMission 0
scalar OsgEarthNet.uav[24] utilizationEnergyOverdrawMaintenance 0
scalar OsgEarthNet.uav[24] utilizationCountMissions 23
scalar OsgEarthNet.uav[24] utilizationCountManeuversMission 237
scalar OsgEarthNet.uav[24] utilizationCountManeuversMaintenance 46
scalar OsgEarthNet.uav[24] utilizationCountChargeState 23
scalar OsgEarthNet.uav[24] utilizationCountOverdrawnAfterMission 0
scalar OsgEarthNet.uav[24] utilizationCountIdleState 24
scalar OsgEarthNet.uav[24] utilizationFail 0
scalar OsgEarthNet.uav[24] simulationTime 259200
scalar OsgEarthNet.uav[25] utilizationSecMission 31070.831756722
scalar OsgEarthNet.uav[25] utilizationSecMaintenance 13837.056364023
scalar OsgEarthNet.uav[25] utilizationSecCharge 165440
scalar OsgEarthNet.uav[25] utilizationSecIdle 48852.110879255
scalar OsgEarthNet.uav[25] utilizationEnergyMission 142143.467301
scalar OsgEarthNet.uav[25] utilizationEnergyMaintenance 64609.499904633
scalar OsgEarthNet.uav[25] utilizationEnergyCharge 206643.89990234
scalar OsgEarthNet.uav[25] utilizationEnergyOverdrawMission 0
scalar OsgEarthNet.uav[25] utilizationEnergyOverdrawMaintenance 0
scalar OsgEarthNet.uav[25] utilizationCountMissions 45
scalar OsgEarthNet.uav[25] utilizationCountManeuversMission 507
scalar OsgEarthNet.uav[25] utilizationCountManeuversMaintenance 89
scalar OsgEarthNet.uav[25] utilizationCountChargeState 45
scalar OsgEarthNet.uav[25] utilizationCountOverdrawnAfterMission 0
scalar OsgEarthNet.uav[25] utilizationCountIdleState 46
scalar OsgEarthNet.uav[25] utilizationFail 0
scalar OsgEarthNet.uav[25] simulationTime 259200
scalar OsgEarthNet.uav[26] utilizationSecMission 702.6942798579
scalar OsgEarthNet.uav[26] utilizationSecMaintenance 282.29565405678
scalar OsgEarthNet.uav[26] utilizationSecCharge 3790
scalar OsgEarthNet.uav[26] utilizationSecIdle 254425.00906609
scalar OsgEarthNet.uav[26] utilizationEnergyMission 3404.5507507324
scalar OsgEarthNet.uav[26] utilizationEnergyMaintenance 1422.8810844421
scalar OsgEarthNet.uav[26] utilizationEnergyCharge 4827.4296875
scalar OsgEarthNet.uav[26] utilizationEnergyOverdrawMission 0
scalar OsgEarthNet.uav[26] utilizationEnergyOverdrawMaintenance 0
scalar OsgEarthNet.uav[26] utilizationCountMissions 1
scalar OsgEarthNet.uav[26] utilizationCountManeuversMission 10
scalar OsgEarthNet.uav[26] utilizationCountManeuversMaintenance 2
scalar OsgEarthNet.uav[26] utilizationCountChargeState 1
scalar OsgEarthNet.uav[26] utilizationCountOverdrawnAfterMission 0
scalar OsgEarthNet.uav[26] utilizationCountIdleState 2
scalar OsgEarthNet.uav[26] utilizationFail 0
scalar OsgEarthNet.uav[26] simulationTime 259200
scalar OsgEarthNet.uav[27] utilizationSecMission 13079.07097489
scalar OsgEarthNet.uav[27] utilizationSecMaintenance 7847.9104107114
scalar OsgEarthNet.uav[27] utilizationSecCharge 77660
scalar OsgEarthNet.uav[27] utilizationSecIdle 160613.0176144
scalar OsgEarthNet.uav[27] utilizationEnergyMission 60889.541877747
scalar OsgEarthNet.uav[27] utilizationEnergyMaintenance 36534.504390717
scalar OsgEarthNet.uav[27] utilizationEnergyCharge 97327.33984375
scalar OsgEarthNet.uav[27] utilizationEnergyOverdrawMission 0
scalar OsgEarthNet.uav[27] utilizationEnergyOverdrawMaintenance 0
scalar OsgEarthNet.uav[27] utilizationCountMissions 21
scalar OsgEarthNet.uav[27] utilizationCountManeuversMission 213
scalar OsgEarthNet.uav[27] utilizationCountManeuversMaintenance 42
scalar OsgEarthNet.uav[27] utilizationCountChargeState 21
scalar OsgEarthNet.uav[27] utilizationCountOverdrawnAfterMission 0
scalar OsgEarthNet.uav[27] utilizationCountIdleState 22
scalar OsgEarthNet.uav[27] utilizationFail 0
scalar OsgEarthNet.uav[27] simulationTime 259200
scalar OsgEarthNet.uav[28] utilizationSecMission 694.00169469977
scalar OsgEarthNet.uav[28] utilizationSecMaintenance 338.49695459722
scalar OsgEarthNet.uav[28] utilizationSecCharge 3790
scalar OsgEarthNet.uav[28] utilizationSecIdle 254377.5003507
scalar OsgEarthNet.uav[28] utilizationEnergyMission 3222.595993042
scalar OsgEarthNet.uav[28] utilizationEnergyMaintenance 1551.1781730652
scalar OsgEarthNet.uav[28] utilizationEnergyCharge 4773.7778320312
scalar OsgEarthNet.uav[28] utilizationEnergyOverdrawMission 0
scalar OsgEarthNet.uav[28] utilizationEnergyOverdrawMaintenance 0
scalar OsgEarthNet.uav[28] utilizationCountMissions 1
scalar OsgEarthNet.uav[28] utilizationCountManeuversMission 13
scalar OsgEarthNet.uav[28] utilizationCountManeuversMaintenance 2
scalar OsgEarthNet.uav[28] utilizationCountChargeState 1
scalar OsgEarthNet.uav[28] utilizationCountOverdrawnAfterMission 0
scalar OsgEarthNet.uav[28] utilizationCountIdleState 2
scalar OsgEarthNet.uav[28] utilizationFail 0
scalar OsgEarthNet.uav[28] simulationTime 259200
scalar OsgEarthNet.uav[29] utilizationSecMission 836.77707522227
scalar OsgEarthNet.uav[29] utilizationSecMaintenance 217.0347828456
scalar OsgEarthNet.uav[29] utilizationSecCharge 3940
scalar OsgEarthNet.uav[29] utilizationSecIdle 254206.18714193
scalar OsgEarthNet.uav[29] utilizationEnergyMission 3953.8101501465
scalar OsgEarthNet.uav[29] utilizationEnergyMaintenance 1083.9805717468
scalar OsgEarthNet.uav[29] utilizationEnergyCharge 5037.7919921875
scalar OsgEarthNet.uav[29] utilizationEnergyOverdrawMission 0
scalar OsgEarthNet.uav[29] utilizationEnergyOverdrawMaintenance 0
scalar OsgEarthNet.uav[29] utilizationCountMissions 1
scalar OsgEarthNet.uav[29] utilizationCountManeuversMission 13
scalar OsgEarthNet.uav[29] utilizationCountManeuversMaintenance 2
scalar OsgEarthNet.uav[29] utilizationCountChargeState 1
scalar OsgEarthNet.uav[29] utilizationCountOverdrawnAfterMission 0
scalar OsgEarthNet.uav[29] utilizationCountIdleState 2
scalar OsgEarthNet.uav[29] utilizationFail 0
scalar OsgEarthNet.uav[29] simulationTime 259200
scalar OsgEarthNet.uav[30] utilizationSecMission 684.4732299383
scalar OsgEarthNet.uav[30] utilizationSecMaintenance 298.56834692969
scalar OsgEarthNet.uav[30] utilizationSecCharge 3650
scalar OsgEarthNet.uav[30] utilizationSecIdle 254566.95742313
scalar OsgEarthNet.uav[30] utilizationEnergyMission 3207.4098052979
scalar OsgEarthNet.uav[30] utilizationEnergyMaintenance 1364.6404342651
scalar OsgEarthNet.uav[30] utilizationEnergyCharge 4572.0522460938
scalar OsgEarthNet.uav[30] utilizationEnergyOverdrawMission 0
scalar OsgEarthNet.uav[30] utilizationEnergyOverdrawMaintenance 0
scalar OsgEarthNet.uav[30] utilizationCountMissions 1
scalar OsgEarthNet.uav[30] utilizationCountManeuversMission 11
scalar OsgEarthNet.uav[30] utilizationCountManeuversMaintenance 2
scalar OsgEarthNet.uav[30] utilizationCountChargeState 1
scalar OsgEarthNet.uav[30] utilizationCountOverdrawnAfterMission 0
scalar OsgEarthNet.uav[30] utilizationCountIdleState 2
scalar OsgEarthNet.uav[30] utilizationFail 0
scalar OsgEarthNet.uav[30] simulationTime 259200
scalar OsgEarthNet.uav[31] utilizationSecMission 528.55000878666
scalar OsgEarthNet.uav[31] utilizationSecMaintenance 478.92797493542
scalar OsgEarthNet.uav[31] utilizationSecCharge 3670
scalar OsgEarthNet.uav[31] utilizationSecIdle 254522.52101628
scalar OsgEarthNet.uav[31] utilizationEnergyMission 2431.2307739258
scalar OsgEarthNet.uav[31] utilizationEnergyMaintenance 2140.1697616577
scalar OsgEarthNet.uav[31] utilizationEnergyCharge 4571.3974609375
scalar OsgEarthNet.uav[31] utilizationEnergyOverdrawMission 0
scalar OsgEarthNet.uav[31] utilizationEnergyOverdrawMaintenance 0
scalar OsgEarthNet.uav[31] utilizationCountMissions 1
scalar OsgEarthNet.uav[31] utilizationCountManeuversMission 10
scalar OsgEarthNet.uav[31] utilizationCountManeuversMaintenance 2
scalar OsgEarthNet.uav[31] utilizationCountChargeState 1
scalar OsgEarthNet.uav[31] utilizationCountOverdrawnAfterMission 0
scalar OsgEarthNet.uav[31] utilizationCountIdleState 2
scalar OsgEarthNet.uav[31] utilizationFail 0
scalar OsgEarthNet.uav[31] simulationTime 259200
scalar OsgEarthNet.uav[32] utilizationSecMission 694.00169469977
scalar OsgEarthNet.uav[32] utilizationSecMaintenance 338.49695459722
scalar OsgEarthNet.uav[32] utilizationSecCharge 3730
scalar OsgEarthNet.uav[32] utilizationSecIdle 254437.5003507
scalar OsgEarthNet.uav[32] utilizationEnergyMission 3129.3313598633
scalar OsgEarthNet.uav[32] utilizationEnergyMaintenance 1536.0849723816
scalar OsgEarthNet.uav[32] utilizationEnergyCharge 4665.4135742188
scalar OsgEarthNet.uav[32] utilizationEnergyOverdrawMission 0
scalar OsgEarthNet.uav[32] utilizationEnergyOverdrawMaintenance 0
scalar OsgEarthNet.uav[32] utilizationCountMissions 1
scalar OsgEarthNet.uav[32] utilizationCountManeuversMission 13
scalar OsgEarthNet.uav[32] utilizationCountManeuversMaintenance 2
scalar OsgEarthNet.uav[32] utilizationCountChargeState 1
scalar OsgEarthNet.uav[32] utilizationCountOverdrawnAfterMission 0
scalar OsgEarthNet.uav[32] utilizationCountIdleState 2
scalar OsgEarthNet.uav[32] utilizationFail 0
scalar OsgEarthNet.uav[32] simulationTime 259200
scalar OsgEarthNet.uav[33] utilizationSecMission 760.62515258028
scalar OsgEarthNet.uav[33] utilizationSecMaintenance 291.95923480269
scalar OsgEarthNet.uav[33] utilizationSecCharge 3750
scalar OsgEarthNet.uav[33] utilizationSecIdle 254397.41461262
scalar OsgEarthNet.uav[33] utilizationEnergyMission 3287.7426757813
scalar OsgEarthNet.uav[33] utilizationEnergyMaintenance 1413.0891342163
scalar OsgEarthNet.uav[33] utilizationEnergyCharge 4700.8276367188
scalar OsgEarthNet.uav[33] utilizationEnergyOverdrawMission 0
scalar OsgEarthNet.uav[33] utilizationEnergyOverdrawMaintenance 0
scalar OsgEarthNet.uav[33] utilizationCountMissions 1
scalar OsgEarthNet.uav[33] utilizationCountManeuversMission 12
scalar OsgEarthNet.uav[33] utilizationCountManeuversMaintenance 2
scalar OsgEarthNet.uav[33] utilizationCountChargeState 1
scalar OsgEarthNet.uav[33] utilizationCountOverdrawnAfterMission 0
scalar OsgEarthNet.uav[33] utilizationCountIdleState 2
scalar OsgEarthNet.uav[33] utilizationFail 0
scalar OsgEarthNet.uav[33] simulationTime 259200
scalar OsgEarthNet.uav[34] utilizationSecMission 3531.8793736225
scalar OsgEarthNet.uav[34] utilizationSecMaintenance 2148.4878093097
scalar OsgEarthNet.uav[34] utilizationSecCharge 21710
scalar OsgEarthNet.uav[34] utilizationSecIdle 231809.63181707
scalar OsgEarthNet.uav[34] utilizationEnergyMission 16499.839912415
scalar OsgEarthNet.uav[34] utilizationEnergyMaintenance 10464.509967804
scalar OsgEarthNet.uav[34] utilizationEnergyCharge 26964.340820312
scalar OsgEarthNet.uav[34] utilizationEnergyOverdrawMission 0
scalar OsgEarthNet.uav[34] utilizationEnergyOverdrawMaintenance 0
scalar OsgEarthNet.uav[34] utilizationCountMissions 6
scalar OsgEarthNet.uav[34] utilizationCountManeuversMission 62
scalar OsgEarthNet.uav[34] utilizationCountManeuversMaintenance 12
scalar OsgEarthNet.uav[34] utilizationCountChargeState 6
scalar OsgEarthNet.uav[34] utilizationCountOverdrawnAfterMission 0
scalar OsgEarthNet.uav[34] utilizationCountIdleState 7
scalar OsgEarthNet.uav[34] utilizationFail 0
scalar OsgEarthNet.uav[34] simulationTime 259200
scalar OsgEarthNet.uav[35] utilizationSecMission 7004.6520290739
scalar OsgEarthNet.uav[35] utilizationSecMaintenance 3627.2136915833
scalar OsgEarthNet.uav[35] utilizationSecCharge 39760
scalar OsgEarthNet.uav[35] utilizationSecIdle 208808.13327934
scalar OsgEarthNet.uav[35] utilizationEnergyMission 32078.928657532
scalar OsgEarthNet.uav[35] utilizationEnergyMaintenance 17093.084659576
scalar OsgEarthNet.uav[35] utilizationEnergyCharge 49348.100097656
scalar OsgEarthNet.uav[35] utilizationEnergyOverdrawMission 0
scalar OsgEarthNet.uav[35] utilizationEnergyOverdrawMaintenance 0
scalar OsgEarthNet.uav[35] utilizationCountMissions 11
scalar OsgEarthNet.uav[35] utilizationCountManeuversMission 115
scalar OsgEarthNet.uav[35] utilizationCountManeuversMaintenance 22
scalar OsgEarthNet.uav[35] utilizationCountChargeState 11
scalar OsgEarthNet.uav[35] utilizationCountOverdrawnAfterMission 0
scalar OsgEarthNet.uav[35] utilizationCountIdleState 12
scalar OsgEarthNet.uav[35] utilizationFail 0
scalar OsgEarthNet.uav[35] simulationTime 259200
scalar OsgEarthNet.uav[36] utilizationSecMission 16086.052293578
scalar OsgEarthNet.uav[36] utilizationSecMaintenance 7883.3772825102
scalar OsgEarthNet.uav[36] utilizationSecCharge 88280
scalar OsgEarthNet.uav[36] utilizationSecIdle 146950.56942391
scalar OsgEarthNet.uav[36] utilizationEnergyMission 74494.774660761
scalar OsgEarthNet.uav[36] utilizationEnergyMaintenance 37556.77822876
scalar OsgEarthNet.uav[36] utilizationEnergyCharge 110210.04980469
scalar OsgEarthNet.uav[36] utilizationEnergyOverdrawMission 0
scalar OsgEarthNet.uav[36] utilizationEnergyOverdrawMaintenance 0
scalar OsgEarthNet.uav[36] utilizationCountMissions 24
scalar OsgEarthNet.uav[36] utilizationCountManeuversMission 257
scalar OsgEarthNet.uav[36] utilizationCountManeuversMaintenance 49
scalar OsgEarthNet.uav[36] utilizationCountChargeState 24
scalar OsgEarthNet.uav[36] utilizationCountOverdrawnAfterMission 0
scalar OsgEarthNet.uav[36] utilizationCountIdleState 25
scalar OsgEarthNet.uav[36] utilizationFail 0
scalar OsgEarthNet.uav[36] simulationTime 259200
scalar OsgEarthNet.uav[37] utilizationSecMission 30130.193258614
scalar OsgEarthNet.uav[37] utilizationSecMaintenance 14232.420794537
scalar OsgEarthNet.uav[37] utilizationSecCharge 162355.38494685
scalar OsgEarthNet.uav[37] utilizationSecIdle 52482
scalar OsgEarthNet.uav[37] utilizationEnergyMission 139448.99234009
scalar OsgEarthNet.uav[37] utilizationEnergyMaintenance 67203.233730316
scalar OsgEarthNet.uav[37] utilizationEnergyCharge 202961.98876953
scalar OsgEarthNet.uav[37] utilizationEnergyOverdrawMission 0
scalar OsgEarthNet.uav[37] utilizationEnergyOverdrawMaintenance 0
scalar OsgEarthNet.uav[37] utilizationCountMissions 45
scalar OsgEarthNet.uav[37] utilizationCountManeuversMission 490
scalar OsgEarthNet.uav[37] utilizationCountManeuversMaintenance 89
scalar OsgEarthNet.uav[37] utilizationCountChargeState 45
scalar OsgEarthNet.uav[37] utilizationCountOverdrawnAfterMission 0
scalar OsgEarthNet.uav[37] utilizationCountIdleState 45
scalar OsgEarthNet.uav[37] utilizationFail 0
scalar OsgEarthNet.uav[37] simulationTime 259200
scalar OsgEarthNet.uav[38] utilizationSecMission 16753.839593821
scalar OsgEarthNet.uav[38] utilizationSecMaintenance 6088.6698437191
scalar OsgEarthNet.uav[38] utilizationSecCharge 84640
scalar OsgEarthNet.uav[38] utilizationSecIdle 151717.48956246
scalar OsgEarthNet.uav[38] utilizationEnergyMission 77119.046977997
scalar OsgEarthNet.uav[38] utilizationEnergyMaintenance 28708.859268188
scalar OsgEarthNet.uav[38] utilizationEnergyCharge 105565.87036133
scalar OsgEarthNet.uav[38] utilizationEnergyOverdrawMission 0
scalar OsgEarthNet.uav[38] utilizationEnergyOverdrawMaintenance 0
scalar OsgEarthNet.uav[38] utilizationCountMissions 23
scalar OsgEarthNet.uav[38] utilizationCountManeuversMission 273
scalar OsgEarthNet.uav[38] utilizationCountManeuversMaintenance 46
scalar OsgEarthNet.uav[38] utilizationCountChargeState 23
scalar OsgEarthNet.uav[38] utilizationCountOverdrawnAfterMission 0
scalar OsgEarthNet.uav[38] utilizationCountIdleState 24
scalar OsgEarthNet.uav[38] utilizationFail 0
scalar OsgEarthNet.uav[38] simulationTime 259200
scalar OsgEarthNet.uav[39] utilizationSecMission 319.12280396995
scalar OsgEarthNet.uav[39] utilizationSecMaintenance 410.89195013838
scalar OsgEarthNet.uav[39] utilizationSecCharge 3020
scalar OsgEarthNet.uav[39] utilizationSecIdle 255449.98424589
scalar OsgEarthNet.uav[39] utilizationEnergyMission 1428.6539459229
scalar OsgEarthNet.uav[39] utilizationEnergyMaintenance 2032.5075302124
scalar OsgEarthNet.uav[39] utilizationEnergyCharge 3461.1579589844
scalar OsgEarthNet.uav[39] utilizationEnergyOverdrawMission 0
scalar OsgEarthNet.uav[39] utilizationEnergyOverdrawMaintenance 0
scalar OsgEarthNet.uav[39] utilizationCountMissions 1
scalar OsgEarthNet.uav[39] utilizationCountManeuversMission 5
scalar OsgEarthNet.uav[39] utilizationCountManeuversMaintenance 2
scalar OsgEarthNet.uav[39] utilizationCountChargeState 1
scalar OsgEarthNet.uav[39] utilizationCountOverdrawnAfterMission 0
scalar OsgEarthNet.uav[39] utilizationCountIdleState 2
scalar OsgEarthNet.uav[39] utilizationFail 0
scalar OsgEarthNet.uav[39] simulationTime 259200
scalar OsgEarthNet.uav[40] utilizationSecMission 750.20472747826
scalar OsgEarthNet.uav[40] utilizationSecMaintenance 335.16822070369
scalar OsgEarthNet.uav[40] utilizationSecCharge 3770
scalar OsgEarthNet.uav[40] utilizationSecIdle 254344.62605182
scalar OsgEarthNet.uav[40] utilizationEnergyMission 3333.5818939209
scalar OsgEarthNet.uav[40] utilizationEnergyMaintenance 1427.8626823425
scalar OsgEarthNet.uav[40] utilizationEnergyCharge 4761.4453125
scalar OsgEarthNet.uav[40] utilizationEnergyOverdrawMission 0
scalar OsgEarthNet.uav[40] utilizationEnergyOverdrawMaintenance 0
scalar OsgEarthNet.uav[40] utilizationCountMissions 1
scalar OsgEarthNet.uav[40] utilizationCountManeuversMission 11
scalar OsgEarthNet.uav[40] utilizationCountManeuversMaintenance 2
scalar OsgEarthNet.uav[40] utilizationCountChargeState 1
scalar OsgEarthNet.uav[40] utilizationCountOverdrawnAfterMission 0
scalar OsgEarthNet.uav[40] utilizationCountIdleState 2
scalar OsgEarthNet.uav[40] utilizationFail 0
scalar OsgEarthNet.uav[40] simulationTime 259200
scalar OsgEarthNet.uav[41] utilizationSecMission 23166.701840724
scalar OsgEarthNet.uav[41] utilizationSecMaintenance 13488.642654602
scalar OsgEarthNet.uav[41] utilizationSecCharge 135560
scalar OsgEarthNet.uav[41] utilizationSecIdle 86984.654504674
scalar OsgEarthNet.uav[41] utilizationEnergyMission 106980.69293594
scalar OsgEarthNet.uav[41] utilizationEnergyMaintenance 61662.401344299
scalar OsgEarthNet.uav[41] utilizationEnergyCharge 168720.2878418
scalar OsgEarthNet.uav[41] utilizationEnergyOverdrawMission 0
scalar OsgEarthNet.uav[41] utilizationEnergyOverdrawMaintenance 0
scalar OsgEarthNet.uav[41] utilizationCountMissions 37
scalar OsgEarthNet.uav[41] utilizationCountManeuversMission 378
scalar OsgEarthNet.uav[41] utilizationCountManeuversMaintenance 74
scalar OsgEarthNet.uav[41] utilizationCountChargeState 37
scalar OsgEarthNet.uav[41] utilizationCountOverdrawnAfterMission 0
scalar OsgEarthNet.uav[41] utilizationCountIdleState 38
scalar OsgEarthNet.uav[41] utilizationFail 0
scalar OsgEarthNet.uav[41] simulationTime 259200
scalar OsgEarthNet.uav[42] utilizationSecMission 694.00169469977
scalar OsgEarthNet.uav[42] utilizationSecMaintenance 338.49695459722
scalar OsgEarthNet.uav[42] utilizationSecCharge 3810
scalar OsgEarthNet.uav[42] utilizationSecIdle 254357.5003507
scalar OsgEarthNet.uav[42] utilizationEnergyMission 3298.3387832642
scalar OsgEarthNet.uav[42] utilizationEnergyMaintenance 1496.7049674988
scalar OsgEarthNet.uav[42] utilizationEnergyCharge 4795.0419921875
scalar OsgEarthNet.uav[42] utilizationEnergyOverdrawMission 0
scalar OsgEarthNet.uav[42] utilizationEnergyOverdrawMaintenance 0
scalar OsgEarthNet.uav[42] utilizationCountMissions 1
scalar OsgEarthNet.uav[42] utilizationCountManeuversMission 13
scalar OsgEarthNet.uav[42] utilizationCountManeuversMaintenance 2
scalar OsgEarthNet.uav[42] utilizationCountChargeState 1
scalar OsgEarthNet.uav[42] utilizationCountOverdrawnAfterMission 0
scalar OsgEarthNet.uav[42] utilizationCountIdleState 2
scalar OsgEarthNet.uav[42] utilizationFail 0
scalar OsgEarthNet.uav[42] simulationTime 259200
scalar OsgEarthNet.uav[43] utilizationSecMission 31492.098900342
scalar OsgEarthNet.uav[43] utilizationSecMaintenance 12390.09268869
scalar OsgEarthNet.uav[43] utilizationSecCharge 160735.80741097
scalar OsgEarthNet.uav[43] utilizationSecIdle 54582
scalar OsgEarthNet.uav[43] utilizationEnergyMission 144660.75111258
scalar OsgEarthNet.uav[43] utilizationEnergyMaintenance 58029.971736908
scalar OsgEarthNet.uav[43] utilizationEnergyCharge 201645.47485352
scalar OsgEarthNet.uav[43] utilizationEnergyOverdrawMission 0
scalar OsgEarthNet.uav[43] utilizationEnergyOverdrawMaintenance 0
scalar OsgEarthNet.uav[43] utilizationCountMissions 44
scalar OsgEarthNet.uav[43] utilizationCountManeuversMission 512
scalar OsgEarthNet.uav[43] utilizationCountManeuversMaintenance 87
scalar OsgEarthNet.uav[43] utilizationCountChargeState 44
scalar OsgEarthNet.uav[43] utilizationCountOverdrawnAfterMission 0
scalar OsgEarthNet.uav[43] utilizationCountIdleState 44
scalar OsgEarthNet.uav[43] utilizationFail 0
scalar OsgEarthNet.uav[43] simulationTime 259200
scalar OsgEarthNet.uav[44] utilizationSecMission 26354.463320346
scalar OsgEarthNet.uav[44] utilizationSecMaintenance 11180.121842184
scalar OsgEarthNet.uav[44] utilizationSecCharge 138645.03792842
scalar OsgEarthNet.uav[44] utilizationSecIdle 83020.375909056
scalar OsgEarthNet.uav[44] utilizationEnergyMission 121333.19750214
scalar OsgEarthNet.uav[44] utilizationEnergyMaintenance 52966.898536682
scalar OsgEarthNet.uav[44] utilizationEnergyCharge 173908.79345703
scalar OsgEarthNet.uav[44] utilizationEnergyOverdrawMission 0
scalar OsgEarthNet.uav[44] utilizationEnergyOverdrawMaintenance 0
scalar OsgEarthNet.uav[44] utilizationCountMissions 38
scalar OsgEarthNet.uav[44] utilizationCountManeuversMission 426
scalar OsgEarthNet.uav[44] utilizationCountManeuversMaintenance 76
scalar OsgEarthNet.uav[44] utilizationCountChargeState 38
scalar OsgEarthNet.uav[44] utilizationCountOverdrawnAfterMission 0
scalar OsgEarthNet.uav[44] utilizationCountIdleState 38
scalar OsgEarthNet.uav[44] utilizationFail 0
scalar OsgEarthNet.uav[44] simulationTime 259200
scalar OsgEarthNet.uav[45] utilizationSecMission 750.20472747826
scalar OsgEarthNet.uav[45] utilizationSecMaintenance 280.95484451848
scalar OsgEarthNet.uav[45] utilizationSecCharge 3860
scalar OsgEarthNet.uav[45] utilizationSecIdle 254308.839428
scalar OsgEarthNet.uav[45] utilizationEnergyMission 3518.8946838379
scalar OsgEarthNet.uav[45] utilizationEnergyMaintenance 1372.1775627136
scalar OsgEarthNet.uav[45] utilizationEnergyCharge 4891.0708007812
scalar OsgEarthNet.uav[45] utilizationEnergyOverdrawMission 0
scalar OsgEarthNet.uav[45] utilizationEnergyOverdrawMaintenance 0
scalar OsgEarthNet.uav[45] utilizationCountMissions 1
scalar OsgEarthNet.uav[45] utilizationCountManeuversMission 11
scalar OsgEarthNet.uav[45] utilizationCountManeuversMaintenance 2
scalar OsgEarthNet.uav[45] utilizationCountChargeState 1
scalar OsgEarthNet.uav[45] utilizationCountOverdrawnAfterMission 0
scalar OsgEarthNet.uav[45] utilizationCountIdleState 2
scalar OsgEarthNet.uav[45] utilizationFail 0
scalar OsgEarthNet.uav[45] simulationTime 259200
scalar OsgEarthNet.uav[46] utilizationSecMission 836.77707522227
scalar OsgEarthNet.uav[46] utilizationSecMaintenance 217.0347828456
scalar OsgEarthNet.uav[46] utilizationSecCharge 3940
scalar OsgEarthNet.uav[46] utilizationSecIdle 254206.18714193
scalar OsgEarthNet.uav[46] utilizationEnergyMission 3940.8858795166
scalar OsgEarthNet.uav[46] utilizationEnergyMaintenance 1068.829082489
scalar OsgEarthNet.uav[46] utilizationEnergyCharge 5009.7138671875
scalar OsgEarthNet.uav[46] utilizationEnergyOverdrawMission 0
scalar OsgEarthNet.uav[46] utilizationEnergyOverdrawMaintenance 0
scalar OsgEarthNet.uav[46] utilizationCountMissions 1
scalar OsgEarthNet.uav[46] utilizationCountManeuversMission 13
scalar OsgEarthNet.uav[46] utilizationCountManeuversMaintenance 2
scalar OsgEarthNet.uav[46] utilizationCountChargeState 1
scalar OsgEarthNet.uav[46] utilizationCountOverdrawnAfterMission 0
scalar OsgEarthNet.uav[46] utilizationCountIdleState 2
scalar OsgEarthNet.uav[46] utilizationFail 0
scalar OsgEarthNet.uav[46] simulationTime 259200
scalar OsgEarthNet.uav[47] utilizationSecMission 23401.241032331
scalar OsgEarthNet.uav[47] utilizationSecMaintenance 11943.041890676
scalar OsgEarthNet.uav[47] utilizationSecCharge 129781.33746623
scalar OsgEarthNet.uav[47] utilizationSecIdle 94074.378610766
scalar OsgEarthNet.uav[47] utilizationEnergyMission 108877.80143738
scalar OsgEarthNet.uav[47] utilizationEnergyMaintenance 55855.659362793
scalar OsgEarthNet.uav[47] utilizationEnergyCharge 162554.55297852
scalar OsgEarthNet.uav[47] utilizationEnergyOverdrawMission 0
scalar OsgEarthNet.uav[47] utilizationEnergyOverdrawMaintenance 0
scalar OsgEarthNet.uav[47] utilizationCountMissions 36
scalar OsgEarthNet.uav[47] utilizationCountManeuversMission 384
scalar OsgEarthNet.uav[47] utilizationCountManeuversMaintenance 72
scalar OsgEarthNet.uav[47] utilizationCountChargeState 36
scalar OsgEarthNet.uav[47] utilizationCountOverdrawnAfterMission 0
scalar OsgEarthNet.uav[47] utilizationCountIdleState 36
scalar OsgEarthNet.uav[47] utilizationFail 0
scalar OsgEarthNet.uav[47] simulationTime 259200
scalar OsgEarthNet.uav[48] utilizationSecMission 694.00169469977
scalar OsgEarthNet.uav[48] utilizationSecMaintenance 338.49695459722
scalar OsgEarthNet.uav[48] utilizationSecCharge 3750
scalar OsgEarthNet.uav[48] utilizationSecIdle 254417.5003507
scalar OsgEarthNet.uav[48] utilizationEnergyMission 3295.3213043213
scalar OsgEarthNet.uav[48] utilizationEnergyMaintenance 1391.4514274597
scalar OsgEarthNet.uav[48] utilizationEnergyCharge 4686.7768554688
scalar OsgEarthNet.uav[48] utilizationEnergyOverdrawMission 0
scalar OsgEarthNet.uav[48] utilizationEnergyOverdrawMaintenance 0
scalar OsgEarthNet.uav[48] utilizationCountMissions 1
scalar OsgEarthNet.uav[48] utilizationCountManeuversMission 13
scalar OsgEarthNet.uav[48] utilizationCountManeuversMaintenance 2
scalar OsgEarthNet.uav[48] utilizationCountChargeState 1
scalar OsgEarthNet.uav[48] utilizationCountOverdrawnAfterMission 0
scalar OsgEarthNet.uav[48] utilizationCountIdleState 2
scalar OsgEarthNet.uav[48] utilizationFail 0
scalar OsgEarthNet.uav[48] simulationTime 259200
scalar OsgEarthNet.uav[49] utilizationSecMission 581.19640448947
scalar OsgEarthNet.uav[49] utilizationSecMaintenance 393.71026136566
scalar OsgEarthNet.uav[49] utilizationSecCharge 3740
scalar OsgEarthNet.uav[49] utilizationSecIdle 254485.09233414
scalar OsgEarthNet.uav[49] utilizationEnergyMission 2784.340057373
scalar OsgEarthNet.uav[49] utilizationEnergyMaintenance 1822.9131088257
scalar OsgEarthNet.uav[49] utilizationEnergyCharge 4685.4125976562
scalar OsgEarthNet.uav[49] utilizationEnergyOverdrawMission 0
scalar OsgEarthNet.uav[49] utilizationEnergyOverdrawMaintenance 0
scalar OsgEarthNet.uav[49] utilizationCountMissions 1
scalar OsgEarthNet.uav[49] utilizationCountManeuversMission 9
scalar OsgEarthNet.uav[49] utilizationCountManeuversMaintenance 2
scalar OsgEarthNet.uav[49] utilizationCountChargeState 1
scalar OsgEarthNet.uav[49] utilizationCountOverdrawnAfterMission 0
scalar OsgEarthNet.uav[49] utilizationCountIdleState 2
scalar OsgEarthNet.uav[49] utilizationFail 0
scalar OsgEarthNet.uav[49] simulationTime 259200
scalar OsgEarthNet.uav[50] utilizationSecMission 558.29059458083
scalar OsgEarthNet.uav[50] utilizationSecMaintenance 416.7137519136
scalar OsgEarthNet.uav[50] utilizationSecCharge 3750
scalar OsgEarthNet.uav[50] utilizationSecIdle 254474.99465351
scalar OsgEarthNet.uav[50] utilizationEnergyMission 2719.3079833984
scalar OsgEarthNet.uav[50] utilizationEnergyMaintenance 2020.3841781616
scalar OsgEarthNet.uav[50] utilizationEnergyCharge 4739.6953125
scalar OsgEarthNet.uav[50] utilizationEnergyOverdrawMission 0
scalar OsgEarthNet.uav[50] utilizationEnergyOverdrawMaintenance 0
scalar OsgEarthNet.uav[50] utilizationCountMissions 1
scalar OsgEarthNet.uav[50] utilizationCountManeuversMission 8
scalar OsgEarthNet.uav[50] utilizationCountManeuversMaintenance 2
scalar OsgEarthNet.uav[50] utilizationCountChargeState 1
scalar OsgEarthNet.uav[50] utilizationCountOverdrawnAfterMission 0
scalar OsgEarthNet.uav[50] utilizationCountIdleState 2
scalar OsgEarthNet.uav[50] utilizationFail 0
scalar OsgEarthNet.uav[50] simulationTime 259200
scalar OsgEarthNet.uav[51] utilizationSecMission 28086.392389467
scalar OsgEarthNet.uav[51] utilizationSecMaintenance 13149.081295435
scalar OsgEarthNet.uav[51] utilizationSecCharge 153472.15480946
scalar OsgEarthNet.uav[51] utilizationSecIdle 64492.370505636
scalar OsgEarthNet.uav[51] utilizationEnergyMission 129486.01758575
scalar OsgEarthNet.uav[51] utilizationEnergyMaintenance 61404.299797058
scalar OsgEarthNet.uav[51] utilizationEnergyCharge 191316.27270508
scalar OsgEarthNet.uav[51] utilizationEnergyOverdrawMission 0
scalar OsgEarthNet.uav[51] utilizationEnergyOverdrawMaintenance 0
scalar OsgEarthNet.uav[51] utilizationCountMissions 42
scalar OsgEarthNet.uav[51] utilizationCountManeuversMission 464
scalar OsgEarthNet.uav[51] utilizationCountManeuversMaintenance 84
scalar OsgEarthNet.uav[51] utilizationCountChargeState 42
scalar OsgEarthNet.uav[51] utilizationCountOverdrawnAfterMission 0
scalar OsgEarthNet.uav[51] utilizationCountIdleState 42
scalar OsgEarthNet.uav[51] utilizationFail 0
scalar OsgEarthNet.uav[51] simulationTime 259200
scalar OsgEarthNet.uav[52] utilizationSecMission 766.82734763767
scalar OsgEarthNet.uav[52] utilizationSecMaintenance 306.92101052153
scalar OsgEarthNet.uav[52] utilizationSecCharge 3820
scalar OsgEarthNet.uav[52] utilizationSecIdle 254306.25064184
scalar OsgEarthNet.uav[52] utilizationEnergyMission 3634.4951629639
scalar OsgEarthNet.uav[52] utilizationEnergyMaintenance 1196.0793685913
scalar OsgEarthNet.uav[52] utilizationEnergyCharge 4823.81640625
scalar OsgEarthNet.uav[52] utilizationEnergyOverdrawMission 0
scalar OsgEarthNet.uav[52] utilizationEnergyOverdrawMaintenance 0
scalar OsgEarthNet.uav[52] utilizationCountMissions 1
scalar OsgEarthNet.uav[52] utilizationCountManeuversMission 14
scalar OsgEarthNet.uav[52] utilizationCountManeuversMaintenance 2
scalar OsgEarthNet.uav[52] utilizationCountChargeState 1
scalar OsgEarthNet.uav[52] utilizationCountOverdrawnAfterMission 0
scalar OsgEarthNet.uav[52] utilizationCountIdleState 2
scalar OsgEarthNet.uav[52] utilizationFail 0
scalar OsgEarthNet.uav[52] simulationTime 259200
scalar OsgEarthNet.uav[53] utilizationSecMission 750.20472747826
scalar OsgEarthNet.uav[53] utilizationSecMaintenance 261.68051383311
scalar OsgEarthNet.uav[53] utilizationSecCharge 3790
scalar OsgEarthNet.uav[53] utilizationSecIdle 254398.11375869
scalar OsgEarthNet.uav[53] utilizationEnergyMission 3626.4865875244
scalar OsgEarthNet.uav[53] utilizationEnergyMaintenance 1166.0412712097
scalar OsgEarthNet.uav[53] utilizationEnergyCharge 4792.5249023438
scalar OsgEarthNet.uav[53] utilizationEnergyOverdrawMission 0
scalar OsgEarthNet.uav[53] utilizationEnergyOverdrawMaintenance 0
scalar OsgEarthNet.uav[53] utilizationCountMissions 1
scalar OsgEarthNet.uav[53] utilizationCountManeuversMission 11
scalar OsgEarthNet.uav[53] utilizationCountManeuversMaintenance 2
scalar OsgEarthNet.uav[53] utilizationCountChargeState 1
scalar OsgEarthNet.uav[53] utilizationCountOverdrawnAfterMission 0
scalar OsgEarthNet.uav[53] utilizationCountIdleState 2
scalar OsgEarthNet.uav[53] utilizationFail 0
scalar OsgEarthNet.uav[53] simulationTime 259200
scalar OsgEarthNet.uav[54] utilizationSecMission 28883.558135021
scalar OsgEarthNet.uav[54] utilizationSecMaintenance 14718.642720933
scalar OsgEarthNet.uav[54] utilizationSecCharge 161814.03912186
scalar OsgEarthNet.uav[54] utilizationSecIdle 53783.759022191
scalar OsgEarthNet.uav[54] utilizationEnergyMission 132864.3807373
scalar OsgEarthNet.uav[54] utilizationEnergyMaintenance 69858.435756683
scalar OsgEarthNet.uav[54] utilizationEnergyCharge 202758.54345703
scalar OsgEarthNet.uav[54] utilizationEnergyOverdrawMission 0
scalar OsgEarthNet.uav[54] utilizationEnergyOverdrawMaintenance 0
scalar OsgEarthNet.uav[54] utilizationCountMissions 44
scalar OsgEarthNet.uav[54] utilizationCountManeuversMission 474
scalar OsgEarthNet.uav[54] utilizationCountManeuversMaintenance 88
scalar OsgEarthNet.uav[54] utilizationCountChargeState 44
scalar OsgEarthNet.uav[54] utilizationCountOverdrawnAfterMission 0
scalar OsgEarthNet.uav[54] utilizationCountIdleState 44
scalar OsgEarthNet.uav[54] utilizationFail 0
scalar OsgEarthNet.uav[54] simulationTime 259200
scalar OsgEarthNet.uav[55] utilizationSecMission 29901.139322313
scalar OsgEarthNet.uav[55] utilizationSecMaintenance 12120.050782746
scalar OsgEarthNet.uav[55] utilizationSecCharge 152414.31095376
scalar OsgEarthNet.uav[55] utilizationSecIdle 64764.497941176
scalar OsgEarthNet.uav[55] utilizationEnergyMission 136567.18148804
scalar OsgEarthNet.uav[55] utilizationEnergyMaintenance 58221.346500397
scalar OsgEarthNet.uav[55] utilizationEnergyCharge 190776.34204102
scalar OsgEarthNet.uav[55] utilizationEnergyOverdrawMission 0
scalar OsgEarthNet.uav[55] utilizationEnergyOverdrawMaintenance 0
scalar OsgEarthNet.uav[55] utilizationCountMissions 42
scalar OsgEarthNet.uav[55] utilizationCountManeuversMission 484
scalar OsgEarthNet.uav[55] utilizationCountManeuversMaintenance 84
scalar OsgEarthNet.uav[55] utilizationCountChargeState 42
scalar OsgEarthNet.uav[55] utilizationCountOverdrawnAfterMission 0
scalar OsgEarthNet.uav[55] utilizationCountIdleState 42
scalar OsgEarthNet.uav[55] utilizationFail 0
scalar OsgEarthNet.uav[55] simulationTime 259200
scalar OsgEarthNet.uav[56] utilizationSecMission 760.62515258028
scalar OsgEarthNet.uav[56] utilizationSecMaintenance 291.95923480269
scalar OsgEarthNet.uav[56] utilizationSecCharge 3720
scalar OsgEarthNet.uav[56] utilizationSecIdle 254427.41461262
scalar OsgEarthNet.uav[56] utilizationEnergyMission 3178.5354919434
scalar OsgEarthNet.uav[56] utilizationEnergyMaintenance 1474.5066757202
scalar OsgEarthNet.uav[56] utilizationEnergyCharge 4653.0405273438
scalar OsgEarthNet.uav[56] utilizationEnergyOverdrawMission 0
scalar OsgEarthNet.uav[56] utilizationEnergyOverdrawMaintenance 0
scalar OsgEarthNet.uav[56] utilizationCountMissions 1
scalar OsgEarthNet.uav[56] utilizationCountManeuversMission 12
scalar OsgEarthNet.uav[56] utilizationCountManeuversMaintenance 2
scalar OsgEarthNet.uav[56] utilizationCountChargeState 1
scalar OsgEarthNet.uav[56] utilizationCountOverdrawnAfterMission 0
scalar OsgEarthNet.uav[56] utilizationCountIdleState 2
scalar OsgEarthNet.uav[56] utilizationFail 0
scalar OsgEarthNet.uav[56] simulationTime 259200
scalar OsgEarthNet.uav[57] utilizationSecMission 17294.277882995
scalar OsgEarthNet.uav[57] utilizationSecMaintenance 6436.6938050705
scalar OsgEarthNet.uav[57] utilizationSecCharge 88580
scalar OsgEarthNet.uav[57] utilizationSecIdle 146889.02731193
scalar OsgEarthNet.uav[57] utilizationEnergyMission 80259.604278564
scalar OsgEarthNet.uav[57] utilizationEnergyMaintenance 30520.111171722
scalar OsgEarthNet.uav[57] utilizationEnergyCharge 110685.87890625
scalar OsgEarthNet.uav[57] utilizationEnergyOverdrawMission 0
scalar OsgEarthNet.uav[57] utilizationEnergyOverdrawMaintenance 0
scalar OsgEarthNet.uav[57] utilizationCountMissions 24
scalar OsgEarthNet.uav[57] utilizationCountManeuversMission 274
scalar OsgEarthNet.uav[57] utilizationCountManeuversMaintenance 48
scalar OsgEarthNet.uav[57] utilizationCountChargeState 24
scalar OsgEarthNet.uav[57] utilizationCountOverdrawnAfterMission 0
scalar OsgEarthNet.uav[57] utilizationCountIdleState 25
scalar OsgEarthNet.uav[57] utilizationFail 0
scalar OsgEarthNet.uav[57] simulationTime 259200
scalar OsgEarthNet.uav[58] utilizationSecMission 29110.133460302
scalar OsgEarthNet.uav[58] utilizationSecMaintenance 13283.417967226
scalar OsgEarthNet.uav[58] utilizationSecCharge 154220
scalar OsgEarthNet.uav[58] utilizationSecIdle 62586.447572472
scalar OsgEarthNet.uav[58] utilizationEnergyMission 134142.9110527
scalar OsgEarthNet.uav[58] utilizationEnergyMaintenance 62457.147079891
scalar OsgEarthNet.uav[58] utilizationEnergyCharge 192097.23266602
scalar OsgEarthNet.uav[58] utilizationEnergyOverdrawMission 0
scalar OsgEarthNet.uav[58] utilizationEnergyOverdrawMaintenance 0
scalar OsgEarthNet.uav[58] utilizationCountMissions 43
scalar OsgEarthNet.uav[58] utilizationCountManeuversMission 471
scalar OsgEarthNet.uav[58] utilizationCountManeuversMaintenance 86
scalar OsgEarthNet.uav[58] utilizationCountChargeState 42
scalar OsgEarthNet.uav[58] utilizationCountOverdrawnAfterMission 0
scalar OsgEarthNet.uav[58] utilizationCountIdleState 43
scalar OsgEarthNet.uav[58] utilizationFail 0
scalar OsgEarthNet.uav[58] simulationTime 259200
scalar OsgEarthNet.uav[59] utilizationSecMission 623.68863475643
scalar OsgEarthNet.uav[59] utilizationSecMaintenance 394.94199877579
scalar OsgEarthNet.uav[59] utilizationSecCharge 3800
scalar OsgEarthNet.uav[59] utilizationSecIdle 254381.36836647
scalar OsgEarthNet.uav[59] utilizationEnergyMission 2906.3220672607
scalar OsgEarthNet.uav[59] utilizationEnergyMaintenance 1826.7526473999
scalar OsgEarthNet.uav[59] utilizationEnergyCharge 4812.4760742188
scalar OsgEarthNet.uav[59] utilizationEnergyOverdrawMission 0
scalar OsgEarthNet.uav[59] utilizationEnergyOverdrawMaintenance 0
scalar OsgEarthNet.uav[59] utilizationCountMissions 1
scalar OsgEarthNet.uav[59] utilizationCountManeuversMission 10
scalar OsgEarthNet.uav[59] utilizationCountManeuversMaintenance 2
scalar OsgEarthNet.uav[59] utilizationCountChargeState 1
scalar OsgEarthNet.uav[59] utilizationCountOverdrawnAfterMission 0
scalar OsgEarthNet.uav[59] utilizationCountIdleState 2
scalar OsgEarthNet.uav[59] utilizationFail 0
scalar OsgEarthNet.uav[59] simulationTime 259200
scalar OsgEarthNet.uav[60] utilizationSecMission 684.4732299383
scalar OsgEarthNet.uav[60] utilizationSecMaintenance 298.56834692969
scalar OsgEarthNet.uav[60] utilizationSecCharge 3730
scalar OsgEarthNet.uav[60] utilizationSecIdle 254486.95742313
scalar OsgEarthNet.uav[60] utilizationEnergyMission 3192.5679168701
scalar OsgEarthNet.uav[60] utilizationEnergyMaintenance 1487.6038742065
scalar OsgEarthNet.uav[60] utilizationEnergyCharge 4680.1752929688
scalar OsgEarthNet.uav[60] utilizationEnergyOverdrawMission 0
scalar OsgEarthNet.uav[60] utilizationEnergyOverdrawMaintenance 0
scalar OsgEarthNet.uav[60] utilizationCountMissions 1
scalar OsgEarthNet.uav[60] utilizationCountManeuversMission 11
scalar OsgEarthNet.uav[60] utilizationCountManeuversMaintenance 2
scalar OsgEarthNet.uav[60] utilizationCountChargeState 1
scalar OsgEarthNet.uav[60] utilizationCountOverdrawnAfterMission 0
scalar OsgEarthNet.uav[60] utilizationCountIdleState 2
scalar OsgEarthNet.uav[60] utilizationFail 0
scalar OsgEarthNet.uav[60] simulationTime 259200
scalar OsgEarthNet.uav[61] utilizationSecMission 28631.778911488
scalar OsgEarthNet.uav[61] utilizationSecMaintenance 13113.405678381
scalar OsgEarthNet.uav[61] utilizationSecCharge 154690
scalar OsgEarthNet.uav[61] utilizationSecIdle 62764.814410131
scalar OsgEarthNet.uav[61] utilizationEnergyMission 132269.72643661
scalar OsgEarthNet.uav[61] utilizationEnergyMaintenance 61521.835361481
scalar OsgEarthNet.uav[61] utilizationEnergyCharge 193036.88232422
scalar OsgEarthNet.uav[61] utilizationEnergyOverdrawMission 0
scalar OsgEarthNet.uav[61] utilizationEnergyOverdrawMaintenance 0
scalar OsgEarthNet.uav[61] utilizationCountMissions 42
scalar OsgEarthNet.uav[61] utilizationCountManeuversMission 467
scalar OsgEarthNet.uav[61] utilizationCountManeuversMaintenance 84
scalar OsgEarthNet.uav[61] utilizationCountChargeState 42
scalar OsgEarthNet.uav[61] utilizationCountOverdrawnAfterMission 0
scalar OsgEarthNet.uav[61] utilizationCountIdleState 43
scalar OsgEarthNet.uav[61] utilizationFail 0
scalar OsgEarthNet.uav[61] simulationTime 259200
scalar OsgEarthNet.uav[62] utilizationSecMission 29304.995286952
scalar OsgEarthNet.uav[62] utilizationSecMaintenance 14897.634230831
scalar OsgEarthNet.uav[62] utilizationSecCharge 163381.33338345
scalar OsgEarthNet.uav[62] utilizationSecIdle 51616.036098769
scalar OsgEarthNet.uav[62] utilizationEnergyMission 134962.63599396
scalar OsgEarthNet.uav[62] utilizationEnergyMaintenance 70595.434902191
scalar OsgEarthNet.uav[62] utilizationEnergyCharge 204709.00854492
scalar OsgEarthNet.uav[62] utilizationEnergyOverdrawMission 0
scalar OsgEarthNet.uav[62] utilizationEnergyOverdrawMaintenance 0
scalar OsgEarthNet.uav[62] utilizationCountMissions 45
scalar OsgEarthNet.uav[62] utilizationCountManeuversMission 493
scalar OsgEarthNet.uav[62] utilizationCountManeuversMaintenance 90
scalar OsgEarthNet.uav[62] utilizationCountChargeState 45
scalar OsgEarthNet.uav[62] utilizationCountOverdrawnAfterMission 0
scalar OsgEarthNet.uav[62] utilizationCountIdleState 45
scalar OsgEarthNet.uav[62] utilizationFail 0
scalar OsgEarthNet.uav[62] simulationTime 259200
scalar OsgEarthNet.uav[63] utilizationSecMission 702.6942798579
scalar OsgEarthNet.uav[63] utilizationSecMaintenance 282.29565405678
scalar OsgEarthNet.uav[63] utilizationSecCharge 3700
scalar OsgEarthNet.uav[63] utilizationSecIdle 254515.00906609
scalar OsgEarthNet.uav[63] utilizationEnergyMission 3236.9190216064
scalar OsgEarthNet.uav[63] utilizationEnergyMaintenance 1360.6461906433
scalar OsgEarthNet.uav[63] utilizationEnergyCharge 4597.5649414062
scalar OsgEarthNet.uav[63] utilizationEnergyOverdrawMission 0
scalar OsgEarthNet.uav[63] utilizationEnergyOverdrawMaintenance 0
scalar OsgEarthNet.uav[63] utilizationCountMissions 1
scalar OsgEarthNet.uav[63] utilizationCountManeuversMission 10
scalar OsgEarthNet.uav[63] utilizationCountManeuversMaintenance 2
scalar OsgEarthNet.uav[63] utilizationCountChargeState 1
scalar OsgEarthNet.uav[63] utilizationCountOverdrawnAfterMission 0
scalar OsgEarthNet.uav[63] utilizationCountIdleState 2
scalar OsgEarthNet.uav[63] utilizationFail 0
scalar OsgEarthNet.uav[63] simulationTime 259200
scalar OsgEarthNet.uav[64] utilizationSecMission 621.17604176187
scalar OsgEarthNet.uav[64] utilizationSecMaintenance 378.2815995389
scalar OsgEarthNet.uav[64] utilizationSecCharge 3750
scalar OsgEarthNet.uav[64] utilizationSecIdle 254450.5413587
scalar OsgEarthNet.uav[64] utilizationEnergyMission 2983.5307159424
scalar OsgEarthNet.uav[64] utilizationEnergyMaintenance 1700.1900749207
scalar OsgEarthNet.uav[64] utilizationEnergyCharge 4683.720703125
scalar OsgEarthNet.uav[64] utilizationEnergyOverdrawMission 0
scalar OsgEarthNet.uav[64] utilizationEnergyOverdrawMaintenance 0
scalar OsgEarthNet.uav[64] utilizationCountMissions 1
scalar OsgEarthNet.uav[64] utilizationCountManeuversMission 12
scalar OsgEarthNet.uav[64] utilizationCountManeuversMaintenance 2
scalar OsgEarthNet.uav[64] utilizationCountChargeState 1
scalar OsgEarthNet.uav[64] utilizationCountOverdrawnAfterMission 0
scalar OsgEarthNet.uav[64] utilizationCountIdleState 2
scalar OsgEarthNet.uav[64] utilizationFail 0
scalar OsgEarthNet.uav[64] simulationTime 259200
scalar OsgEarthNet.uav[65] utilizationSecMission 8989.3850528456
scalar OsgEarthNet.uav[65] utilizationSecMaintenance 3957.9509877018
scalar OsgEarthNet.uav[65] utilizationSecCharge 47840
scalar OsgEarthNet.uav[65] utilizationSecIdle 198412.66295945
scalar OsgEarthNet.uav[65] utilizationEnergyMission 41577.896858215
scalar OsgEarthNet.uav[65] utilizationEnergyMaintenance 18125.343803406
[...]
scalar OsgEarthNet.uav[82] utilizationEnergyMission 107025.60482025
scalar OsgEarthNet.uav[82] utilizationEnergyMaintenance 51711.645938873
scalar OsgEarthNet.uav[82] utilizationEnergyCharge 159417.41162109
scalar OsgEarthNet.uav[82] utilizationEnergyOverdrawMission 0
scalar OsgEarthNet.uav[82] utilizationEnergyOverdrawMaintenance 0
scalar OsgEarthNet.uav[82] utilizationCountMissions 34
scalar OsgEarthNet.uav[82] utilizationCountManeuversMission 374
scalar OsgEarthNet.uav[82] utilizationCountManeuversMaintenance 68
scalar OsgEarthNet.uav[82] utilizationCountChargeState 34
scalar OsgEarthNet.uav[82] utilizationCountOverdrawnAfterMission 0
scalar OsgEarthNet.uav[82] utilizationCountIdleState 35
scalar OsgEarthNet.uav[82] utilizationFail 0
scalar OsgEarthNet.uav[82] simulationTime 259200
scalar OsgEarthNet.uav[83] utilizationSecMission 836.77707522227
scalar OsgEarthNet.uav[83] utilizationSecMaintenance 217.0347828456
scalar OsgEarthNet.uav[83] utilizationSecCharge 3730
scalar OsgEarthNet.uav[83] utilizationSecIdle 254416.18714193
scalar OsgEarthNet.uav[83] utilizationEnergyMission 3691.9213867188
scalar OsgEarthNet.uav[83] utilizationEnergyMaintenance 1005.1754264832
scalar OsgEarthNet.uav[83] utilizationEnergyCharge 4697.0991210938
scalar OsgEarthNet.uav[83] utilizationEnergyOverdrawMission 0
scalar OsgEarthNet.uav[83] utilizationEnergyOverdrawMaintenance 0
scalar OsgEarthNet.uav[83] utilizationCountMissions 1
scalar OsgEarthNet.uav[83] utilizationCountManeuversMission 13
scalar OsgEarthNet.uav[83] utilizationCountManeuversMaintenance 2
scalar OsgEarthNet.uav[83] utilizationCountChargeState 1
scalar OsgEarthNet.uav[83] utilizationCountOverdrawnAfterMission 0
scalar OsgEarthNet.uav[83] utilizationCountIdleState 2
scalar OsgEarthNet.uav[83] utilizationFail 0
scalar OsgEarthNet.uav[83] simulationTime 259200
scalar OsgEarthNet.uav[84] utilizationSecMission 8377.4017003339
scalar OsgEarthNet.uav[84] utilizationSecMaintenance 3398.0371720499
scalar OsgEarthNet.uav[84] utilizationSecCharge 44390
scalar OsgEarthNet.uav[84] utilizationSecIdle 203034.56012762
scalar OsgEarthNet.uav[84] utilizationEnergyMission 39184.525115967
scalar OsgEarthNet.uav[84] utilizationEnergyMaintenance 16338.109664917
scalar OsgEarthNet.uav[84] utilizationEnergyCharge 55546.225097656
scalar OsgEarthNet.uav[84] utilizationEnergyOverdrawMission 0
scalar OsgEarthNet.uav[84] utilizationEnergyOverdrawMaintenance 0
scalar OsgEarthNet.uav[84] utilizationCountMissions 12
scalar OsgEarthNet.uav[84] utilizationCountManeuversMission 133
scalar OsgEarthNet.uav[84] utilizationCountManeuversMaintenance 24
scalar OsgEarthNet.uav[84] utilizationCountChargeState 12
scalar OsgEarthNet.uav[84] utilizationCountOverdrawnAfterMission 0
scalar OsgEarthNet.uav[84] utilizationCountIdleState 13
scalar OsgEarthNet.uav[84] utilizationFail 0
scalar OsgEarthNet.uav[84] simulationTime 259200
scalar OsgEarthNet.uav[85] utilizationSecMission 694.00169469977
scalar OsgEarthNet.uav[85] utilizationSecMaintenance 338.49695459722
scalar OsgEarthNet.uav[85] utilizationSecCharge 3780
scalar OsgEarthNet.uav[85] utilizationSecIdle 254387.5003507
scalar OsgEarthNet.uav[85] utilizationEnergyMission 3362.2100524902
scalar OsgEarthNet.uav[85] utilizationEnergyMaintenance 1376.2081413269
scalar OsgEarthNet.uav[85] utilizationEnergyCharge 4738.4189453125
scalar OsgEarthNet.uav[85] utilizationEnergyOverdrawMission 0
scalar OsgEarthNet.uav[85] utilizationEnergyOverdrawMaintenance 0
scalar OsgEarthNet.uav[85] utilizationCountMissions 1
scalar OsgEarthNet.uav[85] utilizationCountManeuversMission 13
scalar OsgEarthNet.uav[85] utilizationCountManeuversMaintenance 2
scalar OsgEarthNet.uav[85] utilizationCountChargeState 1
scalar OsgEarthNet.uav[85] utilizationCountOverdrawnAfterMission 0
scalar OsgEarthNet.uav[85] utilizationCountIdleState 2
scalar OsgEarthNet.uav[85] utilizationFail 0
scalar OsgEarthNet.uav[85] simulationTime 259200
scalar OsgEarthNet.uav[86] utilizationSecMission 684.4732299383
scalar OsgEarthNet.uav[86] utilizationSecMaintenance 298.56834692969
scalar OsgEarthNet.uav[86] utilizationSecCharge 3700
scalar OsgEarthNet.uav[86] utilizationSecIdle 254516.95742313
scalar OsgEarthNet.uav[86] utilizationEnergyMission 3298.8092498779
scalar OsgEarthNet.uav[86] utilizationEnergyMaintenance 1363.7515487671
scalar OsgEarthNet.uav[86] utilizationEnergyCharge 4662.5610351562
scalar OsgEarthNet.uav[86] utilizationEnergyOverdrawMission 0
scalar OsgEarthNet.uav[86] utilizationEnergyOverdrawMaintenance 0
scalar OsgEarthNet.uav[86] utilizationCountMissions 1
scalar OsgEarthNet.uav[86] utilizationCountManeuversMission 11
scalar OsgEarthNet.uav[86] utilizationCountManeuversMaintenance 2
scalar OsgEarthNet.uav[86] utilizationCountChargeState 1
scalar OsgEarthNet.uav[86] utilizationCountOverdrawnAfterMission 0
scalar OsgEarthNet.uav[86] utilizationCountIdleState 2
scalar OsgEarthNet.uav[86] utilizationFail 0
scalar OsgEarthNet.uav[86] simulationTime 259200
scalar OsgEarthNet.uav[87] utilizationSecMission 26485.442930707
scalar OsgEarthNet.uav[87] utilizationSecMaintenance 13484.57128218
scalar OsgEarthNet.uav[87] utilizationSecCharge 147176.12211654
scalar OsgEarthNet.uav[87] utilizationSecIdle 72053.862670577
scalar OsgEarthNet.uav[87] utilizationEnergyMission 123017.14582825
scalar OsgEarthNet.uav[87] utilizationEnergyMaintenance 62520.701904297
scalar OsgEarthNet.uav[87] utilizationEnergyCharge 184952.57250977
scalar OsgEarthNet.uav[87] utilizationEnergyOverdrawMission 0
scalar OsgEarthNet.uav[87] utilizationEnergyOverdrawMaintenance 0
scalar OsgEarthNet.uav[87] utilizationCountMissions 40
scalar OsgEarthNet.uav[87] utilizationCountManeuversMission 437
scalar OsgEarthNet.uav[87] utilizationCountManeuversMaintenance 80
scalar OsgEarthNet.uav[87] utilizationCountChargeState 40
scalar OsgEarthNet.uav[87] utilizationCountOverdrawnAfterMission 0
scalar OsgEarthNet.uav[87] utilizationCountIdleState 40
scalar OsgEarthNet.uav[87] utilizationFail 0
scalar OsgEarthNet.uav[87] simulationTime 259200
scalar OsgEarthNet.uav[88] utilizationSecMission 23223.267913606
scalar OsgEarthNet.uav[88] utilizationSecMaintenance 11790.67231807
scalar OsgEarthNet.uav[88] utilizationSecCharge 128789.405459
scalar OsgEarthNet.uav[88] utilizationSecIdle 95396.653309323
scalar OsgEarthNet.uav[88] utilizationEnergyMission 107172.15739441
scalar OsgEarthNet.uav[88] utilizationEnergyMaintenance 56063.744152069
scalar OsgEarthNet.uav[88] utilizationEnergyCharge 162557.41357422
scalar OsgEarthNet.uav[88] utilizationEnergyOverdrawMission 0
scalar OsgEarthNet.uav[88] utilizationEnergyOverdrawMaintenance 0
scalar OsgEarthNet.uav[88] utilizationCountMissions 35
scalar OsgEarthNet.uav[88] utilizationCountManeuversMission 383
scalar OsgEarthNet.uav[88] utilizationCountManeuversMaintenance 70
scalar OsgEarthNet.uav[88] utilizationCountChargeState 35
scalar OsgEarthNet.uav[88] utilizationCountOverdrawnAfterMission 0
scalar OsgEarthNet.uav[88] utilizationCountIdleState 35
scalar OsgEarthNet.uav[88] utilizationFail 0
scalar OsgEarthNet.uav[88] simulationTime 259200
scalar OsgEarthNet.uav[89] utilizationSecMission 836.77707522227
scalar OsgEarthNet.uav[89] utilizationSecMaintenance 217.0347828456
scalar OsgEarthNet.uav[89] utilizationSecCharge 3980
scalar OsgEarthNet.uav[89] utilizationSecIdle 254166.18714193
scalar OsgEarthNet.uav[89] utilizationEnergyMission 3901.3919677734
scalar OsgEarthNet.uav[89] utilizationEnergyMaintenance 1239.4368400574
scalar OsgEarthNet.uav[89] utilizationEnergyCharge 5140.82421875
scalar OsgEarthNet.uav[89] utilizationEnergyOverdrawMission 0
scalar OsgEarthNet.uav[89] utilizationEnergyOverdrawMaintenance 0
scalar OsgEarthNet.uav[89] utilizationCountMissions 1
scalar OsgEarthNet.uav[89] utilizationCountManeuversMission 13
scalar OsgEarthNet.uav[89] utilizationCountManeuversMaintenance 2
scalar OsgEarthNet.uav[89] utilizationCountChargeState 1
scalar OsgEarthNet.uav[89] utilizationCountOverdrawnAfterMission 0
scalar OsgEarthNet.uav[89] utilizationCountIdleState 2
scalar OsgEarthNet.uav[89] utilizationFail 0
scalar OsgEarthNet.uav[89] simulationTime 259200
scalar OsgEarthNet.uav[90] utilizationSecMission 836.77707522227
scalar OsgEarthNet.uav[90] utilizationSecMaintenance 217.0347828456
scalar OsgEarthNet.uav[90] utilizationSecCharge 3730
scalar OsgEarthNet.uav[90] utilizationSecIdle 254416.18714193
scalar OsgEarthNet.uav[90] utilizationEnergyMission 3704.9534225464
scalar OsgEarthNet.uav[90] utilizationEnergyMaintenance 1009.0709648132
scalar OsgEarthNet.uav[90] utilizationEnergyCharge 4723.7016601562
scalar OsgEarthNet.uav[90] utilizationEnergyOverdrawMission 0
scalar OsgEarthNet.uav[90] utilizationEnergyOverdrawMaintenance 0
scalar OsgEarthNet.uav[90] utilizationCountMissions 1
scalar OsgEarthNet.uav[90] utilizationCountManeuversMission 13
scalar OsgEarthNet.uav[90] utilizationCountManeuversMaintenance 2
scalar OsgEarthNet.uav[90] utilizationCountChargeState 1
scalar OsgEarthNet.uav[90] utilizationCountOverdrawnAfterMission 0
scalar OsgEarthNet.uav[90] utilizationCountIdleState 2
scalar OsgEarthNet.uav[90] utilizationFail 0
scalar OsgEarthNet.uav[90] simulationTime 259200
scalar OsgEarthNet.uav[91] utilizationSecMission 23554.742575307
scalar OsgEarthNet.uav[91] utilizationSecMaintenance 12508.093665969
scalar OsgEarthNet.uav[91] utilizationSecCharge 131837.6111814
scalar OsgEarthNet.uav[91] utilizationSecIdle 91299.551577324
scalar OsgEarthNet.uav[91] utilizationEnergyMission 109626.0255127
scalar OsgEarthNet.uav[91] utilizationEnergyMaintenance 58819.494747162
scalar OsgEarthNet.uav[91] utilizationEnergyCharge 165862.5357666
scalar OsgEarthNet.uav[91] utilizationEnergyOverdrawMission 0
scalar OsgEarthNet.uav[91] utilizationEnergyOverdrawMaintenance 0
scalar OsgEarthNet.uav[91] utilizationCountMissions 36
scalar OsgEarthNet.uav[91] utilizationCountManeuversMission 382
scalar OsgEarthNet.uav[91] utilizationCountManeuversMaintenance 72
scalar OsgEarthNet.uav[91] utilizationCountChargeState 36
scalar OsgEarthNet.uav[91] utilizationCountOverdrawnAfterMission 0
scalar OsgEarthNet.uav[91] utilizationCountIdleState 36
scalar OsgEarthNet.uav[91] utilizationFail 0
scalar OsgEarthNet.uav[91] simulationTime 259200
scalar OsgEarthNet.uav[92] utilizationSecMission 887.1741082606
scalar OsgEarthNet.uav[92] utilizationSecMaintenance 181.20511066264
scalar OsgEarthNet.uav[92] utilizationSecCharge 3780
scalar OsgEarthNet.uav[92] utilizationSecIdle 254351.61978108
scalar OsgEarthNet.uav[92] utilizationEnergyMission 4024.8544158936
scalar OsgEarthNet.uav[92] utilizationEnergyMaintenance 836.86616134644
scalar OsgEarthNet.uav[92] utilizationEnergyCharge 4751.654296875
scalar OsgEarthNet.uav[92] utilizationEnergyOverdrawMission 0
scalar OsgEarthNet.uav[92] utilizationEnergyOverdrawMaintenance 0
scalar OsgEarthNet.uav[92] utilizationCountMissions 1
scalar OsgEarthNet.uav[92] utilizationCountManeuversMission 14
scalar OsgEarthNet.uav[92] utilizationCountManeuversMaintenance 2
scalar OsgEarthNet.uav[92] utilizationCountChargeState 1
scalar OsgEarthNet.uav[92] utilizationCountOverdrawnAfterMission 0
scalar OsgEarthNet.uav[92] utilizationCountIdleState 2
scalar OsgEarthNet.uav[92] utilizationFail 0
scalar OsgEarthNet.uav[92] simulationTime 259200
scalar OsgEarthNet.uav[93] utilizationSecMission 1588.8188217492
scalar OsgEarthNet.uav[93] utilizationSecMaintenance 455.48036383517
scalar OsgEarthNet.uav[93] utilizationSecCharge 4422.6257819337
scalar OsgEarthNet.uav[93] utilizationSecIdle 252733.07403248
scalar OsgEarthNet.uav[93] utilizationEnergyMission 7314.1104888916
scalar OsgEarthNet.uav[93] utilizationEnergyMaintenance 2205.1000595093
scalar OsgEarthNet.uav[93] utilizationEnergyCharge 5849.5275878906
scalar OsgEarthNet.uav[93] utilizationEnergyOverdrawMission 0
scalar OsgEarthNet.uav[93] utilizationEnergyOverdrawMaintenance 0
scalar OsgEarthNet.uav[93] utilizationCountMissions 2
scalar OsgEarthNet.uav[93] utilizationCountManeuversMission 25
scalar OsgEarthNet.uav[93] utilizationCountManeuversMaintenance 4
scalar OsgEarthNet.uav[93] utilizationCountChargeState 2
scalar OsgEarthNet.uav[93] utilizationCountOverdrawnAfterMission 0
scalar OsgEarthNet.uav[93] utilizationCountIdleState 2
scalar OsgEarthNet.uav[93] utilizationFail 0
scalar OsgEarthNet.uav[93] simulationTime 259200
scalar OsgEarthNet.uav[94] utilizationSecMission 2921.1517893572
scalar OsgEarthNet.uav[94] utilizationSecMaintenance 1249.0386077038
scalar OsgEarthNet.uav[94] utilizationSecCharge 15140
scalar OsgEarthNet.uav[94] utilizationSecIdle 239889.80860294
scalar OsgEarthNet.uav[94] utilizationEnergyMission 13458.059204102
scalar OsgEarthNet.uav[94] utilizationEnergyMaintenance 5548.6245994568
scalar OsgEarthNet.uav[94] utilizationEnergyCharge 18957.338378906
scalar OsgEarthNet.uav[94] utilizationEnergyOverdrawMission 0
scalar OsgEarthNet.uav[94] utilizationEnergyOverdrawMaintenance 0
scalar OsgEarthNet.uav[94] utilizationCountMissions 4
scalar OsgEarthNet.uav[94] utilizationCountManeuversMission 46
scalar OsgEarthNet.uav[94] utilizationCountManeuversMaintenance 8
scalar OsgEarthNet.uav[94] utilizationCountChargeState 4
scalar OsgEarthNet.uav[94] utilizationCountOverdrawnAfterMission 0
scalar OsgEarthNet.uav[94] utilizationCountIdleState 5
scalar OsgEarthNet.uav[94] utilizationFail 0
scalar OsgEarthNet.uav[94] simulationTime 259200
scalar OsgEarthNet.uav[95] utilizationSecMission 27927.030365512
scalar OsgEarthNet.uav[95] utilizationSecMaintenance 14652.312011861
scalar OsgEarthNet.uav[95] utilizationSecCharge 153824.41478701
scalar OsgEarthNet.uav[95] utilizationSecIdle 62796.241835621
scalar OsgEarthNet.uav[95] utilizationEnergyMission 128639.38108826
scalar OsgEarthNet.uav[95] utilizationEnergyMaintenance 68546.903446198
scalar OsgEarthNet.uav[95] utilizationEnergyCharge 193352.30871582
scalar OsgEarthNet.uav[95] utilizationEnergyOverdrawMission 0
scalar OsgEarthNet.uav[95] utilizationEnergyOverdrawMaintenance 0
scalar OsgEarthNet.uav[95] utilizationCountMissions 42
scalar OsgEarthNet.uav[95] utilizationCountManeuversMission 448
scalar OsgEarthNet.uav[95] utilizationCountManeuversMaintenance 84
scalar OsgEarthNet.uav[95] utilizationCountChargeState 42
scalar OsgEarthNet.uav[95] utilizationCountOverdrawnAfterMission 0
scalar OsgEarthNet.uav[95] utilizationCountIdleState 42
scalar OsgEarthNet.uav[95] utilizationFail 0
scalar OsgEarthNet.uav[95] simulationTime 259200
scalar OsgEarthNet.uav[96] utilizationSecMission 8085.5213175028
scalar OsgEarthNet.uav[96] utilizationSecMaintenance 5897.8579785148
scalar OsgEarthNet.uav[96] utilizationSecCharge 51940
scalar OsgEarthNet.uav[96] utilizationSecIdle 193276.61970398
scalar OsgEarthNet.uav[96] utilizationEnergyMission 37998.932815552
scalar OsgEarthNet.uav[96] utilizationEnergyMaintenance 27261.401294708
scalar OsgEarthNet.uav[96] utilizationEnergyCharge 65005.661132812
scalar OsgEarthNet.uav[96] utilizationEnergyOverdrawMission 0
scalar OsgEarthNet.uav[96] utilizationEnergyOverdrawMaintenance 0
scalar OsgEarthNet.uav[96] utilizationCountMissions 14
scalar OsgEarthNet.uav[96] utilizationCountManeuversMission 135
scalar OsgEarthNet.uav[96] utilizationCountManeuversMaintenance 28
scalar OsgEarthNet.uav[96] utilizationCountChargeState 14
scalar OsgEarthNet.uav[96] utilizationCountOverdrawnAfterMission 0
scalar OsgEarthNet.uav[96] utilizationCountIdleState 15
scalar OsgEarthNet.uav[96] utilizationFail 0
scalar OsgEarthNet.uav[96] simulationTime 259200
scalar OsgEarthNet.uav[97] utilizationSecMission 28794.546959921
scalar OsgEarthNet.uav[97] utilizationSecMaintenance 13798.771232191
scalar OsgEarthNet.uav[97] utilizationSecCharge 155560
scalar OsgEarthNet.uav[97] utilizationSecIdle 61046.680807888
scalar OsgEarthNet.uav[97] utilizationEnergyMission 134464.12838219
scalar OsgEarthNet.uav[97] utilizationEnergyMaintenance 63234.274513245
scalar OsgEarthNet.uav[97] utilizationEnergyCharge 194701.40576172
scalar OsgEarthNet.uav[97] utilizationEnergyOverdrawMission 0
scalar OsgEarthNet.uav[97] utilizationEnergyOverdrawMaintenance 0
scalar OsgEarthNet.uav[97] utilizationCountMissions 42
scalar OsgEarthNet.uav[97] utilizationCountManeuversMission 489
scalar OsgEarthNet.uav[97] utilizationCountManeuversMaintenance 85
scalar OsgEarthNet.uav[97] utilizationCountChargeState 42
scalar OsgEarthNet.uav[97] utilizationCountOverdrawnAfterMission 0
scalar OsgEarthNet.uav[97] utilizationCountIdleState 43
scalar OsgEarthNet.uav[97] utilizationFail 0
scalar OsgEarthNet.uav[97] simulationTime 259200
scalar OsgEarthNet.uav[98] utilizationSecMission 20438.161423049
scalar OsgEarthNet.uav[98] utilizationSecMaintenance 10055.162044711
scalar OsgEarthNet.uav[98] utilizationSecCharge 113190
scalar OsgEarthNet.uav[98] utilizationSecIdle 115516.67553224
scalar OsgEarthNet.uav[98] utilizationEnergyMission 92971.0691185
scalar OsgEarthNet.uav[98] utilizationEnergyMaintenance 47001.352771759
scalar OsgEarthNet.uav[98] utilizationEnergyCharge 140948.82739258
scalar OsgEarthNet.uav[98] utilizationEnergyOverdrawMission 0
scalar OsgEarthNet.uav[98] utilizationEnergyOverdrawMaintenance 0
scalar OsgEarthNet.uav[98] utilizationCountMissions 31
scalar OsgEarthNet.uav[98] utilizationCountManeuversMission 333
scalar OsgEarthNet.uav[98] utilizationCountManeuversMaintenance 62
scalar OsgEarthNet.uav[98] utilizationCountChargeState 31
scalar OsgEarthNet.uav[98] utilizationCountOverdrawnAfterMission 0
scalar OsgEarthNet.uav[98] utilizationCountIdleState 31
scalar OsgEarthNet.uav[98] utilizationFail 0
scalar OsgEarthNet.uav[98] simulationTime 259200
scalar OsgEarthNet.uav[99] utilizationSecMission 26466.04552012
scalar OsgEarthNet.uav[99] utilizationSecMaintenance 14141.62180733
scalar OsgEarthNet.uav[99] utilizationSecCharge 149155.59895536
scalar OsgEarthNet.uav[99] utilizationSecIdle 69436.73271719
scalar OsgEarthNet.uav[99] utilizationEnergyMission 122941.07032776
scalar OsgEarthNet.uav[99] utilizationEnergyMaintenance 66118.158779144
scalar OsgEarthNet.uav[99] utilizationEnergyCharge 187244.96826172
scalar OsgEarthNet.uav[99] utilizationEnergyOverdrawMission 0
scalar OsgEarthNet.uav[99] utilizationEnergyOverdrawMaintenance 0
scalar OsgEarthNet.uav[99] utilizationCountMissions 41
scalar OsgEarthNet.uav[99] utilizationCountManeuversMission 428
scalar OsgEarthNet.uav[99] utilizationCountManeuversMaintenance 82
scalar OsgEarthNet.uav[99] utilizationCountChargeState 41
scalar OsgEarthNet.uav[99] utilizationCountOverdrawnAfterMission 0
scalar OsgEarthNet.uav[99] utilizationCountIdleState 41
scalar OsgEarthNet.uav[99] utilizationFail 0
scalar OsgEarthNet.uav[99] simulationTime 259200
scalar OsgEarthNet.cs[0] usedPower 555573.85418172
scalar OsgEarthNet.cs[0] chargedPower 555573.85418172
scalar OsgEarthNet.cs[0] chargedMobileNodes 118
scalar OsgEarthNet.cs[0] reservations 119
scalar OsgEarthNet.cs[1] usedPower 1110266.0609377
scalar OsgEarthNet.cs[1] chargedPower 1110266.0609377
scalar OsgEarthNet.cs[1] chargedMobileNodes 234
scalar OsgEarthNet.cs[1] reservations 239
scalar OsgEarthNet.cs[2] usedPower 2767540.2691817
scalar OsgEarthNet.cs[2] chargedPower 2767540.2691817
scalar OsgEarthNet.cs[2] chargedMobileNodes 586
scalar OsgEarthNet.cs[2] reservations 595
scalar OsgEarthNet.cs[3] usedPower 668241.47853555
scalar OsgEarthNet.cs[3] chargedPower 668241.47853555
scalar OsgEarthNet.cs[3] chargedMobileNodes 149
scalar OsgEarthNet.cs[3] reservations 152
scalar OsgEarthNet.cs[4] usedPower 696910.96002389
scalar OsgEarthNet.cs[4] chargedPower 696910.96002389
scalar OsgEarthNet.cs[4] chargedMobileNodes 155
scalar OsgEarthNet.cs[4] reservations 157
scalar OsgEarthNet.cs[5] usedPower 512265.14706391
scalar OsgEarthNet.cs[5] chargedPower 512265.14706391
scalar OsgEarthNet.cs[5] chargedMobileNodes 108
scalar OsgEarthNet.cs[5] reservations 109
scalar OsgEarthNet.cs[6] usedPower 2445913.4293702
scalar OsgEarthNet.cs[6] chargedPower 2445913.4293702
scalar OsgEarthNet.cs[6] chargedMobileNodes 530
scalar OsgEarthNet.cs[6] reservations 539

