version 2
run Szenario_Hotel_Gabelbach-53-20180709-01:42:00-41684
attr configname Szenario_Hotel_Gabelbach
attr datetime 20180709-01:42:00
attr experiment Szenario_Hotel_Gabelbach
attr inifile omnetpp.ini
attr iterationvars $replM=2
attr iterationvarsf replM=2-
attr measurement $replM=2
attr network OsgEarthNet
attr processid 41684
attr repetition 5
attr replication #5
attr resultdir results
attr runnumber 53
attr seedset 53
itervar replM 2
param *.osgEarthScene.scene "\"Szenario_Hotel_Gabelbach.earth\""
param *.playgroundLatitude 50.6830269
param *.playgroundLongitude 10.8538055
param *.playgroundWidth 3500m
param *.playgroundHeight 3500m
param *.numUAVs 100
param *.cs[0].posX 3537m
param *.cs[0].posY 965m
param *.cs[0].posZ 538m
param *.cs[1].posX 312m
param *.cs[1].posY 1262m
param *.cs[1].posZ 539m
param *.cs[2].posX 2185m
param *.cs[2].posY 3026m
param *.cs[2].posZ 777m
param *.cs[3].posX 10m
param *.cs[3].posY 2200m
param *.cs[3].posZ 560m
param *.cs[4].posX 750m
param *.cs[4].posY 200m
param *.cs[4].posZ 540m
param *.cs[5].posX 2450m
param *.cs[5].posY 180m
param *.cs[5].posZ 524m
param *.cs[6].posX 3140m
param *.cs[6].posY 1790m
param *.cs[6].posZ 606m
param *.numCSs 7
param *.uav[*].replacementMethod 2
param *.*.timeStep 10s
param *.uav[*].commandPreviewCommandCount 20
param *.missionControl.missionFiles "\"missions\\\\Szenario_WB_Hotel_Gabelbach_Mission_Hotel.waypoints,missions\\\\Szenario_WB_Hotel_Gabelbach_Mission_Kickelhahn.waypoints,missions\\\\Szenario_WB_Hotel_Gabelbach_Mission_Ilmenau_Sportplatz.waypoints,missions\\\\Szenario_WB_Hotel_Gabelbach_Mission_Manebach_Mitte.waypoints,missions\\\\Szenario_WB_Hotel_Gabelbach_Mission_Manebach_Sued.waypoints\""
param *.missionControl.missionFiles "\"missions\\\\Szenario_WB_Hotel_Gabelbach_Mission_Hotel.waypoints,missions\\\\Szenario_WB_Hotel_Gabelbach_Mission_Kickelhahn.waypoints,missions\\\\Szenario_WB_Hotel_Gabelbach_Mission_Ilmenau_Sportplatz.waypoints,missions\\\\Szenario_WB_Hotel_Gabelbach_Mission_Manebach_Mitte.waypoints,missions\\\\Szenario_WB_Hotel_Gabelbach_Mission_Manebach_Sued.waypoints,missions\\\\Szenario_WB_Hotel_Gabelbach_Hover_HoheSchlaufe.waypoints,missions\\\\Szenario_WB_Hotel_Gabelbach_Hover_Kickelhahn.waypoints,missions\\\\Szenario_WB_Hotel_Gabelbach_Hover_Gabelbachskopf.waypoints,missions\\\\Szenario_WB_Hotel_Gabelbach_Hover_Dachskopf.waypoints\""
param *.uav[0].startX 3537m
param *.uav[0].startY 965m
param *.uav[0].startZ 539m
param *.uav[1].startX 312m
param *.uav[1].startY 1262m
param *.uav[1].startZ 540m
param *.uav[2].startX 2185m
param *.uav[2].startY 3026m
param *.uav[2].startZ 778m
param *.uav[3].startX 3537m
param *.uav[3].startY 965m
param *.uav[3].startZ 539m
param *.uav[4].startX 312m
param *.uav[4].startY 1262m
param *.uav[4].startZ 540m
param *.uav[5].startX 2185m
param *.uav[5].startY 3026m
param *.uav[5].startZ 778m
param *.uav[6].startX 3537m
param *.uav[6].startY 965m
param *.uav[6].startZ 539m
param *.uav[7].startX 312m
param *.uav[7].startY 1262m
param *.uav[7].startZ 540m
param *.uav[8].startX 2185m
param *.uav[8].startY 3026m
param *.uav[8].startZ 778m
param *.uav[9].startX 3537m
param *.uav[9].startY 965m
param *.uav[9].startZ 539m
param *.uav[10].startX 3537m
param *.uav[10].startY 965m
param *.uav[10].startZ 539m
param *.uav[11].startX 312m
param *.uav[11].startY 1262m
param *.uav[11].startZ 540m
param *.uav[12].startX 2185m
param *.uav[12].startY 3026m
param *.uav[12].startZ 778m
param *.uav[13].startX 3537m
param *.uav[13].startY 965m
param *.uav[13].startZ 539m
param *.uav[14].startX 312m
param *.uav[14].startY 1262m
param *.uav[14].startZ 540m
param *.uav[15].startX 2185m
param *.uav[15].startY 3026m
param *.uav[15].startZ 778m
param *.uav[16].startX 3537m
param *.uav[16].startY 965m
param *.uav[16].startZ 539m
param *.uav[17].startX 312m
param *.uav[17].startY 1262m
param *.uav[17].startZ 540m
param *.uav[18].startX 2185m
param *.uav[18].startY 3026m
param *.uav[18].startZ 778m
param *.uav[19].startX 3537m
param *.uav[19].startY 965m
param *.uav[19].startZ 539m
param *.uav[20].startX 3537m
param *.uav[20].startY 965m
param *.uav[20].startZ 539m
param *.uav[21].startX 312m
param *.uav[21].startY 1262m
param *.uav[21].startZ 540m
param *.uav[22].startX 2185m
param *.uav[22].startY 3026m
param *.uav[22].startZ 778m
param *.uav[23].startX 3537m
param *.uav[23].startY 965m
param *.uav[23].startZ 539m
param *.uav[24].startX 312m
param *.uav[24].startY 1262m
param *.uav[24].startZ 540m
param *.uav[25].startX 2185m
param *.uav[25].startY 3026m
param *.uav[25].startZ 778m
param *.uav[26].startX 3537m
param *.uav[26].startY 965m
param *.uav[26].startZ 539m
param *.uav[27].startX 312m
param *.uav[27].startY 1262m
param *.uav[27].startZ 540m
param *.uav[28].startX 2185m
param *.uav[28].startY 3026m
param *.uav[28].startZ 778m
param *.uav[29].startX 3537m
param *.uav[29].startY 965m
param *.uav[29].startZ 539m
param *.uav[30].startX 3537m
param *.uav[30].startY 965m
param *.uav[30].startZ 539m
param *.uav[31].startX 312m
param *.uav[31].startY 1262m
param *.uav[31].startZ 540m
param *.uav[32].startX 2185m
param *.uav[32].startY 3026m
param *.uav[32].startZ 778m
param *.uav[33].startX 3537m
param *.uav[33].startY 965m
param *.uav[33].startZ 539m
param *.uav[34].startX 312m
param *.uav[34].startY 1262m
param *.uav[34].startZ 540m
param *.uav[35].startX 2185m
param *.uav[35].startY 3026m
param *.uav[35].startZ 778m
param *.uav[36].startX 3537m
param *.uav[36].startY 965m
param *.uav[36].startZ 539m
param *.uav[37].startX 312m
param *.uav[37].startY 1262m
param *.uav[37].startZ 540m
param *.uav[38].startX 2185m
param *.uav[38].startY 3026m
param *.uav[38].startZ 778m
param *.uav[39].startX 3537m
param *.uav[39].startY 965m
param *.uav[39].startZ 539m
param *.uav[40].startX 3537m
param *.uav[40].startY 965m
param *.uav[40].startZ 539m
param *.uav[41].startX 312m
param *.uav[41].startY 1262m
param *.uav[41].startZ 540m
param *.uav[42].startX 2185m
param *.uav[42].startY 3026m
param *.uav[42].startZ 778m
param *.uav[43].startX 3537m
param *.uav[43].startY 965m
param *.uav[43].startZ 539m
param *.uav[44].startX 312m
param *.uav[44].startY 1262m
param *.uav[44].startZ 540m
param *.uav[45].startX 2185m
param *.uav[45].startY 3026m
param *.uav[45].startZ 778m
param *.uav[46].startX 3537m
param *.uav[46].startY 965m
param *.uav[46].startZ 539m
param *.uav[47].startX 312m
param *.uav[47].startY 1262m
param *.uav[47].startZ 540m
param *.uav[48].startX 2185m
param *.uav[48].startY 3026m
param *.uav[48].startZ 778m
param *.uav[49].startX 3537m
param *.uav[49].startY 965m
param *.uav[49].startZ 539m
param *.uav[50].startX 3537m
param *.uav[50].startY 965m
param *.uav[50].startZ 539m
param *.uav[51].startX 312m
param *.uav[51].startY 1262m
param *.uav[51].startZ 540m
param *.uav[52].startX 2185m
param *.uav[52].startY 3026m
param *.uav[52].startZ 778m
param *.uav[53].startX 3537m
param *.uav[53].startY 965m
param *.uav[53].startZ 539m
param *.uav[54].startX 312m
param *.uav[54].startY 1262m
param *.uav[54].startZ 540m
param *.uav[55].startX 2185m
param *.uav[55].startY 3026m
param *.uav[55].startZ 778m
param *.uav[56].startX 3537m
param *.uav[56].startY 965m
param *.uav[56].startZ 539m
param *.uav[57].startX 312m
param *.uav[57].startY 1262m
param *.uav[57].startZ 540m
param *.uav[58].startX 2185m
param *.uav[58].startY 3026m
param *.uav[58].startZ 778m
param *.uav[59].startX 3537m
param *.uav[59].startY 965m
param *.uav[59].startZ 539m
param *.uav[60].startX 3537m
param *.uav[60].startY 965m
param *.uav[60].startZ 539m
param *.uav[61].startX 312m
param *.uav[61].startY 1262m
param *.uav[61].startZ 540m
param *.uav[62].startX 2185m
param *.uav[62].startY 3026m
param *.uav[62].startZ 778m
param *.uav[63].startX 3537m
param *.uav[63].startY 965m
param *.uav[63].startZ 539m
param *.uav[64].startX 312m
param *.uav[64].startY 1262m
param *.uav[64].startZ 540m
param *.uav[65].startX 2185m
param *.uav[65].startY 3026m
param *.uav[65].startZ 778m
param *.uav[66].startX 3537m
param *.uav[66].startY 965m
param *.uav[66].startZ 539m
param *.uav[67].startX 312m
param *.uav[67].startY 1262m
param *.uav[67].startZ 540m
param *.uav[68].startX 2185m
param *.uav[68].startY 3026m
param *.uav[68].startZ 778m
param *.uav[69].startX 3537m
param *.uav[69].startY 965m
param *.uav[69].startZ 539m
param *.uav[70].startX 3537m
param *.uav[70].startY 965m
param *.uav[70].startZ 539m
param *.uav[71].startX 312m
param *.uav[71].startY 1262m
param *.uav[71].startZ 540m
param *.uav[72].startX 2185m
param *.uav[72].startY 3026m
param *.uav[72].startZ 778m
param *.uav[73].startX 3537m
param *.uav[73].startY 965m
param *.uav[73].startZ 539m
param *.uav[74].startX 312m
param *.uav[74].startY 1262m
param *.uav[74].startZ 540m
param *.uav[75].startX 2185m
param *.uav[75].startY 3026m
param *.uav[75].startZ 778m
param *.uav[76].startX 3537m
param *.uav[76].startY 965m
param *.uav[76].startZ 539m
param *.uav[77].startX 312m
param *.uav[77].startY 1262m
param *.uav[77].startZ 540m
param *.uav[78].startX 2185m
param *.uav[78].startY 3026m
param *.uav[78].startZ 778m
param *.uav[79].startX 3537m
param *.uav[79].startY 965m
param *.uav[79].startZ 539m
param *.uav[80].startX 3537m
param *.uav[80].startY 965m
param *.uav[80].startZ 539m
param *.uav[81].startX 312m
param *.uav[81].startY 1262m
param *.uav[81].startZ 540m
param *.uav[82].startX 2185m
param *.uav[82].startY 3026m
param *.uav[82].startZ 778m
param *.uav[83].startX 3537m
param *.uav[83].startY 965m
param *.uav[83].startZ 539m
param *.uav[84].startX 312m
param *.uav[84].startY 1262m
param *.uav[84].startZ 540m
param *.uav[85].startX 2185m
param *.uav[85].startY 3026m
param *.uav[85].startZ 778m
param *.uav[86].startX 3537m
param *.uav[86].startY 965m
param *.uav[86].startZ 539m
param *.uav[87].startX 312m
param *.uav[87].startY 1262m
param *.uav[87].startZ 540m
param *.uav[88].startX 2185m
param *.uav[88].startY 3026m
param *.uav[88].startZ 778m
param *.uav[89].startX 3537m
param *.uav[89].startY 965m
param *.uav[89].startZ 539m
param *.uav[90].startX 3537m
param *.uav[90].startY 965m
param *.uav[90].startZ 539m
param *.uav[91].startX 312m
param *.uav[91].startY 1262m
param *.uav[91].startZ 540m
param *.uav[92].startX 2185m
param *.uav[92].startY 3026m
param *.uav[92].startZ 778m
param *.uav[93].startX 3537m
param *.uav[93].startY 965m
param *.uav[93].startZ 539m
param *.uav[94].startX 312m
param *.uav[94].startY 1262m
param *.uav[94].startZ 540m
param *.uav[95].startX 2185m
param *.uav[95].startY 3026m
param *.uav[95].startZ 778m
param *.uav[96].startX 3537m
param *.uav[96].startY 965m
param *.uav[96].startZ 539m
param *.uav[97].startX 312m
param *.uav[97].startY 1262m
param *.uav[97].startZ 540m
param *.uav[98].startX 2185m
param *.uav[98].startY 3026m
param *.uav[98].startZ 778m
param *.uav[99].startX 3537m
param *.uav[99].startY 965m
param *.uav[99].startZ 539m
param *.osgEarthScene.scene "\"boston.earth\""
param *.playgroundLatitude 42.3558
param *.playgroundLongitude -71.0677
param *.playgroundWidth 400m
param *.playgroundHeight 200m
param *.channelController.connectionColor "\"#0000FF40\""
param *.channelController.showConnections false
param *.uav[*].modelURL "\"quadrocopter.small.obj.15.scale.0,0,90.rot\""
param *.uav[*].labelColor "\"#FF7C00CC\""
param *.uav[*].label2Color "\"#FF7C00EE\""
param *.uav[*].batteryCapacity 5200mAh
param *.uav[*].batteryRemaining uav[index].batteryCapacity
param *.uav[*].predictionQuantile 0.95
param *.uav[*].replacementMethod 2
param *.uav[*].weightedSumWeight 0.5
param *.cs[*].modelURL "\"chargingstation_v1.osgt.2.scale.0,0,0.rot.0,0,-15e-1.trans\""
param *.cs[*].spotsWaiting 999
param *.cs[*].spotsCharging 999
param *.cs[*].chargeEffectivenessPercentage 100
param *.cs[*].nonLinearPhaseStartPercentage 85
param *.cs[*].chargeCurrent 6.0A
param *.cs[*].prioritizeFastCharge true
param *.missionControl.replacementSearchMethod 0
param *.*.timeStep 9s

scalar OsgEarthNet.uav[0] utilizationSecMission 760.62515258028
scalar OsgEarthNet.uav[0] utilizationSecMaintenance 291.95923480269
scalar OsgEarthNet.uav[0] utilizationSecCharge 3690
scalar OsgEarthNet.uav[0] utilizationSecIdle 254457.41461262
scalar OsgEarthNet.uav[0] utilizationEnergyMission 3375.2599029541
scalar OsgEarthNet.uav[0] utilizationEnergyMaintenance 1298.1480331421
scalar OsgEarthNet.uav[0] utilizationEnergyCharge 4673.408203125
scalar OsgEarthNet.uav[0] utilizationEnergyOverdrawMission 0
scalar OsgEarthNet.uav[0] utilizationEnergyOverdrawMaintenance 0
scalar OsgEarthNet.uav[0] utilizationCountMissions 1
scalar OsgEarthNet.uav[0] utilizationCountManeuversMission 12
scalar OsgEarthNet.uav[0] utilizationCountManeuversMaintenance 2
scalar OsgEarthNet.uav[0] utilizationCountChargeState 1
scalar OsgEarthNet.uav[0] utilizationCountOverdrawnAfterMission 0
scalar OsgEarthNet.uav[0] utilizationCountIdleState 2
scalar OsgEarthNet.uav[0] utilizationFail 0
scalar OsgEarthNet.uav[0] simulationTime 259200
scalar OsgEarthNet.uav[1] utilizationSecMission 25685.424167527
scalar OsgEarthNet.uav[1] utilizationSecMaintenance 11117.84142354
scalar OsgEarthNet.uav[1] utilizationSecCharge 134702.57475552
scalar OsgEarthNet.uav[1] utilizationSecIdle 87694.158653408
scalar OsgEarthNet.uav[1] utilizationEnergyMission 118077.75578308
scalar OsgEarthNet.uav[1] utilizationEnergyMaintenance 53442.866584778
scalar OsgEarthNet.uav[1] utilizationEnergyCharge 167627.3984375
scalar OsgEarthNet.uav[1] utilizationEnergyOverdrawMission 0
scalar OsgEarthNet.uav[1] utilizationEnergyOverdrawMaintenance 0
scalar OsgEarthNet.uav[1] utilizationCountMissions 38
scalar OsgEarthNet.uav[1] utilizationCountManeuversMission 411
scalar OsgEarthNet.uav[1] utilizationCountManeuversMaintenance 76
scalar OsgEarthNet.uav[1] utilizationCountChargeState 38
scalar OsgEarthNet.uav[1] utilizationCountOverdrawnAfterMission 0
scalar OsgEarthNet.uav[1] utilizationCountIdleState 38
scalar OsgEarthNet.uav[1] utilizationFail 0
scalar OsgEarthNet.uav[1] simulationTime 259200
scalar OsgEarthNet.uav[2] utilizationSecMission 18396.657297281
scalar OsgEarthNet.uav[2] utilizationSecMaintenance 9203.7941670362
scalar OsgEarthNet.uav[2] utilizationSecCharge 98848.839478455
scalar OsgEarthNet.uav[2] utilizationSecIdle 132750.70805723
scalar OsgEarthNet.uav[2] utilizationEnergyMission 85373.096786499
scalar OsgEarthNet.uav[2] utilizationEnergyMaintenance 42468.122970581
scalar OsgEarthNet.uav[2] utilizationEnergyCharge 123271.50463867
scalar OsgEarthNet.uav[2] utilizationEnergyOverdrawMission 0
scalar OsgEarthNet.uav[2] utilizationEnergyOverdrawMaintenance 0
scalar OsgEarthNet.uav[2] utilizationCountMissions 28
scalar OsgEarthNet.uav[2] utilizationCountManeuversMission 301
scalar OsgEarthNet.uav[2] utilizationCountManeuversMaintenance 56
scalar OsgEarthNet.uav[2] utilizationCountChargeState 28
scalar OsgEarthNet.uav[2] utilizationCountOverdrawnAfterMission 0
scalar OsgEarthNet.uav[2] utilizationCountIdleState 28
scalar OsgEarthNet.uav[2] utilizationFail 0
scalar OsgEarthNet.uav[2] simulationTime 259200
scalar OsgEarthNet.uav[3] utilizationSecMission 684.4732299383
scalar OsgEarthNet.uav[3] utilizationSecMaintenance 298.56834692969
scalar OsgEarthNet.uav[3] utilizationSecCharge 3780
scalar OsgEarthNet.uav[3] utilizationSecIdle 254436.95742313
scalar OsgEarthNet.uav[3] utilizationEnergyMission 3309.2484741211
scalar OsgEarthNet.uav[3] utilizationEnergyMaintenance 1452.036277771
scalar OsgEarthNet.uav[3] utilizationEnergyCharge 4761.283203125
scalar OsgEarthNet.uav[3] utilizationEnergyOverdrawMission 0
scalar OsgEarthNet.uav[3] utilizationEnergyOverdrawMaintenance 0
scalar OsgEarthNet.uav[3] utilizationCountMissions 1
scalar OsgEarthNet.uav[3] utilizationCountManeuversMission 11
scalar OsgEarthNet.uav[3] utilizationCountManeuversMaintenance 2
scalar OsgEarthNet.uav[3] utilizationCountChargeState 1
scalar OsgEarthNet.uav[3] utilizationCountOverdrawnAfterMission 0
scalar OsgEarthNet.uav[3] utilizationCountIdleState 2
scalar OsgEarthNet.uav[3] utilizationFail 0
scalar OsgEarthNet.uav[3] simulationTime 259200
scalar OsgEarthNet.uav[4] utilizationSecMission 655.55330183502
scalar OsgEarthNet.uav[4] utilizationSecMaintenance 344.5505930207
scalar OsgEarthNet.uav[4] utilizationSecCharge 3720
scalar OsgEarthNet.uav[4] utilizationSecIdle 254479.89510514
scalar OsgEarthNet.uav[4] utilizationEnergyMission 3084.5467987061
scalar OsgEarthNet.uav[4] utilizationEnergyMaintenance 1580.5546798706
scalar OsgEarthNet.uav[4] utilizationEnergyCharge 4665.0991210938
scalar OsgEarthNet.uav[4] utilizationEnergyOverdrawMission 0
scalar OsgEarthNet.uav[4] utilizationEnergyOverdrawMaintenance 0
scalar OsgEarthNet.uav[4] utilizationCountMissions 1
scalar OsgEarthNet.uav[4] utilizationCountManeuversMission 10
scalar OsgEarthNet.uav[4] utilizationCountManeuversMaintenance 2
scalar OsgEarthNet.uav[4] utilizationCountChargeState 1
scalar OsgEarthNet.uav[4] utilizationCountOverdrawnAfterMission 0
scalar OsgEarthNet.uav[4] utilizationCountIdleState 2
scalar OsgEarthNet.uav[4] utilizationFail 0
scalar OsgEarthNet.uav[4] simulationTime 259200
scalar OsgEarthNet.uav[5] utilizationSecMission 25323.571322891
scalar OsgEarthNet.uav[5] utilizationSecMaintenance 14978.878357787
scalar OsgEarthNet.uav[5] utilizationSecCharge 146861.1990985
scalar OsgEarthNet.uav[5] utilizationSecIdle 72036.350220821
scalar OsgEarthNet.uav[5] utilizationEnergyMission 116901.85755157
scalar OsgEarthNet.uav[5] utilizationEnergyMaintenance 70728.514629364
scalar OsgEarthNet.uav[5] utilizationEnergyCharge 183308.59802246
scalar OsgEarthNet.uav[5] utilizationEnergyOverdrawMission 0
scalar OsgEarthNet.uav[5] utilizationEnergyOverdrawMaintenance 0
scalar OsgEarthNet.uav[5] utilizationCountMissions 41
scalar OsgEarthNet.uav[5] utilizationCountManeuversMission 405
scalar OsgEarthNet.uav[5] utilizationCountManeuversMaintenance 82
scalar OsgEarthNet.uav[5] utilizationCountChargeState 41
scalar OsgEarthNet.uav[5] utilizationCountOverdrawnAfterMission 0
scalar OsgEarthNet.uav[5] utilizationCountIdleState 41
scalar OsgEarthNet.uav[5] utilizationFail 0
scalar OsgEarthNet.uav[5] simulationTime 259200
scalar OsgEarthNet.uav[6] utilizationSecMission 836.77707522227
scalar OsgEarthNet.uav[6] utilizationSecMaintenance 217.0347828456
scalar OsgEarthNet.uav[6] utilizationSecCharge 3910
scalar OsgEarthNet.uav[6] utilizationSecIdle 254236.18714193
scalar OsgEarthNet.uav[6] utilizationEnergyMission 3928.1787109375
scalar OsgEarthNet.uav[6] utilizationEnergyMaintenance 1043.4890861511
scalar OsgEarthNet.uav[6] utilizationEnergyCharge 4971.6708984375
scalar OsgEarthNet.uav[6] utilizationEnergyOverdrawMission 0
scalar OsgEarthNet.uav[6] utilizationEnergyOverdrawMaintenance 0
scalar OsgEarthNet.uav[6] utilizationCountMissions 1
scalar OsgEarthNet.uav[6] utilizationCountManeuversMission 13
scalar OsgEarthNet.uav[6] utilizationCountManeuversMaintenance 2
scalar OsgEarthNet.uav[6] utilizationCountChargeState 1
scalar OsgEarthNet.uav[6] utilizationCountOverdrawnAfterMission 0
scalar OsgEarthNet.uav[6] utilizationCountIdleState 2
scalar OsgEarthNet.uav[6] utilizationFail 0
scalar OsgEarthNet.uav[6] simulationTime 259200
scalar OsgEarthNet.uav[7] utilizationSecMission 30649.875482032
scalar OsgEarthNet.uav[7] utilizationSecMaintenance 13238.193344103
scalar OsgEarthNet.uav[7] utilizationSecCharge 161220.8743699
scalar OsgEarthNet.uav[7] utilizationSecIdle 54091.055803961
scalar OsgEarthNet.uav[7] utilizationEnergyMission 140402.27771759
scalar OsgEarthNet.uav[7] utilizationEnergyMaintenance 62298.706058502
scalar OsgEarthNet.uav[7] utilizationEnergyCharge 202814.84228516
scalar OsgEarthNet.uav[7] utilizationEnergyOverdrawMission 0
scalar OsgEarthNet.uav[7] utilizationEnergyOverdrawMaintenance 0
scalar OsgEarthNet.uav[7] utilizationCountMissions 44
scalar OsgEarthNet.uav[7] utilizationCountManeuversMission 492
scalar OsgEarthNet.uav[7] utilizationCountManeuversMaintenance 88
scalar OsgEarthNet.uav[7] utilizationCountChargeState 44
scalar OsgEarthNet.uav[7] utilizationCountOverdrawnAfterMission 0
scalar OsgEarthNet.uav[7] utilizationCountIdleState 44
scalar OsgEarthNet.uav[7] utilizationFail 0
scalar OsgEarthNet.uav[7] simulationTime 259200
scalar OsgEarthNet.uav[8] utilizationSecMission 828.1936691689
scalar OsgEarthNet.uav[8] utilizationSecMaintenance 156.97870384097
scalar OsgEarthNet.uav[8] utilizationSecCharge 3730
scalar OsgEarthNet.uav[8] utilizationSecIdle 254484.82662699
scalar OsgEarthNet.uav[8] utilizationEnergyMission 3838.8318634033
scalar OsgEarthNet.uav[8] utilizationEnergyMaintenance 883.52285003662
scalar OsgEarthNet.uav[8] utilizationEnergyCharge 4698.5190429688
scalar OsgEarthNet.uav[8] utilizationEnergyOverdrawMission 0
scalar OsgEarthNet.uav[8] utilizationEnergyOverdrawMaintenance 0
scalar OsgEarthNet.uav[8] utilizationCountMissions 1
scalar OsgEarthNet.uav[8] utilizationCountManeuversMission 13
scalar OsgEarthNet.uav[8] utilizationCountManeuversMaintenance 2
scalar OsgEarthNet.uav[8] utilizationCountChargeState 1
scalar OsgEarthNet.uav[8] utilizationCountOverdrawnAfterMission 0
scalar OsgEarthNet.uav[8] utilizationCountIdleState 2
scalar OsgEarthNet.uav[8] utilizationFail 0
scalar OsgEarthNet.uav[8] simulationTime 259200
scalar OsgEarthNet.uav[9] utilizationSecMission 760.62515258028
scalar OsgEarthNet.uav[9] utilizationSecMaintenance 223.6438949726
scalar OsgEarthNet.uav[9] utilizationSecCharge 3720
scalar OsgEarthNet.uav[9] utilizationSecIdle 254495.72995245
scalar OsgEarthNet.uav[9] utilizationEnergyMission 3538.4436950684
scalar OsgEarthNet.uav[9] utilizationEnergyMaintenance 1170.3266105652
scalar OsgEarthNet.uav[9] utilizationEnergyCharge 4708.7729492188
scalar OsgEarthNet.uav[9] utilizationEnergyOverdrawMission 0
scalar OsgEarthNet.uav[9] utilizationEnergyOverdrawMaintenance 0
scalar OsgEarthNet.uav[9] utilizationCountMissions 1
scalar OsgEarthNet.uav[9] utilizationCountManeuversMission 12
scalar OsgEarthNet.uav[9] utilizationCountManeuversMaintenance 2
scalar OsgEarthNet.uav[9] utilizationCountChargeState 1
scalar OsgEarthNet.uav[9] utilizationCountOverdrawnAfterMission 0
scalar OsgEarthNet.uav[9] utilizationCountIdleState 2
scalar OsgEarthNet.uav[9] utilizationFail 0
scalar OsgEarthNet.uav[9] simulationTime 259200
scalar OsgEarthNet.uav[10] utilizationSecMission 25345.38756212
scalar OsgEarthNet.uav[10] utilizationSecMaintenance 11586.105628152
scalar OsgEarthNet.uav[10] utilizationSecCharge 134297.33507648
scalar OsgEarthNet.uav[10] utilizationSecIdle 87971.170733247
scalar OsgEarthNet.uav[10] utilizationEnergyMission 117905.2855835
scalar OsgEarthNet.uav[10] utilizationEnergyMaintenance 54169.255565643
scalar OsgEarthNet.uav[10] utilizationEnergyCharge 168689.99633789
scalar OsgEarthNet.uav[10] utilizationEnergyOverdrawMission 0
scalar OsgEarthNet.uav[10] utilizationEnergyOverdrawMaintenance 0
scalar OsgEarthNet.uav[10] utilizationCountMissions 37
scalar OsgEarthNet.uav[10] utilizationCountManeuversMission 411
scalar OsgEarthNet.uav[10] utilizationCountManeuversMaintenance 74
scalar OsgEarthNet.uav[10] utilizationCountChargeState 37
scalar OsgEarthNet.uav[10] utilizationCountOverdrawnAfterMission 0
scalar OsgEarthNet.uav[10] utilizationCountIdleState 37
scalar OsgEarthNet.uav[10] utilizationFail 0
scalar OsgEarthNet.uav[10] simulationTime 259200
scalar OsgEarthNet.uav[11] utilizationSecMission 29578.620926563
scalar OsgEarthNet.uav[11] utilizationSecMaintenance 13269.954723178
scalar OsgEarthNet.uav[11] utilizationSecCharge 156665.27010027
scalar OsgEarthNet.uav[11] utilizationSecIdle 59686.153249988
scalar OsgEarthNet.uav[11] utilizationEnergyMission 136607.17621613
scalar OsgEarthNet.uav[11] utilizationEnergyMaintenance 62522.530422211
scalar OsgEarthNet.uav[11] utilizationEnergyCharge 196897.3269043
scalar OsgEarthNet.uav[11] utilizationEnergyOverdrawMission 0
scalar OsgEarthNet.uav[11] utilizationEnergyOverdrawMaintenance 0
scalar OsgEarthNet.uav[11] utilizationCountMissions 43
scalar OsgEarthNet.uav[11] utilizationCountManeuversMission 467
scalar OsgEarthNet.uav[11] utilizationCountManeuversMaintenance 86
scalar OsgEarthNet.uav[11] utilizationCountChargeState 43
scalar OsgEarthNet.uav[11] utilizationCountOverdrawnAfterMission 0
scalar OsgEarthNet.uav[11] utilizationCountIdleState 43
scalar OsgEarthNet.uav[11] utilizationFail 0
scalar OsgEarthNet.uav[11] simulationTime 259200
scalar OsgEarthNet.uav[12] utilizationSecMission 694.00169469977
scalar OsgEarthNet.uav[12] utilizationSecMaintenance 338.49695459722
scalar OsgEarthNet.uav[12] utilizationSecCharge 3850
scalar OsgEarthNet.uav[12] utilizationSecIdle 254317.5003507
scalar OsgEarthNet.uav[12] utilizationEnergyMission 3220.8272705078
scalar OsgEarthNet.uav[12] utilizationEnergyMaintenance 1695.7170524597
scalar OsgEarthNet.uav[12] utilizationEnergyCharge 4916.5458984375
scalar OsgEarthNet.uav[12] utilizationEnergyOverdrawMission 0
scalar OsgEarthNet.uav[12] utilizationEnergyOverdrawMaintenance 0
scalar OsgEarthNet.uav[12] utilizationCountMissions 1
scalar OsgEarthNet.uav[12] utilizationCountManeuversMission 13
scalar OsgEarthNet.uav[12] utilizationCountManeuversMaintenance 2
scalar OsgEarthNet.uav[12] utilizationCountChargeState 1
scalar OsgEarthNet.uav[12] utilizationCountOverdrawnAfterMission 0
scalar OsgEarthNet.uav[12] utilizationCountIdleState 2
scalar OsgEarthNet.uav[12] utilizationFail 0
scalar OsgEarthNet.uav[12] simulationTime 259200
scalar OsgEarthNet.uav[13] utilizationSecMission 760.62515258028
scalar OsgEarthNet.uav[13] utilizationSecMaintenance 291.95923480269
scalar OsgEarthNet.uav[13] utilizationSecCharge 3850
scalar OsgEarthNet.uav[13] utilizationSecIdle 254297.41461262
scalar OsgEarthNet.uav[13] utilizationEnergyMission 3352.5211410523
scalar OsgEarthNet.uav[13] utilizationEnergyMaintenance 1495.8879013062
scalar OsgEarthNet.uav[13] utilizationEnergyCharge 4848.4111328125
scalar OsgEarthNet.uav[13] utilizationEnergyOverdrawMission 0
scalar OsgEarthNet.uav[13] utilizationEnergyOverdrawMaintenance 0
scalar OsgEarthNet.uav[13] utilizationCountMissions 1
scalar OsgEarthNet.uav[13] utilizationCountManeuversMission 12
scalar OsgEarthNet.uav[13] utilizationCountManeuversMaintenance 2
scalar OsgEarthNet.uav[13] utilizationCountChargeState 1
scalar OsgEarthNet.uav[13] utilizationCountOverdrawnAfterMission 0
scalar OsgEarthNet.uav[13] utilizationCountIdleState 2
scalar OsgEarthNet.uav[13] utilizationFail 0
scalar OsgEarthNet.uav[13] simulationTime 259200
scalar OsgEarthNet.uav[14] utilizationSecMission 655.55330183502
scalar OsgEarthNet.uav[14] utilizationSecMaintenance 334.5505930207
scalar OsgEarthNet.uav[14] utilizationSecCharge 3780
scalar OsgEarthNet.uav[14] utilizationSecIdle 254429.89510514
scalar OsgEarthNet.uav[14] utilizationEnergyMission 3099.8322296143
scalar OsgEarthNet.uav[14] utilizationEnergyMaintenance 1630.3883476257
scalar OsgEarthNet.uav[14] utilizationEnergyCharge 4730.2138671875
scalar OsgEarthNet.uav[14] utilizationEnergyOverdrawMission 0
scalar OsgEarthNet.uav[14] utilizationEnergyOverdrawMaintenance 0
scalar OsgEarthNet.uav[14] utilizationCountMissions 1
scalar OsgEarthNet.uav[14] utilizationCountManeuversMission 10
scalar OsgEarthNet.uav[14] utilizationCountManeuversMaintenance 2
scalar OsgEarthNet.uav[14] utilizationCountChargeState 1
scalar OsgEarthNet.uav[14] utilizationCountOverdrawnAfterMission 0
scalar OsgEarthNet.uav[14] utilizationCountIdleState 2
scalar OsgEarthNet.uav[14] utilizationFail 0
scalar OsgEarthNet.uav[14] simulationTime 259200
scalar OsgEarthNet.uav[15] utilizationSecMission 22685.616399363
scalar OsgEarthNet.uav[15] utilizationSecMaintenance 9476.0038119619
scalar OsgEarthNet.uav[15] utilizationSecCharge 118920
scalar OsgEarthNet.uav[15] utilizationSecIdle 108118.37878868
scalar OsgEarthNet.uav[15] utilizationEnergyMission 105928.15061188
scalar OsgEarthNet.uav[15] utilizationEnergyMaintenance 43521.92181015
scalar OsgEarthNet.uav[15] utilizationEnergyCharge 149012.14794922
scalar OsgEarthNet.uav[15] utilizationEnergyOverdrawMission 0
scalar OsgEarthNet.uav[15] utilizationEnergyOverdrawMaintenance 0
scalar OsgEarthNet.uav[15] utilizationCountMissions 32
scalar OsgEarthNet.uav[15] utilizationCountManeuversMission 390
scalar OsgEarthNet.uav[15] utilizationCountManeuversMaintenance 64
scalar OsgEarthNet.uav[15] utilizationCountChargeState 32
scalar OsgEarthNet.uav[15] utilizationCountOverdrawnAfterMission 0
scalar OsgEarthNet.uav[15] utilizationCountIdleState 33
scalar OsgEarthNet.uav[15] utilizationFail 0
scalar OsgEarthNet.uav[15] simulationTime 259200
scalar OsgEarthNet.uav[16] utilizationSecMission 760.62515258028
scalar OsgEarthNet.uav[16] utilizationSecMaintenance 223.6438949726
scalar OsgEarthNet.uav[16] utilizationSecCharge 3710
scalar OsgEarthNet.uav[16] utilizationSecIdle 254505.72995245
scalar OsgEarthNet.uav[16] utilizationEnergyMission 3592.6579208374
scalar OsgEarthNet.uav[16] utilizationEnergyMaintenance 1083.3026542664
scalar OsgEarthNet.uav[16] utilizationEnergyCharge 4675.9545898438
scalar OsgEarthNet.uav[16] utilizationEnergyOverdrawMission 0
scalar OsgEarthNet.uav[16] utilizationEnergyOverdrawMaintenance 0
scalar OsgEarthNet.uav[16] utilizationCountMissions 1
scalar OsgEarthNet.uav[16] utilizationCountManeuversMission 12
scalar OsgEarthNet.uav[16] utilizationCountManeuversMaintenance 2
scalar OsgEarthNet.uav[16] utilizationCountChargeState 1
scalar OsgEarthNet.uav[16] utilizationCountOverdrawnAfterMission 0
scalar OsgEarthNet.uav[16] utilizationCountIdleState 2
scalar OsgEarthNet.uav[16] utilizationFail 0
scalar OsgEarthNet.uav[16] simulationTime 259200
scalar OsgEarthNet.uav[17] utilizationSecMission 28456.254201284
scalar OsgEarthNet.uav[17] utilizationSecMaintenance 12963.726515803
scalar OsgEarthNet.uav[17] utilizationSecCharge 151000
scalar OsgEarthNet.uav[17] utilizationSecIdle 66780.018282913
scalar OsgEarthNet.uav[17] utilizationEnergyMission 130959.92608954
scalar OsgEarthNet.uav[17] utilizationEnergyMaintenance 61096.004890442
scalar OsgEarthNet.uav[17] utilizationEnergyCharge 188749.74829102
scalar OsgEarthNet.uav[17] utilizationEnergyOverdrawMission 0
scalar OsgEarthNet.uav[17] utilizationEnergyOverdrawMaintenance 0
scalar OsgEarthNet.uav[17] utilizationCountMissions 41
scalar OsgEarthNet.uav[17] utilizationCountManeuversMission 456
scalar OsgEarthNet.uav[17] utilizationCountManeuversMaintenance 83
scalar OsgEarthNet.uav[17] utilizationCountChargeState 41
scalar OsgEarthNet.uav[17] utilizationCountOverdrawnAfterMission 0
scalar OsgEarthNet.uav[17] utilizationCountIdleState 42
scalar OsgEarthNet.uav[17] utilizationFail 0
scalar OsgEarthNet.uav[17] simulationTime 259200
scalar OsgEarthNet.uav[18] utilizationSecMission 29850.064018842
scalar OsgEarthNet.uav[18] utilizationSecMaintenance 12268.243142015
scalar OsgEarthNet.uav[18] utilizationSecCharge 153300.23888043
scalar OsgEarthNet.uav[18] utilizationSecIdle 63781.452958717
scalar OsgEarthNet.uav[18] utilizationEnergyMission 137388.18829346
scalar OsgEarthNet.uav[18] utilizationEnergyMaintenance 57840.336185455
scalar OsgEarthNet.uav[18] utilizationEnergyCharge 192952.65869141
scalar OsgEarthNet.uav[18] utilizationEnergyOverdrawMission 0
scalar OsgEarthNet.uav[18] utilizationEnergyOverdrawMaintenance 0
scalar OsgEarthNet.uav[18] utilizationCountMissions 42
scalar OsgEarthNet.uav[18] utilizationCountManeuversMission 472
scalar OsgEarthNet.uav[18] utilizationCountManeuversMaintenance 84
scalar OsgEarthNet.uav[18] utilizationCountChargeState 42
scalar OsgEarthNet.uav[18] utilizationCountOverdrawnAfterMission 0
scalar OsgEarthNet.uav[18] utilizationCountIdleState 42
scalar OsgEarthNet.uav[18] utilizationFail 0
scalar OsgEarthNet.uav[18] simulationTime 259200
scalar OsgEarthNet.uav[19] utilizationSecMission 684.4732299383
scalar OsgEarthNet.uav[19] utilizationSecMaintenance 298.56834692969
scalar OsgEarthNet.uav[19] utilizationSecCharge 3720
scalar OsgEarthNet.uav[19] utilizationSecIdle 254496.95742313
scalar OsgEarthNet.uav[19] utilizationEnergyMission 3256.2151794434
scalar OsgEarthNet.uav[19] utilizationEnergyMaintenance 1414.9086532593
scalar OsgEarthNet.uav[19] utilizationEnergyCharge 4671.1235351562
scalar OsgEarthNet.uav[19] utilizationEnergyOverdrawMission 0
scalar OsgEarthNet.uav[19] utilizationEnergyOverdrawMaintenance 0
scalar OsgEarthNet.uav[19] utilizationCountMissions 1
scalar OsgEarthNet.uav[19] utilizationCountManeuversMission 11
scalar OsgEarthNet.uav[19] utilizationCountManeuversMaintenance 2
scalar OsgEarthNet.uav[19] utilizationCountChargeState 1
scalar OsgEarthNet.uav[19] utilizationCountOverdrawnAfterMission 0
scalar OsgEarthNet.uav[19] utilizationCountIdleState 2
scalar OsgEarthNet.uav[19] utilizationFail 0
scalar OsgEarthNet.uav[19] simulationTime 259200
scalar OsgEarthNet.uav[20] utilizationSecMission 702.6942798579
scalar OsgEarthNet.uav[20] utilizationSecMaintenance 282.29565405678
scalar OsgEarthNet.uav[20] utilizationSecCharge 3650
scalar OsgEarthNet.uav[20] utilizationSecIdle 254565.00906609
scalar OsgEarthNet.uav[20] utilizationEnergyMission 3187.2485351563
scalar OsgEarthNet.uav[20] utilizationEnergyMaintenance 1376.4419364929
scalar OsgEarthNet.uav[20] utilizationEnergyCharge 4563.6962890625
scalar OsgEarthNet.uav[20] utilizationEnergyOverdrawMission 0
scalar OsgEarthNet.uav[20] utilizationEnergyOverdrawMaintenance 0
scalar OsgEarthNet.uav[20] utilizationCountMissions 1
scalar OsgEarthNet.uav[20] utilizationCountManeuversMission 10
scalar OsgEarthNet.uav[20] utilizationCountManeuversMaintenance 2
scalar OsgEarthNet.uav[20] utilizationCountChargeState 1
scalar OsgEarthNet.uav[20] utilizationCountOverdrawnAfterMission 0
scalar OsgEarthNet.uav[20] utilizationCountIdleState 2
scalar OsgEarthNet.uav[20] utilizationFail 0
scalar OsgEarthNet.uav[20] simulationTime 259200
scalar OsgEarthNet.uav[21] utilizationSecMission 24652.725526127
scalar OsgEarthNet.uav[21] utilizationSecMaintenance 11368.983322245
scalar OsgEarthNet.uav[21] utilizationSecCharge 130986.10672828
scalar OsgEarthNet.uav[21] utilizationSecIdle 92192.183423353
scalar OsgEarthNet.uav[21] utilizationEnergyMission 113386.27385712
scalar OsgEarthNet.uav[21] utilizationEnergyMaintenance 52510.012542725
scalar OsgEarthNet.uav[21] utilizationEnergyCharge 164769.98706055
scalar OsgEarthNet.uav[21] utilizationEnergyOverdrawMission 0
scalar OsgEarthNet.uav[21] utilizationEnergyOverdrawMaintenance 0
scalar OsgEarthNet.uav[21] utilizationCountMissions 36
scalar OsgEarthNet.uav[21] utilizationCountManeuversMission 404
scalar OsgEarthNet.uav[21] utilizationCountManeuversMaintenance 72
scalar OsgEarthNet.uav[21] utilizationCountChargeState 36
scalar OsgEarthNet.uav[21] utilizationCountOverdrawnAfterMission 0
scalar OsgEarthNet.uav[21] utilizationCountIdleState 36
scalar OsgEarthNet.uav[21] utilizationFail 0
scalar OsgEarthNet.uav[21] simulationTime 259200
scalar OsgEarthNet.uav[22] utilizationSecMission 694.00169469977
scalar OsgEarthNet.uav[22] utilizationSecMaintenance 338.49695459722
scalar OsgEarthNet.uav[22] utilizationSecCharge 3790
scalar OsgEarthNet.uav[22] utilizationSecIdle 254377.5003507
scalar OsgEarthNet.uav[22] utilizationEnergyMission 3210.1824798584
scalar OsgEarthNet.uav[22] utilizationEnergyMaintenance 1600.1291618347
scalar OsgEarthNet.uav[22] utilizationEnergyCharge 4810.3110351562
scalar OsgEarthNet.uav[22] utilizationEnergyOverdrawMission 0
scalar OsgEarthNet.uav[22] utilizationEnergyOverdrawMaintenance 0
scalar OsgEarthNet.uav[22] utilizationCountMissions 1
scalar OsgEarthNet.uav[22] utilizationCountManeuversMission 13
scalar OsgEarthNet.uav[22] utilizationCountManeuversMaintenance 2
scalar OsgEarthNet.uav[22] utilizationCountChargeState 1
scalar OsgEarthNet.uav[22] utilizationCountOverdrawnAfterMission 0
scalar OsgEarthNet.uav[22] utilizationCountIdleState 2
scalar OsgEarthNet.uav[22] utilizationFail 0
scalar OsgEarthNet.uav[22] simulationTime 259200
scalar OsgEarthNet.uav[23] utilizationSecMission 760.62515258028
scalar OsgEarthNet.uav[23] utilizationSecMaintenance 291.95923480269
scalar OsgEarthNet.uav[23] utilizationSecCharge 3920
scalar OsgEarthNet.uav[23] utilizationSecIdle 254227.41461262
scalar OsgEarthNet.uav[23] utilizationEnergyMission 3514.6848297119
scalar OsgEarthNet.uav[23] utilizationEnergyMaintenance 1446.7644271851
scalar OsgEarthNet.uav[23] utilizationEnergyCharge 4961.4458007812
scalar OsgEarthNet.uav[23] utilizationEnergyOverdrawMission 0
scalar OsgEarthNet.uav[23] utilizationEnergyOverdrawMaintenance 0
scalar OsgEarthNet.uav[23] utilizationCountMissions 1
scalar OsgEarthNet.uav[23] utilizationCountManeuversMission 12
scalar OsgEarthNet.uav[23] utilizationCountManeuversMaintenance 2
scalar OsgEarthNet.uav[23] utilizationCountChargeState 1
scalar OsgEarthNet.uav[23] utilizationCountOverdrawnAfterMission 0
scalar OsgEarthNet.uav[23] utilizationCountIdleState 2
scalar OsgEarthNet.uav[23] utilizationFail 0
scalar OsgEarthNet.uav[23] simulationTime 259200
scalar OsgEarthNet.uav[24] utilizationSecMission 26802.084476792
scalar OsgEarthNet.uav[24] utilizationSecMaintenance 14075.547752252
scalar OsgEarthNet.uav[24] utilizationSecCharge 149522.98276637
scalar OsgEarthNet.uav[24] utilizationSecIdle 68799.384004586
scalar OsgEarthNet.uav[24] utilizationEnergyMission 123762.43836212
scalar OsgEarthNet.uav[24] utilizationEnergyMaintenance 65858.184288025
scalar OsgEarthNet.uav[24] utilizationEnergyCharge 186231.49279785
scalar OsgEarthNet.uav[24] utilizationEnergyOverdrawMission 0
scalar OsgEarthNet.uav[24] utilizationEnergyOverdrawMaintenance 0
scalar OsgEarthNet.uav[24] utilizationCountMissions 42
scalar OsgEarthNet.uav[24] utilizationCountManeuversMission 445
scalar OsgEarthNet.uav[24] utilizationCountManeuversMaintenance 84
scalar OsgEarthNet.uav[24] utilizationCountChargeState 42
scalar OsgEarthNet.uav[24] utilizationCountOverdrawnAfterMission 0
scalar OsgEarthNet.uav[24] utilizationCountIdleState 42
scalar OsgEarthNet.uav[24] utilizationFail 0
scalar OsgEarthNet.uav[24] simulationTime 259200
scalar OsgEarthNet.uav[25] utilizationSecMission 26729.020636843
scalar OsgEarthNet.uav[25] utilizationSecMaintenance 13959.441609691
scalar OsgEarthNet.uav[25] utilizationSecCharge 151230
scalar OsgEarthNet.uav[25] utilizationSecIdle 67281.536753466
scalar OsgEarthNet.uav[25] utilizationEnergyMission 124468.32302094
scalar OsgEarthNet.uav[25] utilizationEnergyMaintenance 64885.15656662
scalar OsgEarthNet.uav[25] utilizationEnergyCharge 189169.71655273
scalar OsgEarthNet.uav[25] utilizationEnergyOverdrawMission 0
scalar OsgEarthNet.uav[25] utilizationEnergyOverdrawMaintenance 0
scalar OsgEarthNet.uav[25] utilizationCountMissions 41
scalar OsgEarthNet.uav[25] utilizationCountManeuversMission 443
scalar OsgEarthNet.uav[25] utilizationCountManeuversMaintenance 82
scalar OsgEarthNet.uav[25] utilizationCountChargeState 41
scalar OsgEarthNet.uav[25] utilizationCountOverdrawnAfterMission 0
scalar OsgEarthNet.uav[25] utilizationCountIdleState 42
scalar OsgEarthNet.uav[25] utilizationFail 0
scalar OsgEarthNet.uav[25] simulationTime 259200
scalar OsgEarthNet.uav[26] utilizationSecMission 684.4732299383
scalar OsgEarthNet.uav[26] utilizationSecMaintenance 298.56834692969
scalar OsgEarthNet.uav[26] utilizationSecCharge 3750
scalar OsgEarthNet.uav[26] utilizationSecIdle 254466.95742313
scalar OsgEarthNet.uav[26] utilizationEnergyMission 3226.4702835083
scalar OsgEarthNet.uav[26] utilizationEnergyMaintenance 1451.6115646362
scalar OsgEarthNet.uav[26] utilizationEnergyCharge 4678.0825195312
scalar OsgEarthNet.uav[26] utilizationEnergyOverdrawMission 0
scalar OsgEarthNet.uav[26] utilizationEnergyOverdrawMaintenance 0
scalar OsgEarthNet.uav[26] utilizationCountMissions 1
scalar OsgEarthNet.uav[26] utilizationCountManeuversMission 11
scalar OsgEarthNet.uav[26] utilizationCountManeuversMaintenance 2
scalar OsgEarthNet.uav[26] utilizationCountChargeState 1
scalar OsgEarthNet.uav[26] utilizationCountOverdrawnAfterMission 0
scalar OsgEarthNet.uav[26] utilizationCountIdleState 2
scalar OsgEarthNet.uav[26] utilizationFail 0
scalar OsgEarthNet.uav[26] simulationTime 259200
scalar OsgEarthNet.uav[27] utilizationSecMission 3872.6263974815
scalar OsgEarthNet.uav[27] utilizationSecMaintenance 1909.1893334819
scalar OsgEarthNet.uav[27] utilizationSecCharge 21950
scalar OsgEarthNet.uav[27] utilizationSecIdle 231468.18326904
scalar OsgEarthNet.uav[27] utilizationEnergyMission 18078.233207703
scalar OsgEarthNet.uav[27] utilizationEnergyMaintenance 9227.3754043579
scalar OsgEarthNet.uav[27] utilizationEnergyCharge 27305.597167969
scalar OsgEarthNet.uav[27] utilizationEnergyOverdrawMission 0
scalar OsgEarthNet.uav[27] utilizationEnergyOverdrawMaintenance 0
scalar OsgEarthNet.uav[27] utilizationCountMissions 6
scalar OsgEarthNet.uav[27] utilizationCountManeuversMission 66
scalar OsgEarthNet.uav[27] utilizationCountManeuversMaintenance 12
scalar OsgEarthNet.uav[27] utilizationCountChargeState 6
scalar OsgEarthNet.uav[27] utilizationCountOverdrawnAfterMission 0
scalar OsgEarthNet.uav[27] utilizationCountIdleState 7
scalar OsgEarthNet.uav[27] utilizationFail 0
scalar OsgEarthNet.uav[27] simulationTime 259200
scalar OsgEarthNet.uav[28] utilizationSecMission 25236.165217269
scalar OsgEarthNet.uav[28] utilizationSecMaintenance 12724.211512428
scalar OsgEarthNet.uav[28] utilizationSecCharge 141362.9169079
scalar OsgEarthNet.uav[28] utilizationSecIdle 79876.705362404
scalar OsgEarthNet.uav[28] utilizationEnergyMission 117195.39938354
scalar OsgEarthNet.uav[28] utilizationEnergyMaintenance 60505.03560257
scalar OsgEarthNet.uav[28] utilizationEnergyCharge 177456.03051758
scalar OsgEarthNet.uav[28] utilizationEnergyOverdrawMission 0
scalar OsgEarthNet.uav[28] utilizationEnergyOverdrawMaintenance 0
scalar OsgEarthNet.uav[28] utilizationCountMissions 39
scalar OsgEarthNet.uav[28] utilizationCountManeuversMission 413
scalar OsgEarthNet.uav[28] utilizationCountManeuversMaintenance 78
scalar OsgEarthNet.uav[28] utilizationCountChargeState 39
scalar OsgEarthNet.uav[28] utilizationCountOverdrawnAfterMission 0
scalar OsgEarthNet.uav[28] utilizationCountIdleState 39
scalar OsgEarthNet.uav[28] utilizationFail 0
scalar OsgEarthNet.uav[28] simulationTime 259200
scalar OsgEarthNet.uav[29] utilizationSecMission 684.4732299383
scalar OsgEarthNet.uav[29] utilizationSecMaintenance 298.56834692969
scalar OsgEarthNet.uav[29] utilizationSecCharge 3590
scalar OsgEarthNet.uav[29] utilizationSecIdle 254626.95742313
scalar OsgEarthNet.uav[29] utilizationEnergyMission 3131.5109939575
scalar OsgEarthNet.uav[29] utilizationEnergyMaintenance 1366.3646774292
scalar OsgEarthNet.uav[29] utilizationEnergyCharge 4497.8725585938
scalar OsgEarthNet.uav[29] utilizationEnergyOverdrawMission 0
scalar OsgEarthNet.uav[29] utilizationEnergyOverdrawMaintenance 0
scalar OsgEarthNet.uav[29] utilizationCountMissions 1
scalar OsgEarthNet.uav[29] utilizationCountManeuversMission 11
scalar OsgEarthNet.uav[29] utilizationCountManeuversMaintenance 2
scalar OsgEarthNet.uav[29] utilizationCountChargeState 1
scalar OsgEarthNet.uav[29] utilizationCountOverdrawnAfterMission 0
scalar OsgEarthNet.uav[29] utilizationCountIdleState 2
scalar OsgEarthNet.uav[29] utilizationFail 0
scalar OsgEarthNet.uav[29] simulationTime 259200
scalar OsgEarthNet.uav[30] utilizationSecMission 3435.6203969967
scalar OsgEarthNet.uav[30] utilizationSecMaintenance 1313.8165438876
scalar OsgEarthNet.uav[30] utilizationSecCharge 18220
scalar OsgEarthNet.uav[30] utilizationSecIdle 236230.56205912
scalar OsgEarthNet.uav[30] utilizationEnergyMission 16199.621711731
scalar OsgEarthNet.uav[30] utilizationEnergyMaintenance 6448.7816123962
scalar OsgEarthNet.uav[30] utilizationEnergyCharge 22690.530761719
scalar OsgEarthNet.uav[30] utilizationEnergyOverdrawMission 0
scalar OsgEarthNet.uav[30] utilizationEnergyOverdrawMaintenance 0
scalar OsgEarthNet.uav[30] utilizationCountMissions 5
scalar OsgEarthNet.uav[30] utilizationCountManeuversMission 53
scalar OsgEarthNet.uav[30] utilizationCountManeuversMaintenance 10
scalar OsgEarthNet.uav[30] utilizationCountChargeState 5
scalar OsgEarthNet.uav[30] utilizationCountOverdrawnAfterMission 0
scalar OsgEarthNet.uav[30] utilizationCountIdleState 6
scalar OsgEarthNet.uav[30] utilizationFail 0
scalar OsgEarthNet.uav[30] simulationTime 259200
scalar OsgEarthNet.uav[31] utilizationSecMission 29354.972894307
scalar OsgEarthNet.uav[31] utilizationSecMaintenance 12528.61086224
scalar OsgEarthNet.uav[31] utilizationSecCharge 152714.26469517
scalar OsgEarthNet.uav[31] utilizationSecIdle 64602.150548278
scalar OsgEarthNet.uav[31] utilizationEnergyMission 135426.02104187
scalar OsgEarthNet.uav[31] utilizationEnergyMaintenance 58593.866691589
scalar OsgEarthNet.uav[31] utilizationEnergyCharge 191891.98120117
scalar OsgEarthNet.uav[31] utilizationEnergyOverdrawMission 0
scalar OsgEarthNet.uav[31] utilizationEnergyOverdrawMaintenance 0
scalar OsgEarthNet.uav[31] utilizationCountMissions 42
scalar OsgEarthNet.uav[31] utilizationCountManeuversMission 461
scalar OsgEarthNet.uav[31] utilizationCountManeuversMaintenance 84
scalar OsgEarthNet.uav[31] utilizationCountChargeState 42
scalar OsgEarthNet.uav[31] utilizationCountOverdrawnAfterMission 0
scalar OsgEarthNet.uav[31] utilizationCountIdleState 42
scalar OsgEarthNet.uav[31] utilizationFail 0
scalar OsgEarthNet.uav[31] simulationTime 259200
scalar OsgEarthNet.uav[32] utilizationSecMission 694.00169469977
scalar OsgEarthNet.uav[32] utilizationSecMaintenance 338.49695459722
scalar OsgEarthNet.uav[32] utilizationSecCharge 3640
scalar OsgEarthNet.uav[32] utilizationSecIdle 254527.5003507
scalar OsgEarthNet.uav[32] utilizationEnergyMission 3138.228012085
scalar OsgEarthNet.uav[32] utilizationEnergyMaintenance 1391.4035758972
scalar OsgEarthNet.uav[32] utilizationEnergyCharge 4529.630859375
scalar OsgEarthNet.uav[32] utilizationEnergyOverdrawMission 0
scalar OsgEarthNet.uav[32] utilizationEnergyOverdrawMaintenance 0
scalar OsgEarthNet.uav[32] utilizationCountMissions 1
scalar OsgEarthNet.uav[32] utilizationCountManeuversMission 13
scalar OsgEarthNet.uav[32] utilizationCountManeuversMaintenance 2
scalar OsgEarthNet.uav[32] utilizationCountChargeState 1
scalar OsgEarthNet.uav[32] utilizationCountOverdrawnAfterMission 0
scalar OsgEarthNet.uav[32] utilizationCountIdleState 2
scalar OsgEarthNet.uav[32] utilizationFail 0
scalar OsgEarthNet.uav[32] simulationTime 259200
scalar OsgEarthNet.uav[33] utilizationSecMission 750.20472747826
scalar OsgEarthNet.uav[33] utilizationSecMaintenance 335.16822070369
scalar OsgEarthNet.uav[33] utilizationSecCharge 3740
scalar OsgEarthNet.uav[33] utilizationSecIdle 254374.62605182
scalar OsgEarthNet.uav[33] utilizationEnergyMission 3201.7752227783
scalar OsgEarthNet.uav[33] utilizationEnergyMaintenance 1465.1380119324
scalar OsgEarthNet.uav[33] utilizationEnergyCharge 4666.91015625
scalar OsgEarthNet.uav[33] utilizationEnergyOverdrawMission 0
scalar OsgEarthNet.uav[33] utilizationEnergyOverdrawMaintenance 0
scalar OsgEarthNet.uav[33] utilizationCountMissions 1
scalar OsgEarthNet.uav[33] utilizationCountManeuversMission 11
scalar OsgEarthNet.uav[33] utilizationCountManeuversMaintenance 2
scalar OsgEarthNet.uav[33] utilizationCountChargeState 1
scalar OsgEarthNet.uav[33] utilizationCountOverdrawnAfterMission 0
scalar OsgEarthNet.uav[33] utilizationCountIdleState 2
scalar OsgEarthNet.uav[33] utilizationFail 0
scalar OsgEarthNet.uav[33] simulationTime 259200
scalar OsgEarthNet.uav[34] utilizationSecMission 30248.771664423
scalar OsgEarthNet.uav[34] utilizationSecMaintenance 13300.254070398
scalar OsgEarthNet.uav[34] utilizationSecCharge 160380
scalar OsgEarthNet.uav[34] utilizationSecIdle 55270.973265179
scalar OsgEarthNet.uav[34] utilizationEnergyMission 138841.6607132
scalar OsgEarthNet.uav[34] utilizationEnergyMaintenance 63000.113742828
scalar OsgEarthNet.uav[34] utilizationEnergyCharge 201306.92553711
scalar OsgEarthNet.uav[34] utilizationEnergyOverdrawMission 0
scalar OsgEarthNet.uav[34] utilizationEnergyOverdrawMaintenance 0
scalar OsgEarthNet.uav[34] utilizationCountMissions 43
scalar OsgEarthNet.uav[34] utilizationCountManeuversMission 505
scalar OsgEarthNet.uav[34] utilizationCountManeuversMaintenance 86
scalar OsgEarthNet.uav[34] utilizationCountChargeState 43
scalar OsgEarthNet.uav[34] utilizationCountOverdrawnAfterMission 0
scalar OsgEarthNet.uav[34] utilizationCountIdleState 44
scalar OsgEarthNet.uav[34] utilizationFail 0
scalar OsgEarthNet.uav[34] simulationTime 259200
scalar OsgEarthNet.uav[35] utilizationSecMission 27658.96610934
scalar OsgEarthNet.uav[35] utilizationSecMaintenance 14577.479343317
scalar OsgEarthNet.uav[35] utilizationSecCharge 157040
scalar OsgEarthNet.uav[35] utilizationSecIdle 59923.553547343
scalar OsgEarthNet.uav[35] utilizationEnergyMission 127291.16057968
scalar OsgEarthNet.uav[35] utilizationEnergyMaintenance 69213.207553864
scalar OsgEarthNet.uav[35] utilizationEnergyCharge 195926.86401367
scalar OsgEarthNet.uav[35] utilizationEnergyOverdrawMission 0
scalar OsgEarthNet.uav[35] utilizationEnergyOverdrawMaintenance 5.4933414459229
scalar OsgEarthNet.uav[35] utilizationCountMissions 43
scalar OsgEarthNet.uav[35] utilizationCountManeuversMission 460
scalar OsgEarthNet.uav[35] utilizationCountManeuversMaintenance 86
scalar OsgEarthNet.uav[35] utilizationCountChargeState 43
scalar OsgEarthNet.uav[35] utilizationCountOverdrawnAfterMission 1
scalar OsgEarthNet.uav[35] utilizationCountIdleState 44
scalar OsgEarthNet.uav[35] utilizationFail 0
scalar OsgEarthNet.uav[35] simulationTime 259200
scalar OsgEarthNet.uav[36] utilizationSecMission 760.62515258028
scalar OsgEarthNet.uav[36] utilizationSecMaintenance 291.95923480269
scalar OsgEarthNet.uav[36] utilizationSecCharge 3810
scalar OsgEarthNet.uav[36] utilizationSecIdle 254337.41461262
scalar OsgEarthNet.uav[36] utilizationEnergyMission 3428.8921661377
scalar OsgEarthNet.uav[36] utilizationEnergyMaintenance 1379.0472640991
scalar OsgEarthNet.uav[36] utilizationEnergyCharge 4807.939453125
scalar OsgEarthNet.uav[36] utilizationEnergyOverdrawMission 0
scalar OsgEarthNet.uav[36] utilizationEnergyOverdrawMaintenance 0
scalar OsgEarthNet.uav[36] utilizationCountMissions 1
scalar OsgEarthNet.uav[36] utilizationCountManeuversMission 12
scalar OsgEarthNet.uav[36] utilizationCountManeuversMaintenance 2
scalar OsgEarthNet.uav[36] utilizationCountChargeState 1
scalar OsgEarthNet.uav[36] utilizationCountOverdrawnAfterMission 0
scalar OsgEarthNet.uav[36] utilizationCountIdleState 2
scalar OsgEarthNet.uav[36] utilizationFail 0
scalar OsgEarthNet.uav[36] simulationTime 259200
scalar OsgEarthNet.uav[37] utilizationSecMission 1211.2190826348
scalar OsgEarthNet.uav[37] utilizationSecMaintenance 781.03705437227
scalar OsgEarthNet.uav[37] utilizationSecCharge 7370
scalar OsgEarthNet.uav[37] utilizationSecIdle 249837.74286299
scalar OsgEarthNet.uav[37] utilizationEnergyMission 5687.9873962402
scalar OsgEarthNet.uav[37] utilizationEnergyMaintenance 3494.6217689514
scalar OsgEarthNet.uav[37] utilizationEnergyCharge 9132.8515625
scalar OsgEarthNet.uav[37] utilizationEnergyOverdrawMission 0
scalar OsgEarthNet.uav[37] utilizationEnergyOverdrawMaintenance 0
scalar OsgEarthNet.uav[37] utilizationCountMissions 2
scalar OsgEarthNet.uav[37] utilizationCountManeuversMission 21
scalar OsgEarthNet.uav[37] utilizationCountManeuversMaintenance 4
scalar OsgEarthNet.uav[37] utilizationCountChargeState 2
scalar OsgEarthNet.uav[37] utilizationCountOverdrawnAfterMission 0
scalar OsgEarthNet.uav[37] utilizationCountIdleState 3
scalar OsgEarthNet.uav[37] utilizationFail 0
scalar OsgEarthNet.uav[37] simulationTime 259200
scalar OsgEarthNet.uav[38] utilizationSecMission 32064.075265564
scalar OsgEarthNet.uav[38] utilizationSecMaintenance 13089.758533274
scalar OsgEarthNet.uav[38] utilizationSecCharge 164874.16520116
scalar OsgEarthNet.uav[38] utilizationSecIdle 49172
scalar OsgEarthNet.uav[38] utilizationEnergyMission 149242.35436327
scalar OsgEarthNet.uav[38] utilizationEnergyMaintenance 60704.593639374
scalar OsgEarthNet.uav[38] utilizationEnergyCharge 207515.46130371
scalar OsgEarthNet.uav[38] utilizationEnergyOverdrawMission 0
scalar OsgEarthNet.uav[38] utilizationEnergyOverdrawMaintenance 0
scalar OsgEarthNet.uav[38] utilizationCountMissions 45
scalar OsgEarthNet.uav[38] utilizationCountManeuversMission 523
scalar OsgEarthNet.uav[38] utilizationCountManeuversMaintenance 89
scalar OsgEarthNet.uav[38] utilizationCountChargeState 45
scalar OsgEarthNet.uav[38] utilizationCountOverdrawnAfterMission 0
scalar OsgEarthNet.uav[38] utilizationCountIdleState 45
scalar OsgEarthNet.uav[38] utilizationFail 0
scalar OsgEarthNet.uav[38] simulationTime 259200
scalar OsgEarthNet.uav[39] utilizationSecMission 750.20472747826
scalar OsgEarthNet.uav[39] utilizationSecMaintenance 261.68051383311
scalar OsgEarthNet.uav[39] utilizationSecCharge 3820
scalar OsgEarthNet.uav[39] utilizationSecIdle 254368.11375869
scalar OsgEarthNet.uav[39] utilizationEnergyMission 3457.3231506348
scalar OsgEarthNet.uav[39] utilizationEnergyMaintenance 1355.0606803894
scalar OsgEarthNet.uav[39] utilizationEnergyCharge 4812.3837890625
scalar OsgEarthNet.uav[39] utilizationEnergyOverdrawMission 0
scalar OsgEarthNet.uav[39] utilizationEnergyOverdrawMaintenance 0
scalar OsgEarthNet.uav[39] utilizationCountMissions 1
scalar OsgEarthNet.uav[39] utilizationCountManeuversMission 11
scalar OsgEarthNet.uav[39] utilizationCountManeuversMaintenance 2
scalar OsgEarthNet.uav[39] utilizationCountChargeState 1
scalar OsgEarthNet.uav[39] utilizationCountOverdrawnAfterMission 0
scalar OsgEarthNet.uav[39] utilizationCountIdleState 2
scalar OsgEarthNet.uav[39] utilizationFail 0
scalar OsgEarthNet.uav[39] simulationTime 259200
scalar OsgEarthNet.uav[40] utilizationSecMission 30767.226162491
scalar OsgEarthNet.uav[40] utilizationSecMaintenance 12571.259176559
scalar OsgEarthNet.uav[40] utilizationSecCharge 158310
scalar OsgEarthNet.uav[40] utilizationSecIdle 57551.51366095
scalar OsgEarthNet.uav[40] utilizationEnergyMission 141556.91439053
scalar OsgEarthNet.uav[40] utilizationEnergyMaintenance 59609.707550049
scalar OsgEarthNet.uav[40] utilizationEnergyCharge 197706.08935547
scalar OsgEarthNet.uav[40] utilizationEnergyOverdrawMission 0
scalar OsgEarthNet.uav[40] utilizationEnergyOverdrawMaintenance 0
scalar OsgEarthNet.uav[40] utilizationCountMissions 43
scalar OsgEarthNet.uav[40] utilizationCountManeuversMission 501
scalar OsgEarthNet.uav[40] utilizationCountManeuversMaintenance 87
scalar OsgEarthNet.uav[40] utilizationCountChargeState 43
scalar OsgEarthNet.uav[40] utilizationCountOverdrawnAfterMission 0
scalar OsgEarthNet.uav[40] utilizationCountIdleState 44
scalar OsgEarthNet.uav[40] utilizationFail 0
scalar OsgEarthNet.uav[40] simulationTime 259200
scalar OsgEarthNet.uav[41] utilizationSecMission 20485.436036066
scalar OsgEarthNet.uav[41] utilizationSecMaintenance 9464.6246425857
scalar OsgEarthNet.uav[41] utilizationSecCharge 111110
scalar OsgEarthNet.uav[41] utilizationSecIdle 118139.93832135
scalar OsgEarthNet.uav[41] utilizationEnergyMission 94985.217285193
scalar OsgEarthNet.uav[41] utilizationEnergyMaintenance 45225.355018616
scalar OsgEarthNet.uav[41] utilizationEnergyCharge 139168.09472656
scalar OsgEarthNet.uav[41] utilizationEnergyOverdrawMission 0
scalar OsgEarthNet.uav[41] utilizationEnergyOverdrawMaintenance 0
scalar OsgEarthNet.uav[41] utilizationCountMissions 30
scalar OsgEarthNet.uav[41] utilizationCountManeuversMission 339
scalar OsgEarthNet.uav[41] utilizationCountManeuversMaintenance 61
scalar OsgEarthNet.uav[41] utilizationCountChargeState 30
scalar OsgEarthNet.uav[41] utilizationCountOverdrawnAfterMission 0
scalar OsgEarthNet.uav[41] utilizationCountIdleState 31
scalar OsgEarthNet.uav[41] utilizationFail 0
scalar OsgEarthNet.uav[41] simulationTime 259200
scalar OsgEarthNet.uav[42] utilizationSecMission 750.20472747826
scalar OsgEarthNet.uav[42] utilizationSecMaintenance 280.95484451848
scalar OsgEarthNet.uav[42] utilizationSecCharge 3840
scalar OsgEarthNet.uav[42] utilizationSecIdle 254328.839428
scalar OsgEarthNet.uav[42] utilizationEnergyMission 3566.7242736816
scalar OsgEarthNet.uav[42] utilizationEnergyMaintenance 1276.3317985535
scalar OsgEarthNet.uav[42] utilizationEnergyCharge 4843.060546875
scalar OsgEarthNet.uav[42] utilizationEnergyOverdrawMission 0
scalar OsgEarthNet.uav[42] utilizationEnergyOverdrawMaintenance 0
scalar OsgEarthNet.uav[42] utilizationCountMissions 1
scalar OsgEarthNet.uav[42] utilizationCountManeuversMission 11
scalar OsgEarthNet.uav[42] utilizationCountManeuversMaintenance 2
scalar OsgEarthNet.uav[42] utilizationCountChargeState 1
scalar OsgEarthNet.uav[42] utilizationCountOverdrawnAfterMission 0
scalar OsgEarthNet.uav[42] utilizationCountIdleState 2
scalar OsgEarthNet.uav[42] utilizationFail 0
scalar OsgEarthNet.uav[42] simulationTime 259200
scalar OsgEarthNet.uav[43] utilizationSecMission 836.77707522227
scalar OsgEarthNet.uav[43] utilizationSecMaintenance 217.0347828456
scalar OsgEarthNet.uav[43] utilizationSecCharge 3790
scalar OsgEarthNet.uav[43] utilizationSecIdle 254356.18714193
scalar OsgEarthNet.uav[43] utilizationEnergyMission 3773.4921722412
scalar OsgEarthNet.uav[43] utilizationEnergyMaintenance 1067.3278617859
scalar OsgEarthNet.uav[43] utilizationEnergyCharge 4840.8232421875
scalar OsgEarthNet.uav[43] utilizationEnergyOverdrawMission 0
scalar OsgEarthNet.uav[43] utilizationEnergyOverdrawMaintenance 0
scalar OsgEarthNet.uav[43] utilizationCountMissions 1
scalar OsgEarthNet.uav[43] utilizationCountManeuversMission 13
scalar OsgEarthNet.uav[43] utilizationCountManeuversMaintenance 2
scalar OsgEarthNet.uav[43] utilizationCountChargeState 1
scalar OsgEarthNet.uav[43] utilizationCountOverdrawnAfterMission 0
scalar OsgEarthNet.uav[43] utilizationCountIdleState 2
scalar OsgEarthNet.uav[43] utilizationFail 0
scalar OsgEarthNet.uav[43] simulationTime 259200
scalar OsgEarthNet.uav[44] utilizationSecMission 12305.671432354
scalar OsgEarthNet.uav[44] utilizationSecMaintenance 5879.5168666379
scalar OsgEarthNet.uav[44] utilizationSecCharge 67320
scalar OsgEarthNet.uav[44] utilizationSecIdle 173694.81070101
scalar OsgEarthNet.uav[44] utilizationEnergyMission 56864.543483734
scalar OsgEarthNet.uav[44] utilizationEnergyMaintenance 27682.581699371
scalar OsgEarthNet.uav[44] utilizationEnergyCharge 84534.125976562
scalar OsgEarthNet.uav[44] utilizationEnergyOverdrawMission 0
scalar OsgEarthNet.uav[44] utilizationEnergyOverdrawMaintenance 0
scalar OsgEarthNet.uav[44] utilizationCountMissions 18
scalar OsgEarthNet.uav[44] utilizationCountManeuversMission 202
scalar OsgEarthNet.uav[44] utilizationCountManeuversMaintenance 36
scalar OsgEarthNet.uav[44] utilizationCountChargeState 18
scalar OsgEarthNet.uav[44] utilizationCountOverdrawnAfterMission 0
scalar OsgEarthNet.uav[44] utilizationCountIdleState 19
scalar OsgEarthNet.uav[44] utilizationFail 0
scalar OsgEarthNet.uav[44] simulationTime 259200
scalar OsgEarthNet.uav[45] utilizationSecMission 750.20472747826
scalar OsgEarthNet.uav[45] utilizationSecMaintenance 280.95484451848
scalar OsgEarthNet.uav[45] utilizationSecCharge 3790
scalar OsgEarthNet.uav[45] utilizationSecIdle 254378.839428
scalar OsgEarthNet.uav[45] utilizationEnergyMission 3425.6302032471
scalar OsgEarthNet.uav[45] utilizationEnergyMaintenance 1313.4181022644
scalar OsgEarthNet.uav[45] utilizationEnergyCharge 4739.0517578125
scalar OsgEarthNet.uav[45] utilizationEnergyOverdrawMission 0
scalar OsgEarthNet.uav[45] utilizationEnergyOverdrawMaintenance 0
scalar OsgEarthNet.uav[45] utilizationCountMissions 1
scalar OsgEarthNet.uav[45] utilizationCountManeuversMission 11
scalar OsgEarthNet.uav[45] utilizationCountManeuversMaintenance 2
scalar OsgEarthNet.uav[45] utilizationCountChargeState 1
scalar OsgEarthNet.uav[45] utilizationCountOverdrawnAfterMission 0
scalar OsgEarthNet.uav[45] utilizationCountIdleState 2
scalar OsgEarthNet.uav[45] utilizationFail 0
scalar OsgEarthNet.uav[45] simulationTime 259200
scalar OsgEarthNet.uav[46] utilizationSecMission 702.6942798579
scalar OsgEarthNet.uav[46] utilizationSecMaintenance 282.29565405678
scalar OsgEarthNet.uav[46] utilizationSecCharge 3750
scalar OsgEarthNet.uav[46] utilizationSecIdle 254465.00906609
scalar OsgEarthNet.uav[46] utilizationEnergyMission 3358.4925384522
scalar OsgEarthNet.uav[46] utilizationEnergyMaintenance 1391.1873893738
scalar OsgEarthNet.uav[46] utilizationEnergyCharge 4749.6782226562
scalar OsgEarthNet.uav[46] utilizationEnergyOverdrawMission 0
scalar OsgEarthNet.uav[46] utilizationEnergyOverdrawMaintenance 0
scalar OsgEarthNet.uav[46] utilizationCountMissions 1
scalar OsgEarthNet.uav[46] utilizationCountManeuversMission 10
scalar OsgEarthNet.uav[46] utilizationCountManeuversMaintenance 2
scalar OsgEarthNet.uav[46] utilizationCountChargeState 1
scalar OsgEarthNet.uav[46] utilizationCountOverdrawnAfterMission 0
scalar OsgEarthNet.uav[46] utilizationCountIdleState 2
scalar OsgEarthNet.uav[46] utilizationFail 0
scalar OsgEarthNet.uav[46] simulationTime 259200
scalar OsgEarthNet.uav[47] utilizationSecMission 26185.337671944
scalar OsgEarthNet.uav[47] utilizationSecMaintenance 17049.598147699
scalar OsgEarthNet.uav[47] utilizationSecCharge 160470.45129084
scalar OsgEarthNet.uav[47] utilizationSecIdle 55494.611889516
scalar OsgEarthNet.uav[47] utilizationEnergyMission 122146.30515289
scalar OsgEarthNet.uav[47] utilizationEnergyMaintenance 78802.513210297
scalar OsgEarthNet.uav[47] utilizationEnergyCharge 200353.47094727
scalar OsgEarthNet.uav[47] utilizationEnergyOverdrawMission 0
scalar OsgEarthNet.uav[47] utilizationEnergyOverdrawMaintenance 0
scalar OsgEarthNet.uav[47] utilizationCountMissions 44
scalar OsgEarthNet.uav[47] utilizationCountManeuversMission 425
scalar OsgEarthNet.uav[47] utilizationCountManeuversMaintenance 88
scalar OsgEarthNet.uav[47] utilizationCountChargeState 44
scalar OsgEarthNet.uav[47] utilizationCountOverdrawnAfterMission 0
scalar OsgEarthNet.uav[47] utilizationCountIdleState 44
scalar OsgEarthNet.uav[47] utilizationFail 0
scalar OsgEarthNet.uav[47] simulationTime 259200
scalar OsgEarthNet.uav[48] utilizationSecMission 26611.450783167
scalar OsgEarthNet.uav[48] utilizationSecMaintenance 12880.154393233
scalar OsgEarthNet.uav[48] utilizationSecCharge 144971.9462522
scalar OsgEarthNet.uav[48] utilizationSecIdle 74736.447571396
scalar OsgEarthNet.uav[48] utilizationEnergyMission 122340.13314819
scalar OsgEarthNet.uav[48] utilizationEnergyMaintenance 59948.815158844
scalar OsgEarthNet.uav[48] utilizationEnergyCharge 181614.18603516
scalar OsgEarthNet.uav[48] utilizationEnergyOverdrawMission 0
scalar OsgEarthNet.uav[48] utilizationEnergyOverdrawMaintenance 0
scalar OsgEarthNet.uav[48] utilizationCountMissions 40
scalar OsgEarthNet.uav[48] utilizationCountManeuversMission 432
scalar OsgEarthNet.uav[48] utilizationCountManeuversMaintenance 80
scalar OsgEarthNet.uav[48] utilizationCountChargeState 40
scalar OsgEarthNet.uav[48] utilizationCountOverdrawnAfterMission 0
scalar OsgEarthNet.uav[48] utilizationCountIdleState 40
scalar OsgEarthNet.uav[48] utilizationFail 0
scalar OsgEarthNet.uav[48] simulationTime 259200
scalar OsgEarthNet.uav[49] utilizationSecMission 760.62515258028
scalar OsgEarthNet.uav[49] utilizationSecMaintenance 291.95923480269
scalar OsgEarthNet.uav[49] utilizationSecCharge 3920
scalar OsgEarthNet.uav[49] utilizationSecIdle 254227.41461262
scalar OsgEarthNet.uav[49] utilizationEnergyMission 3534.1223144531
scalar OsgEarthNet.uav[49] utilizationEnergyMaintenance 1435.3180770874
scalar OsgEarthNet.uav[49] utilizationEnergyCharge 4969.4428710938
scalar OsgEarthNet.uav[49] utilizationEnergyOverdrawMission 0
scalar OsgEarthNet.uav[49] utilizationEnergyOverdrawMaintenance 0
scalar OsgEarthNet.uav[49] utilizationCountMissions 1
scalar OsgEarthNet.uav[49] utilizationCountManeuversMission 12
scalar OsgEarthNet.uav[49] utilizationCountManeuversMaintenance 2
scalar OsgEarthNet.uav[49] utilizationCountChargeState 1
scalar OsgEarthNet.uav[49] utilizationCountOverdrawnAfterMission 0
scalar OsgEarthNet.uav[49] utilizationCountIdleState 2
scalar OsgEarthNet.uav[49] utilizationFail 0
scalar OsgEarthNet.uav[49] simulationTime 259200
scalar OsgEarthNet.uav[50] utilizationSecMission 684.4732299383
scalar OsgEarthNet.uav[50] utilizationSecMaintenance 298.56834692969
scalar OsgEarthNet.uav[50] utilizationSecCharge 3660
scalar OsgEarthNet.uav[50] utilizationSecIdle 254556.95742313
scalar OsgEarthNet.uav[50] utilizationEnergyMission 3027.6428833008
scalar OsgEarthNet.uav[50] utilizationEnergyMaintenance 1525.2251815796
scalar OsgEarthNet.uav[50] utilizationEnergyCharge 4552.8657226562
scalar OsgEarthNet.uav[50] utilizationEnergyOverdrawMission 0
scalar OsgEarthNet.uav[50] utilizationEnergyOverdrawMaintenance 0
scalar OsgEarthNet.uav[50] utilizationCountMissions 1
scalar OsgEarthNet.uav[50] utilizationCountManeuversMission 11
scalar OsgEarthNet.uav[50] utilizationCountManeuversMaintenance 2
scalar OsgEarthNet.uav[50] utilizationCountChargeState 1
scalar OsgEarthNet.uav[50] utilizationCountOverdrawnAfterMission 0
scalar OsgEarthNet.uav[50] utilizationCountIdleState 2
scalar OsgEarthNet.uav[50] utilizationFail 0
scalar OsgEarthNet.uav[50] simulationTime 259200
scalar OsgEarthNet.uav[51] utilizationSecMission 28447.638183153
scalar OsgEarthNet.uav[51] utilizationSecMaintenance 13695.045730633
scalar OsgEarthNet.uav[51] utilizationSecCharge 154530
scalar OsgEarthNet.uav[51] utilizationSecIdle 62527.315086215
scalar OsgEarthNet.uav[51] utilizationEnergyMission 131380.00270961
scalar OsgEarthNet.uav[51] utilizationEnergyMaintenance 63995.287876129
scalar OsgEarthNet.uav[51] utilizationEnergyCharge 193040.8828125
scalar OsgEarthNet.uav[51] utilizationEnergyOverdrawMission 0
scalar OsgEarthNet.uav[51] utilizationEnergyOverdrawMaintenance 0
scalar OsgEarthNet.uav[51] utilizationCountMissions 42
scalar OsgEarthNet.uav[51] utilizationCountManeuversMission 471
scalar OsgEarthNet.uav[51] utilizationCountManeuversMaintenance 85
scalar OsgEarthNet.uav[51] utilizationCountChargeState 42
scalar OsgEarthNet.uav[51] utilizationCountOverdrawnAfterMission 0
scalar OsgEarthNet.uav[51] utilizationCountIdleState 43
scalar OsgEarthNet.uav[51] utilizationFail 0
scalar OsgEarthNet.uav[51] simulationTime 259200
scalar OsgEarthNet.uav[52] utilizationSecMission 694.00169469977
scalar OsgEarthNet.uav[52] utilizationSecMaintenance 338.49695459722
scalar OsgEarthNet.uav[52] utilizationSecCharge 3850
scalar OsgEarthNet.uav[52] utilizationSecIdle 254317.5003507
scalar OsgEarthNet.uav[52] utilizationEnergyMission 3245.7681274414
scalar OsgEarthNet.uav[52] utilizationEnergyMaintenance 1666.8447990417
scalar OsgEarthNet.uav[52] utilizationEnergyCharge 4912.609375
scalar OsgEarthNet.uav[52] utilizationEnergyOverdrawMission 0
scalar OsgEarthNet.uav[52] utilizationEnergyOverdrawMaintenance 0
scalar OsgEarthNet.uav[52] utilizationCountMissions 1
scalar OsgEarthNet.uav[52] utilizationCountManeuversMission 13
scalar OsgEarthNet.uav[52] utilizationCountManeuversMaintenance 2
scalar OsgEarthNet.uav[52] utilizationCountChargeState 1
scalar OsgEarthNet.uav[52] utilizationCountOverdrawnAfterMission 0
scalar OsgEarthNet.uav[52] utilizationCountIdleState 2
scalar OsgEarthNet.uav[52] utilizationFail 0
scalar OsgEarthNet.uav[52] simulationTime 259200
scalar OsgEarthNet.uav[53] utilizationSecMission 702.6942798579
scalar OsgEarthNet.uav[53] utilizationSecMaintenance 282.29565405678
scalar OsgEarthNet.uav[53] utilizationSecCharge 3570
scalar OsgEarthNet.uav[53] utilizationSecIdle 254645.00906609
scalar OsgEarthNet.uav[53] utilizationEnergyMission 3151.3040008545
scalar OsgEarthNet.uav[53] utilizationEnergyMaintenance 1234.5680046082
scalar OsgEarthNet.uav[53] utilizationEnergyCharge 4385.87109375
scalar OsgEarthNet.uav[53] utilizationEnergyOverdrawMission 0
scalar OsgEarthNet.uav[53] utilizationEnergyOverdrawMaintenance 0
scalar OsgEarthNet.uav[53] utilizationCountMissions 1
scalar OsgEarthNet.uav[53] utilizationCountManeuversMission 10
scalar OsgEarthNet.uav[53] utilizationCountManeuversMaintenance 2
scalar OsgEarthNet.uav[53] utilizationCountChargeState 1
scalar OsgEarthNet.uav[53] utilizationCountOverdrawnAfterMission 0
scalar OsgEarthNet.uav[53] utilizationCountIdleState 2
scalar OsgEarthNet.uav[53] utilizationFail 0
scalar OsgEarthNet.uav[53] simulationTime 259200
scalar OsgEarthNet.uav[54] utilizationSecMission 28455.750826452
scalar OsgEarthNet.uav[54] utilizationSecMaintenance 14459.901243691
scalar OsgEarthNet.uav[54] utilizationSecCharge 159510
scalar OsgEarthNet.uav[54] utilizationSecIdle 56774.346929857
scalar OsgEarthNet.uav[54] utilizationEnergyMission 131328.37379456
scalar OsgEarthNet.uav[54] utilizationEnergyMaintenance 67173.976192474
scalar OsgEarthNet.uav[54] utilizationEnergyCharge 198417.55981445
scalar OsgEarthNet.uav[54] utilizationEnergyOverdrawMission 0
scalar OsgEarthNet.uav[54] utilizationEnergyOverdrawMaintenance 0
scalar OsgEarthNet.uav[54] utilizationCountMissions 44
scalar OsgEarthNet.uav[54] utilizationCountManeuversMission 477
scalar OsgEarthNet.uav[54] utilizationCountManeuversMaintenance 88
scalar OsgEarthNet.uav[54] utilizationCountChargeState 44
scalar OsgEarthNet.uav[54] utilizationCountOverdrawnAfterMission 0
scalar OsgEarthNet.uav[54] utilizationCountIdleState 45
scalar OsgEarthNet.uav[54] utilizationFail 0
scalar OsgEarthNet.uav[54] simulationTime 259200
scalar OsgEarthNet.uav[55] utilizationSecMission 9798.4723402533
scalar OsgEarthNet.uav[55] utilizationSecMaintenance 4959.1102886418
scalar OsgEarthNet.uav[55] utilizationSecCharge 55160
scalar OsgEarthNet.uav[55] utilizationSecIdle 189282.4163711
scalar OsgEarthNet.uav[55] utilizationEnergyMission 45686.864425659
scalar OsgEarthNet.uav[55] utilizationEnergyMaintenance 23310.698719025
scalar OsgEarthNet.uav[55] utilizationEnergyCharge 68916.224121094
scalar OsgEarthNet.uav[55] utilizationEnergyOverdrawMission 0
scalar OsgEarthNet.uav[55] utilizationEnergyOverdrawMaintenance 0
scalar OsgEarthNet.uav[55] utilizationCountMissions 15
scalar OsgEarthNet.uav[55] utilizationCountManeuversMission 159
scalar OsgEarthNet.uav[55] utilizationCountManeuversMaintenance 30
scalar OsgEarthNet.uav[55] utilizationCountChargeState 15
scalar OsgEarthNet.uav[55] utilizationCountOverdrawnAfterMission 0
scalar OsgEarthNet.uav[55] utilizationCountIdleState 16
scalar OsgEarthNet.uav[55] utilizationFail 0
scalar OsgEarthNet.uav[55] simulationTime 259200
scalar OsgEarthNet.uav[56] utilizationSecMission 836.77707522227
scalar OsgEarthNet.uav[56] utilizationSecMaintenance 217.0347828456
scalar OsgEarthNet.uav[56] utilizationSecCharge 3810
scalar OsgEarthNet.uav[56] utilizationSecIdle 254336.18714193
scalar OsgEarthNet.uav[56] utilizationEnergyMission 3797.5322570801
scalar OsgEarthNet.uav[56] utilizationEnergyMaintenance 993.34449386597
scalar OsgEarthNet.uav[56] utilizationEnergyCharge 4790.8725585938
scalar OsgEarthNet.uav[56] utilizationEnergyOverdrawMission 0
scalar OsgEarthNet.uav[56] utilizationEnergyOverdrawMaintenance 0
scalar OsgEarthNet.uav[56] utilizationCountMissions 1
scalar OsgEarthNet.uav[56] utilizationCountManeuversMission 13
scalar OsgEarthNet.uav[56] utilizationCountManeuversMaintenance 2
scalar OsgEarthNet.uav[56] utilizationCountChargeState 1
scalar OsgEarthNet.uav[56] utilizationCountOverdrawnAfterMission 0
scalar OsgEarthNet.uav[56] utilizationCountIdleState 2
scalar OsgEarthNet.uav[56] utilizationFail 0
scalar OsgEarthNet.uav[56] simulationTime 259200
scalar OsgEarthNet.uav[57] utilizationSecMission 454.19906291044
scalar OsgEarthNet.uav[57] utilizationSecMaintenance 531.61543982806
scalar OsgEarthNet.uav[57] utilizationSecCharge 3880
scalar OsgEarthNet.uav[57] utilizationSecIdle 254334.18449726
scalar OsgEarthNet.uav[57] utilizationEnergyMission 2406.8491363525
scalar OsgEarthNet.uav[57] utilizationEnergyMaintenance 2530.3296127319
scalar OsgEarthNet.uav[57] utilizationEnergyCharge 4937.173828125
scalar OsgEarthNet.uav[57] utilizationEnergyOverdrawMission 0
scalar OsgEarthNet.uav[57] utilizationEnergyOverdrawMaintenance 0
scalar OsgEarthNet.uav[57] utilizationCountMissions 1
scalar OsgEarthNet.uav[57] utilizationCountManeuversMission 8
scalar OsgEarthNet.uav[57] utilizationCountManeuversMaintenance 2
scalar OsgEarthNet.uav[57] utilizationCountChargeState 1
scalar OsgEarthNet.uav[57] utilizationCountOverdrawnAfterMission 0
scalar OsgEarthNet.uav[57] utilizationCountIdleState 2
scalar OsgEarthNet.uav[57] utilizationFail 0
scalar OsgEarthNet.uav[57] simulationTime 259200
scalar OsgEarthNet.uav[58] utilizationSecMission 887.1741082606
scalar OsgEarthNet.uav[58] utilizationSecMaintenance 148.2728194454
scalar OsgEarthNet.uav[58] utilizationSecCharge 3820
scalar OsgEarthNet.uav[58] utilizationSecIdle 254344.55207229
scalar OsgEarthNet.uav[58] utilizationEnergyMission 3985.8922271729
scalar OsgEarthNet.uav[58] utilizationEnergyMaintenance 739.18166351318
scalar OsgEarthNet.uav[58] utilizationEnergyCharge 4862.4677734375
scalar OsgEarthNet.uav[58] utilizationEnergyOverdrawMission 0
scalar OsgEarthNet.uav[58] utilizationEnergyOverdrawMaintenance 0
scalar OsgEarthNet.uav[58] utilizationCountMissions 1
scalar OsgEarthNet.uav[58] utilizationCountManeuversMission 14
scalar OsgEarthNet.uav[58] utilizationCountManeuversMaintenance 2
scalar OsgEarthNet.uav[58] utilizationCountChargeState 1
scalar OsgEarthNet.uav[58] utilizationCountOverdrawnAfterMission 0
scalar OsgEarthNet.uav[58] utilizationCountIdleState 2
scalar OsgEarthNet.uav[58] utilizationFail 0
scalar OsgEarthNet.uav[58] simulationTime 259200
scalar OsgEarthNet.uav[59] utilizationSecMission 30211.025032035
scalar OsgEarthNet.uav[59] utilizationSecMaintenance 14944.681751315
scalar OsgEarthNet.uav[59] utilizationSecCharge 169292.29221665
scalar OsgEarthNet.uav[59] utilizationSecIdle 44752
scalar OsgEarthNet.uav[59] utilizationEnergyMission 140127.67753738
scalar OsgEarthNet.uav[59] utilizationEnergyMaintenance 70848.268211365
scalar OsgEarthNet.uav[59] utilizationEnergyCharge 211540.73608398
scalar OsgEarthNet.uav[59] utilizationEnergyOverdrawMission 0
scalar OsgEarthNet.uav[59] utilizationEnergyOverdrawMaintenance 0
scalar OsgEarthNet.uav[59] utilizationCountMissions 46
scalar OsgEarthNet.uav[59] utilizationCountManeuversMission 501
scalar OsgEarthNet.uav[59] utilizationCountManeuversMaintenance 91
scalar OsgEarthNet.uav[59] utilizationCountChargeState 46
scalar OsgEarthNet.uav[59] utilizationCountOverdrawnAfterMission 0
scalar OsgEarthNet.uav[59] utilizationCountIdleState 46
scalar OsgEarthNet.uav[59] utilizationFail 0
scalar OsgEarthNet.uav[59] simulationTime 259200
scalar OsgEarthNet.uav[60] utilizationSecMission 760.62515258028
scalar OsgEarthNet.uav[60] utilizationSecMaintenance 291.95923480269
scalar OsgEarthNet.uav[60] utilizationSecCharge 3760
scalar OsgEarthNet.uav[60] utilizationSecIdle 254387.41461262
scalar OsgEarthNet.uav[60] utilizationEnergyMission 3304.6095657349
scalar OsgEarthNet.uav[60] utilizationEnergyMaintenance 1430.632774353
scalar OsgEarthNet.uav[60] utilizationEnergyCharge 4735.2407226562
scalar OsgEarthNet.uav[60] utilizationEnergyOverdrawMission 0
scalar OsgEarthNet.uav[60] utilizationEnergyOverdrawMaintenance 0
scalar OsgEarthNet.uav[60] utilizationCountMissions 1
scalar OsgEarthNet.uav[60] utilizationCountManeuversMission 12
scalar OsgEarthNet.uav[60] utilizationCountManeuversMaintenance 2
scalar OsgEarthNet.uav[60] utilizationCountChargeState 1
scalar OsgEarthNet.uav[60] utilizationCountOverdrawnAfterMission 0
scalar OsgEarthNet.uav[60] utilizationCountIdleState 2
scalar OsgEarthNet.uav[60] utilizationFail 0
scalar OsgEarthNet.uav[60] simulationTime 259200
scalar OsgEarthNet.uav[61] utilizationSecMission 454.19906291044
scalar OsgEarthNet.uav[61] utilizationSecMaintenance 531.61543982806
scalar OsgEarthNet.uav[61] utilizationSecCharge 3630
scalar OsgEarthNet.uav[61] utilizationSecIdle 254584.18449726
scalar OsgEarthNet.uav[61] utilizationEnergyMission 2093.3957672119
scalar OsgEarthNet.uav[61] utilizationEnergyMaintenance 2399.2641220093
scalar OsgEarthNet.uav[61] utilizationEnergyCharge 4492.6650390625
scalar OsgEarthNet.uav[61] utilizationEnergyOverdrawMission 0
scalar OsgEarthNet.uav[61] utilizationEnergyOverdrawMaintenance 0
scalar OsgEarthNet.uav[61] utilizationCountMissions 1
scalar OsgEarthNet.uav[61] utilizationCountManeuversMission 8
scalar OsgEarthNet.uav[61] utilizationCountManeuversMaintenance 2
scalar OsgEarthNet.uav[61] utilizationCountChargeState 1
scalar OsgEarthNet.uav[61] utilizationCountOverdrawnAfterMission 0
scalar OsgEarthNet.uav[61] utilizationCountIdleState 2
scalar OsgEarthNet.uav[61] utilizationFail 0
scalar OsgEarthNet.uav[61] simulationTime 259200
scalar OsgEarthNet.uav[62] utilizationSecMission 4493.1462800735
scalar OsgEarthNet.uav[62] utilizationSecMaintenance 2520.0424363798
scalar OsgEarthNet.uav[62] utilizationSecCharge 24032.099531494
scalar OsgEarthNet.uav[62] utilizationSecIdle 228154.71075205
scalar OsgEarthNet.uav[62] utilizationEnergyMission 20852.520957947
scalar OsgEarthNet.uav[62] utilizationEnergyMaintenance 11950.268756866
scalar OsgEarthNet.uav[62] utilizationEnergyCharge 30959.088134766
scalar OsgEarthNet.uav[62] utilizationEnergyOverdrawMission 0
scalar OsgEarthNet.uav[62] utilizationEnergyOverdrawMaintenance 0
scalar OsgEarthNet.uav[62] utilizationCountMissions 7
scalar OsgEarthNet.uav[62] utilizationCountManeuversMission 80
scalar OsgEarthNet.uav[62] utilizationCountManeuversMaintenance 14
scalar OsgEarthNet.uav[62] utilizationCountChargeState 7
scalar OsgEarthNet.uav[62] utilizationCountOverdrawnAfterMission 0
scalar OsgEarthNet.uav[62] utilizationCountIdleState 7
scalar OsgEarthNet.uav[62] utilizationFail 0
scalar OsgEarthNet.uav[62] simulationTime 259200
scalar OsgEarthNet.uav[63] utilizationSecMission 760.62515258028
scalar OsgEarthNet.uav[63] utilizationSecMaintenance 223.6438949726
scalar OsgEarthNet.uav[63] utilizationSecCharge 3680
scalar OsgEarthNet.uav[63] utilizationSecIdle 254535.72995245
scalar OsgEarthNet.uav[63] utilizationEnergyMission 3553.8496246338
scalar OsgEarthNet.uav[63] utilizationEnergyMaintenance 1063.2581291199
scalar OsgEarthNet.uav[63] utilizationEnergyCharge 4617.107421875
scalar OsgEarthNet.uav[63] utilizationEnergyOverdrawMission 0
scalar OsgEarthNet.uav[63] utilizationEnergyOverdrawMaintenance 0
scalar OsgEarthNet.uav[63] utilizationCountMissions 1
scalar OsgEarthNet.uav[63] utilizationCountManeuversMission 12
scalar OsgEarthNet.uav[63] utilizationCountManeuversMaintenance 2
scalar OsgEarthNet.uav[63] utilizationCountChargeState 1
scalar OsgEarthNet.uav[63] utilizationCountOverdrawnAfterMission 0
scalar OsgEarthNet.uav[63] utilizationCountIdleState 2
scalar OsgEarthNet.uav[63] utilizationFail 0
scalar OsgEarthNet.uav[63] simulationTime 259200
scalar OsgEarthNet.uav[64] utilizationSecMission 30271.328508526
scalar OsgEarthNet.uav[64] utilizationSecMaintenance 12146.479441012
scalar OsgEarthNet.uav[64] utilizationSecCharge 154194.04320389
scalar OsgEarthNet.uav[64] utilizationSecIdle 62588.147846568
scalar OsgEarthNet.uav[64] utilizationEnergyMission 140416.2622757
scalar OsgEarthNet.uav[64] utilizationEnergyMaintenance 56803.498558044
scalar OsgEarthNet.uav[64] utilizationEnergyCharge 194323.6027832
scalar OsgEarthNet.uav[64] utilizationEnergyOverdrawMission 0
scalar OsgEarthNet.uav[64] utilizationEnergyOverdrawMaintenance 0
scalar OsgEarthNet.uav[64] utilizationCountMissions 42
scalar OsgEarthNet.uav[64] utilizationCountManeuversMission 488
scalar OsgEarthNet.uav[64] utilizationCountManeuversMaintenance 84
scalar OsgEarthNet.uav[64] utilizationCountChargeState 42
scalar OsgEarthNet.uav[64] utilizationCountOverdrawnAfterMission 0
scalar OsgEarthNet.uav[64] utilizationCountIdleState 42
scalar OsgEarthNet.uav[64] utilizationFail 0
scalar OsgEarthNet.uav[64] simulationTime 259200
scalar OsgEarthNet.uav[65] utilizationSecMission 30052.834117989
scalar OsgEarthNet.uav[65] utilizationSecMaintenance 13864.328512896
scalar OsgEarthNet.uav[65] utilizationSecCharge 161990
scalar OsgEarthNet.uav[65] utilizationSecIdle 53292.836369116
scalar OsgEarthNet.uav[65] utilizationEnergyMission 138175.78024292
scalar OsgEarthNet.uav[65] utilizationEnergyMaintenance 63863.071994782
[...]
scalar OsgEarthNet.uav[82] utilizationSecIdle 254244.55207229
scalar OsgEarthNet.uav[82] utilizationEnergyMission 4054.8298187256
scalar OsgEarthNet.uav[82] utilizationEnergyMaintenance 773.62239837646
scalar OsgEarthNet.uav[82] utilizationEnergyCharge 5019.2036132812
scalar OsgEarthNet.uav[82] utilizationEnergyOverdrawMission 0
scalar OsgEarthNet.uav[82] utilizationEnergyOverdrawMaintenance 0
scalar OsgEarthNet.uav[82] utilizationCountMissions 1
scalar OsgEarthNet.uav[82] utilizationCountManeuversMission 14
scalar OsgEarthNet.uav[82] utilizationCountManeuversMaintenance 2
scalar OsgEarthNet.uav[82] utilizationCountChargeState 1
scalar OsgEarthNet.uav[82] utilizationCountOverdrawnAfterMission 0
scalar OsgEarthNet.uav[82] utilizationCountIdleState 2
scalar OsgEarthNet.uav[82] utilizationFail 0
scalar OsgEarthNet.uav[82] simulationTime 259200
scalar OsgEarthNet.uav[83] utilizationSecMission 30305.77344527
scalar OsgEarthNet.uav[83] utilizationSecMaintenance 11834.846979974
scalar OsgEarthNet.uav[83] utilizationSecCharge 155420
scalar OsgEarthNet.uav[83] utilizationSecIdle 61639.378574757
scalar OsgEarthNet.uav[83] utilizationEnergyMission 139085.16235352
scalar OsgEarthNet.uav[83] utilizationEnergyMaintenance 55245.548103333
scalar OsgEarthNet.uav[83] utilizationEnergyCharge 194724.36425781
scalar OsgEarthNet.uav[83] utilizationEnergyOverdrawMission 0
scalar OsgEarthNet.uav[83] utilizationEnergyOverdrawMaintenance 0
scalar OsgEarthNet.uav[83] utilizationCountMissions 42
scalar OsgEarthNet.uav[83] utilizationCountManeuversMission 484
scalar OsgEarthNet.uav[83] utilizationCountManeuversMaintenance 83
scalar OsgEarthNet.uav[83] utilizationCountChargeState 42
scalar OsgEarthNet.uav[83] utilizationCountOverdrawnAfterMission 0
scalar OsgEarthNet.uav[83] utilizationCountIdleState 43
scalar OsgEarthNet.uav[83] utilizationFail 0
scalar OsgEarthNet.uav[83] simulationTime 259200
scalar OsgEarthNet.uav[84] utilizationSecMission 29934.58908678
scalar OsgEarthNet.uav[84] utilizationSecMaintenance 14317.15554874
scalar OsgEarthNet.uav[84] utilizationSecCharge 163869.90175722
scalar OsgEarthNet.uav[84] utilizationSecIdle 51078.352607263
scalar OsgEarthNet.uav[84] utilizationEnergyMission 138137.67374802
scalar OsgEarthNet.uav[84] utilizationEnergyMaintenance 67569.941547394
scalar OsgEarthNet.uav[84] utilizationEnergyCharge 205614.16381836
scalar OsgEarthNet.uav[84] utilizationEnergyOverdrawMission 0
scalar OsgEarthNet.uav[84] utilizationEnergyOverdrawMaintenance 0
scalar OsgEarthNet.uav[84] utilizationCountMissions 45
scalar OsgEarthNet.uav[84] utilizationCountManeuversMission 504
scalar OsgEarthNet.uav[84] utilizationCountManeuversMaintenance 90
scalar OsgEarthNet.uav[84] utilizationCountChargeState 45
scalar OsgEarthNet.uav[84] utilizationCountOverdrawnAfterMission 0
scalar OsgEarthNet.uav[84] utilizationCountIdleState 45
scalar OsgEarthNet.uav[84] utilizationFail 0
scalar OsgEarthNet.uav[84] simulationTime 259200
scalar OsgEarthNet.uav[85] utilizationSecMission 887.1741082606
scalar OsgEarthNet.uav[85] utilizationSecMaintenance 171.13387461676
scalar OsgEarthNet.uav[85] utilizationSecCharge 3880
scalar OsgEarthNet.uav[85] utilizationSecIdle 254261.69101712
scalar OsgEarthNet.uav[85] utilizationEnergyMission 3879.261932373
scalar OsgEarthNet.uav[85] utilizationEnergyMaintenance 861.60369110107
scalar OsgEarthNet.uav[85] utilizationEnergyCharge 4930.673828125
scalar OsgEarthNet.uav[85] utilizationEnergyOverdrawMission 0
scalar OsgEarthNet.uav[85] utilizationEnergyOverdrawMaintenance 0
scalar OsgEarthNet.uav[85] utilizationCountMissions 1
scalar OsgEarthNet.uav[85] utilizationCountManeuversMission 14
scalar OsgEarthNet.uav[85] utilizationCountManeuversMaintenance 2
scalar OsgEarthNet.uav[85] utilizationCountChargeState 1
scalar OsgEarthNet.uav[85] utilizationCountOverdrawnAfterMission 0
scalar OsgEarthNet.uav[85] utilizationCountIdleState 2
scalar OsgEarthNet.uav[85] utilizationFail 0
scalar OsgEarthNet.uav[85] simulationTime 259200
scalar OsgEarthNet.uav[86] utilizationSecMission 664.13705230755
scalar OsgEarthNet.uav[86] utilizationSecMaintenance 395.66948748195
scalar OsgEarthNet.uav[86] utilizationSecCharge 3970
scalar OsgEarthNet.uav[86] utilizationSecIdle 254170.19246021
scalar OsgEarthNet.uav[86] utilizationEnergyMission 2949.7041168213
scalar OsgEarthNet.uav[86] utilizationEnergyMaintenance 1853.8976707459
scalar OsgEarthNet.uav[86] utilizationEnergyCharge 5058.7749023438
scalar OsgEarthNet.uav[86] utilizationEnergyOverdrawMission 0
scalar OsgEarthNet.uav[86] utilizationEnergyOverdrawMaintenance 0
scalar OsgEarthNet.uav[86] utilizationCountMissions 1
scalar OsgEarthNet.uav[86] utilizationCountManeuversMission 10
scalar OsgEarthNet.uav[86] utilizationCountManeuversMaintenance 2
scalar OsgEarthNet.uav[86] utilizationCountChargeState 1
scalar OsgEarthNet.uav[86] utilizationCountOverdrawnAfterMission 0
scalar OsgEarthNet.uav[86] utilizationCountIdleState 2
scalar OsgEarthNet.uav[86] utilizationFail 0
scalar OsgEarthNet.uav[86] simulationTime 259200
scalar OsgEarthNet.uav[87] utilizationSecMission 26717.548458258
scalar OsgEarthNet.uav[87] utilizationSecMaintenance 14823.903702756
scalar OsgEarthNet.uav[87] utilizationSecCharge 153440
scalar OsgEarthNet.uav[87] utilizationSecIdle 64218.546838986
scalar OsgEarthNet.uav[87] utilizationEnergyMission 122193.38665009
scalar OsgEarthNet.uav[87] utilizationEnergyMaintenance 69155.504684448
scalar OsgEarthNet.uav[87] utilizationEnergyCharge 191167.94726562
scalar OsgEarthNet.uav[87] utilizationEnergyOverdrawMission 0
scalar OsgEarthNet.uav[87] utilizationEnergyOverdrawMaintenance 0
scalar OsgEarthNet.uav[87] utilizationCountMissions 42
scalar OsgEarthNet.uav[87] utilizationCountManeuversMission 445
scalar OsgEarthNet.uav[87] utilizationCountManeuversMaintenance 84
scalar OsgEarthNet.uav[87] utilizationCountChargeState 42
scalar OsgEarthNet.uav[87] utilizationCountOverdrawnAfterMission 0
scalar OsgEarthNet.uav[87] utilizationCountIdleState 43
scalar OsgEarthNet.uav[87] utilizationFail 0
scalar OsgEarthNet.uav[87] simulationTime 259200
scalar OsgEarthNet.uav[88] utilizationSecMission 887.1741082606
scalar OsgEarthNet.uav[88] utilizationSecMaintenance 148.2728194454
scalar OsgEarthNet.uav[88] utilizationSecCharge 3790
scalar OsgEarthNet.uav[88] utilizationSecIdle 254374.55207229
scalar OsgEarthNet.uav[88] utilizationEnergyMission 4300.946762085
scalar OsgEarthNet.uav[88] utilizationEnergyMaintenance 629.97052764892
scalar OsgEarthNet.uav[88] utilizationEnergyCharge 4808.3349609375
scalar OsgEarthNet.uav[88] utilizationEnergyOverdrawMission 0
scalar OsgEarthNet.uav[88] utilizationEnergyOverdrawMaintenance 0
scalar OsgEarthNet.uav[88] utilizationCountMissions 1
scalar OsgEarthNet.uav[88] utilizationCountManeuversMission 14
scalar OsgEarthNet.uav[88] utilizationCountManeuversMaintenance 2
scalar OsgEarthNet.uav[88] utilizationCountChargeState 1
scalar OsgEarthNet.uav[88] utilizationCountOverdrawnAfterMission 0
scalar OsgEarthNet.uav[88] utilizationCountIdleState 2
scalar OsgEarthNet.uav[88] utilizationFail 0
scalar OsgEarthNet.uav[88] simulationTime 259200
scalar OsgEarthNet.uav[89] utilizationSecMission 25983.815051962
scalar OsgEarthNet.uav[89] utilizationSecMaintenance 15536.951082427
scalar OsgEarthNet.uav[89] utilizationSecCharge 153539.91575212
scalar OsgEarthNet.uav[89] utilizationSecIdle 64139.317113489
scalar OsgEarthNet.uav[89] utilizationEnergyMission 120002.13679504
scalar OsgEarthNet.uav[89] utilizationEnergyMaintenance 73152.310890198
scalar OsgEarthNet.uav[89] utilizationEnergyCharge 192660.25097656
scalar OsgEarthNet.uav[89] utilizationEnergyOverdrawMission 0
scalar OsgEarthNet.uav[89] utilizationEnergyOverdrawMaintenance 0
scalar OsgEarthNet.uav[89] utilizationCountMissions 42
scalar OsgEarthNet.uav[89] utilizationCountManeuversMission 433
scalar OsgEarthNet.uav[89] utilizationCountManeuversMaintenance 84
scalar OsgEarthNet.uav[89] utilizationCountChargeState 42
scalar OsgEarthNet.uav[89] utilizationCountOverdrawnAfterMission 0
scalar OsgEarthNet.uav[89] utilizationCountIdleState 42
scalar OsgEarthNet.uav[89] utilizationFail 0
scalar OsgEarthNet.uav[89] simulationTime 259200
scalar OsgEarthNet.uav[90] utilizationSecMission 750.20472747826
scalar OsgEarthNet.uav[90] utilizationSecMaintenance 335.16822070369
scalar OsgEarthNet.uav[90] utilizationSecCharge 3840
scalar OsgEarthNet.uav[90] utilizationSecIdle 254274.62605182
scalar OsgEarthNet.uav[90] utilizationEnergyMission 3346.1016235352
scalar OsgEarthNet.uav[90] utilizationEnergyMaintenance 1514.8742790222
scalar OsgEarthNet.uav[90] utilizationEnergyCharge 4860.9765625
scalar OsgEarthNet.uav[90] utilizationEnergyOverdrawMission 0
scalar OsgEarthNet.uav[90] utilizationEnergyOverdrawMaintenance 0
scalar OsgEarthNet.uav[90] utilizationCountMissions 1
scalar OsgEarthNet.uav[90] utilizationCountManeuversMission 11
scalar OsgEarthNet.uav[90] utilizationCountManeuversMaintenance 2
scalar OsgEarthNet.uav[90] utilizationCountChargeState 1
scalar OsgEarthNet.uav[90] utilizationCountOverdrawnAfterMission 0
scalar OsgEarthNet.uav[90] utilizationCountIdleState 2
scalar OsgEarthNet.uav[90] utilizationFail 0
scalar OsgEarthNet.uav[90] simulationTime 259200
scalar OsgEarthNet.uav[91] utilizationSecMission 29819.951381156
scalar OsgEarthNet.uav[91] utilizationSecMaintenance 10619.933113862
scalar OsgEarthNet.uav[91] utilizationSecCharge 147510
scalar OsgEarthNet.uav[91] utilizationSecIdle 71250.114504981
scalar OsgEarthNet.uav[91] utilizationEnergyMission 138954.60524445
scalar OsgEarthNet.uav[91] utilizationEnergyMaintenance 49943.525295258
scalar OsgEarthNet.uav[91] utilizationEnergyCharge 184797.28759766
scalar OsgEarthNet.uav[91] utilizationEnergyOverdrawMission 0
scalar OsgEarthNet.uav[91] utilizationEnergyOverdrawMaintenance 0
scalar OsgEarthNet.uav[91] utilizationCountMissions 40
scalar OsgEarthNet.uav[91] utilizationCountManeuversMission 472
scalar OsgEarthNet.uav[91] utilizationCountManeuversMaintenance 81
scalar OsgEarthNet.uav[91] utilizationCountChargeState 40
scalar OsgEarthNet.uav[91] utilizationCountOverdrawnAfterMission 0
scalar OsgEarthNet.uav[91] utilizationCountIdleState 41
scalar OsgEarthNet.uav[91] utilizationFail 0
scalar OsgEarthNet.uav[91] simulationTime 259200
scalar OsgEarthNet.uav[92] utilizationSecMission 694.00169469977
scalar OsgEarthNet.uav[92] utilizationSecMaintenance 338.49695459722
scalar OsgEarthNet.uav[92] utilizationSecCharge 3600
scalar OsgEarthNet.uav[92] utilizationSecIdle 254567.5003507
scalar OsgEarthNet.uav[92] utilizationEnergyMission 2986.9001693726
scalar OsgEarthNet.uav[92] utilizationEnergyMaintenance 1474.8261222839
scalar OsgEarthNet.uav[92] utilizationEnergyCharge 4461.724609375
scalar OsgEarthNet.uav[92] utilizationEnergyOverdrawMission 0
scalar OsgEarthNet.uav[92] utilizationEnergyOverdrawMaintenance 0
scalar OsgEarthNet.uav[92] utilizationCountMissions 1
scalar OsgEarthNet.uav[92] utilizationCountManeuversMission 13
scalar OsgEarthNet.uav[92] utilizationCountManeuversMaintenance 2
scalar OsgEarthNet.uav[92] utilizationCountChargeState 1
scalar OsgEarthNet.uav[92] utilizationCountOverdrawnAfterMission 0
scalar OsgEarthNet.uav[92] utilizationCountIdleState 2
scalar OsgEarthNet.uav[92] utilizationFail 0
scalar OsgEarthNet.uav[92] simulationTime 259200
scalar OsgEarthNet.uav[93] utilizationSecMission 1703.6513136837
scalar OsgEarthNet.uav[93] utilizationSecMaintenance 1276.4895684328
scalar OsgEarthNet.uav[93] utilizationSecCharge 10980
scalar OsgEarthNet.uav[93] utilizationSecIdle 245239.85811788
scalar OsgEarthNet.uav[93] utilizationEnergyMission 7823.2437591553
scalar OsgEarthNet.uav[93] utilizationEnergyMaintenance 5865.1196632385
scalar OsgEarthNet.uav[93] utilizationEnergyCharge 13688.355957031
scalar OsgEarthNet.uav[93] utilizationEnergyOverdrawMission 0
scalar OsgEarthNet.uav[93] utilizationEnergyOverdrawMaintenance 0
scalar OsgEarthNet.uav[93] utilizationCountMissions 3
scalar OsgEarthNet.uav[93] utilizationCountManeuversMission 28
scalar OsgEarthNet.uav[93] utilizationCountManeuversMaintenance 6
scalar OsgEarthNet.uav[93] utilizationCountChargeState 3
scalar OsgEarthNet.uav[93] utilizationCountOverdrawnAfterMission 0
scalar OsgEarthNet.uav[93] utilizationCountIdleState 4
scalar OsgEarthNet.uav[93] utilizationFail 0
scalar OsgEarthNet.uav[93] simulationTime 259200
scalar OsgEarthNet.uav[94] utilizationSecMission 21224.176011825
scalar OsgEarthNet.uav[94] utilizationSecMaintenance 8872.239256878
scalar OsgEarthNet.uav[94] utilizationSecCharge 111576.92164195
scalar OsgEarthNet.uav[94] utilizationSecIdle 117526.66208934
scalar OsgEarthNet.uav[94] utilizationEnergyMission 99196.140190124
scalar OsgEarthNet.uav[94] utilizationEnergyMaintenance 41435.110710144
scalar OsgEarthNet.uav[94] utilizationEnergyCharge 140171.78857422
scalar OsgEarthNet.uav[94] utilizationEnergyOverdrawMission 0
scalar OsgEarthNet.uav[94] utilizationEnergyOverdrawMaintenance 0
scalar OsgEarthNet.uav[94] utilizationCountMissions 30
scalar OsgEarthNet.uav[94] utilizationCountManeuversMission 344
scalar OsgEarthNet.uav[94] utilizationCountManeuversMaintenance 60
scalar OsgEarthNet.uav[94] utilizationCountChargeState 30
scalar OsgEarthNet.uav[94] utilizationCountOverdrawnAfterMission 0
scalar OsgEarthNet.uav[94] utilizationCountIdleState 30
scalar OsgEarthNet.uav[94] utilizationFail 0
scalar OsgEarthNet.uav[94] simulationTime 259200
scalar OsgEarthNet.uav[95] utilizationSecMission 3975.0033131989
scalar OsgEarthNet.uav[95] utilizationSecMaintenance 2641.8616803004
scalar OsgEarthNet.uav[95] utilizationSecCharge 25260
scalar OsgEarthNet.uav[95] utilizationSecIdle 227323.1340065
scalar OsgEarthNet.uav[95] utilizationEnergyMission 18613.515106201
scalar OsgEarthNet.uav[95] utilizationEnergyMaintenance 12555.067352295
scalar OsgEarthNet.uav[95] utilizationEnergyCharge 31181.958496094
scalar OsgEarthNet.uav[95] utilizationEnergyOverdrawMission 0
scalar OsgEarthNet.uav[95] utilizationEnergyOverdrawMaintenance 0
scalar OsgEarthNet.uav[95] utilizationCountMissions 7
scalar OsgEarthNet.uav[95] utilizationCountManeuversMission 64
scalar OsgEarthNet.uav[95] utilizationCountManeuversMaintenance 14
scalar OsgEarthNet.uav[95] utilizationCountChargeState 7
scalar OsgEarthNet.uav[95] utilizationCountOverdrawnAfterMission 0
scalar OsgEarthNet.uav[95] utilizationCountIdleState 8
scalar OsgEarthNet.uav[95] utilizationFail 0
scalar OsgEarthNet.uav[95] simulationTime 259200
scalar OsgEarthNet.uav[96] utilizationSecMission 4596.5923367525
scalar OsgEarthNet.uav[96] utilizationSecMaintenance 3283.7357564631
scalar OsgEarthNet.uav[96] utilizationSecCharge 29330
scalar OsgEarthNet.uav[96] utilizationSecIdle 221989.67090678
scalar OsgEarthNet.uav[96] utilizationEnergyMission 21353.929084778
scalar OsgEarthNet.uav[96] utilizationEnergyMaintenance 15213.534545898
scalar OsgEarthNet.uav[96] utilizationEnergyCharge 36575.190673828
scalar OsgEarthNet.uav[96] utilizationEnergyOverdrawMission 0
scalar OsgEarthNet.uav[96] utilizationEnergyOverdrawMaintenance 0
scalar OsgEarthNet.uav[96] utilizationCountMissions 8
scalar OsgEarthNet.uav[96] utilizationCountManeuversMission 74
scalar OsgEarthNet.uav[96] utilizationCountManeuversMaintenance 16
scalar OsgEarthNet.uav[96] utilizationCountChargeState 8
scalar OsgEarthNet.uav[96] utilizationCountOverdrawnAfterMission 0
scalar OsgEarthNet.uav[96] utilizationCountIdleState 9
scalar OsgEarthNet.uav[96] utilizationFail 0
scalar OsgEarthNet.uav[96] simulationTime 259200
scalar OsgEarthNet.uav[97] utilizationSecMission 24255.306979597
scalar OsgEarthNet.uav[97] utilizationSecMaintenance 13244.519376473
scalar OsgEarthNet.uav[97] utilizationSecCharge 139810
scalar OsgEarthNet.uav[97] utilizationSecIdle 81890.17264393
scalar OsgEarthNet.uav[97] utilizationEnergyMission 112267.44533539
scalar OsgEarthNet.uav[97] utilizationEnergyMaintenance 62928.411291537
scalar OsgEarthNet.uav[97] utilizationEnergyCharge 175024.82763672
scalar OsgEarthNet.uav[97] utilizationEnergyOverdrawMission 0
scalar OsgEarthNet.uav[97] utilizationEnergyOverdrawMaintenance 0
scalar OsgEarthNet.uav[97] utilizationCountMissions 38
scalar OsgEarthNet.uav[97] utilizationCountManeuversMission 387
scalar OsgEarthNet.uav[97] utilizationCountManeuversMaintenance 77
scalar OsgEarthNet.uav[97] utilizationCountChargeState 38
scalar OsgEarthNet.uav[97] utilizationCountOverdrawnAfterMission 0
scalar OsgEarthNet.uav[97] utilizationCountIdleState 37
scalar OsgEarthNet.uav[97] utilizationFail 0
scalar OsgEarthNet.uav[97] simulationTime 259200
scalar OsgEarthNet.uav[98] utilizationSecMission 18350.009470343
scalar OsgEarthNet.uav[98] utilizationSecMaintenance 10604.401023544
scalar OsgEarthNet.uav[98] utilizationSecCharge 106610
scalar OsgEarthNet.uav[98] utilizationSecIdle 123635.58850611
scalar OsgEarthNet.uav[98] utilizationEnergyMission 83625.395118713
scalar OsgEarthNet.uav[98] utilizationEnergyMaintenance 49995.319179535
scalar OsgEarthNet.uav[98] utilizationEnergyCharge 133428.28686523
scalar OsgEarthNet.uav[98] utilizationEnergyOverdrawMission 0
scalar OsgEarthNet.uav[98] utilizationEnergyOverdrawMaintenance 0
scalar OsgEarthNet.uav[98] utilizationCountMissions 29
scalar OsgEarthNet.uav[98] utilizationCountManeuversMission 299
scalar OsgEarthNet.uav[98] utilizationCountManeuversMaintenance 58
scalar OsgEarthNet.uav[98] utilizationCountChargeState 29
scalar OsgEarthNet.uav[98] utilizationCountOverdrawnAfterMission 0
scalar OsgEarthNet.uav[98] utilizationCountIdleState 30
scalar OsgEarthNet.uav[98] utilizationFail 0
scalar OsgEarthNet.uav[98] simulationTime 259200
scalar OsgEarthNet.uav[99] utilizationSecMission 26731.277509349
scalar OsgEarthNet.uav[99] utilizationSecMaintenance 14995.610177017
scalar OsgEarthNet.uav[99] utilizationSecCharge 151202.55051647
scalar OsgEarthNet.uav[99] utilizationSecIdle 66270.560797166
scalar OsgEarthNet.uav[99] utilizationEnergyMission 123025.50685883
scalar OsgEarthNet.uav[99] utilizationEnergyMaintenance 69991.787067413
scalar OsgEarthNet.uav[99] utilizationEnergyCharge 189250.98596191
scalar OsgEarthNet.uav[99] utilizationEnergyOverdrawMission 0
scalar OsgEarthNet.uav[99] utilizationEnergyOverdrawMaintenance 0
scalar OsgEarthNet.uav[99] utilizationCountMissions 42
scalar OsgEarthNet.uav[99] utilizationCountManeuversMission 440
scalar OsgEarthNet.uav[99] utilizationCountManeuversMaintenance 84
scalar OsgEarthNet.uav[99] utilizationCountChargeState 42
scalar OsgEarthNet.uav[99] utilizationCountOverdrawnAfterMission 0
scalar OsgEarthNet.uav[99] utilizationCountIdleState 42
scalar OsgEarthNet.uav[99] utilizationFail 0
scalar OsgEarthNet.uav[99] simulationTime 259200
scalar OsgEarthNet.cs[0] usedPower 559051.52224637
scalar OsgEarthNet.cs[0] chargedPower 559051.52224637
scalar OsgEarthNet.cs[0] chargedMobileNodes 116
scalar OsgEarthNet.cs[0] reservations 120
scalar OsgEarthNet.cs[1] usedPower 1129853.8072022
scalar OsgEarthNet.cs[1] chargedPower 1129853.8072022
scalar OsgEarthNet.cs[1] chargedMobileNodes 241
scalar OsgEarthNet.cs[1] reservations 243
scalar OsgEarthNet.cs[2] usedPower 2696713.3251724
scalar OsgEarthNet.cs[2] chargedPower 2696713.3251724
scalar OsgEarthNet.cs[2] chargedMobileNodes 569
scalar OsgEarthNet.cs[2] reservations 579
scalar OsgEarthNet.cs[3] usedPower 775578.49421733
scalar OsgEarthNet.cs[3] chargedPower 775578.49421733
scalar OsgEarthNet.cs[3] chargedMobileNodes 175
scalar OsgEarthNet.cs[3] reservations 176
scalar OsgEarthNet.cs[4] usedPower 747426.30325939
scalar OsgEarthNet.cs[4] chargedPower 747426.30325939
scalar OsgEarthNet.cs[4] chargedMobileNodes 164
scalar OsgEarthNet.cs[4] reservations 167
scalar OsgEarthNet.cs[5] usedPower 462137.55811531
scalar OsgEarthNet.cs[5] chargedPower 462137.55811531
scalar OsgEarthNet.cs[5] chargedMobileNodes 96
scalar OsgEarthNet.cs[5] reservations 98
scalar OsgEarthNet.cs[6] usedPower 2385037.9146568
scalar OsgEarthNet.cs[6] chargedPower 2385037.9146568
scalar OsgEarthNet.cs[6] chargedMobileNodes 522
scalar OsgEarthNet.cs[6] reservations 530

