version 2
run Szenario_Hotel_Gabelbach-64-20180709-02:07:13-18928
attr configname Szenario_Hotel_Gabelbach
attr datetime 20180709-02:07:13
attr experiment Szenario_Hotel_Gabelbach
attr inifile omnetpp.ini
attr iterationvars $replM=2
attr iterationvarsf replM=2-
attr measurement $replM=2
attr network OsgEarthNet
attr processid 18928
attr repetition 16
attr replication #16
attr resultdir results
attr runnumber 64
attr seedset 64
itervar replM 2
param *.osgEarthScene.scene "\"Szenario_Hotel_Gabelbach.earth\""
param *.playgroundLatitude 50.6830269
param *.playgroundLongitude 10.8538055
param *.playgroundWidth 3500m
param *.playgroundHeight 3500m
param *.numUAVs 100
param *.cs[0].posX 3537m
param *.cs[0].posY 965m
param *.cs[0].posZ 538m
param *.cs[1].posX 312m
param *.cs[1].posY 1262m
param *.cs[1].posZ 539m
param *.cs[2].posX 2185m
param *.cs[2].posY 3026m
param *.cs[2].posZ 777m
param *.cs[3].posX 10m
param *.cs[3].posY 2200m
param *.cs[3].posZ 560m
param *.cs[4].posX 750m
param *.cs[4].posY 200m
param *.cs[4].posZ 540m
param *.cs[5].posX 2450m
param *.cs[5].posY 180m
param *.cs[5].posZ 524m
param *.cs[6].posX 3140m
param *.cs[6].posY 1790m
param *.cs[6].posZ 606m
param *.numCSs 7
param *.uav[*].replacementMethod 2
param *.*.timeStep 10s
param *.uav[*].commandPreviewCommandCount 20
param *.missionControl.missionFiles "\"missions\\\\Szenario_WB_Hotel_Gabelbach_Mission_Hotel.waypoints,missions\\\\Szenario_WB_Hotel_Gabelbach_Mission_Kickelhahn.waypoints,missions\\\\Szenario_WB_Hotel_Gabelbach_Mission_Ilmenau_Sportplatz.waypoints,missions\\\\Szenario_WB_Hotel_Gabelbach_Mission_Manebach_Mitte.waypoints,missions\\\\Szenario_WB_Hotel_Gabelbach_Mission_Manebach_Sued.waypoints\""
param *.missionControl.missionFiles "\"missions\\\\Szenario_WB_Hotel_Gabelbach_Mission_Hotel.waypoints,missions\\\\Szenario_WB_Hotel_Gabelbach_Mission_Kickelhahn.waypoints,missions\\\\Szenario_WB_Hotel_Gabelbach_Mission_Ilmenau_Sportplatz.waypoints,missions\\\\Szenario_WB_Hotel_Gabelbach_Mission_Manebach_Mitte.waypoints,missions\\\\Szenario_WB_Hotel_Gabelbach_Mission_Manebach_Sued.waypoints,missions\\\\Szenario_WB_Hotel_Gabelbach_Hover_HoheSchlaufe.waypoints,missions\\\\Szenario_WB_Hotel_Gabelbach_Hover_Kickelhahn.waypoints,missions\\\\Szenario_WB_Hotel_Gabelbach_Hover_Gabelbachskopf.waypoints,missions\\\\Szenario_WB_Hotel_Gabelbach_Hover_Dachskopf.waypoints\""
param *.uav[0].startX 3537m
param *.uav[0].startY 965m
param *.uav[0].startZ 539m
param *.uav[1].startX 312m
param *.uav[1].startY 1262m
param *.uav[1].startZ 540m
param *.uav[2].startX 2185m
param *.uav[2].startY 3026m
param *.uav[2].startZ 778m
param *.uav[3].startX 3537m
param *.uav[3].startY 965m
param *.uav[3].startZ 539m
param *.uav[4].startX 312m
param *.uav[4].startY 1262m
param *.uav[4].startZ 540m
param *.uav[5].startX 2185m
param *.uav[5].startY 3026m
param *.uav[5].startZ 778m
param *.uav[6].startX 3537m
param *.uav[6].startY 965m
param *.uav[6].startZ 539m
param *.uav[7].startX 312m
param *.uav[7].startY 1262m
param *.uav[7].startZ 540m
param *.uav[8].startX 2185m
param *.uav[8].startY 3026m
param *.uav[8].startZ 778m
param *.uav[9].startX 3537m
param *.uav[9].startY 965m
param *.uav[9].startZ 539m
param *.uav[10].startX 3537m
param *.uav[10].startY 965m
param *.uav[10].startZ 539m
param *.uav[11].startX 312m
param *.uav[11].startY 1262m
param *.uav[11].startZ 540m
param *.uav[12].startX 2185m
param *.uav[12].startY 3026m
param *.uav[12].startZ 778m
param *.uav[13].startX 3537m
param *.uav[13].startY 965m
param *.uav[13].startZ 539m
param *.uav[14].startX 312m
param *.uav[14].startY 1262m
param *.uav[14].startZ 540m
param *.uav[15].startX 2185m
param *.uav[15].startY 3026m
param *.uav[15].startZ 778m
param *.uav[16].startX 3537m
param *.uav[16].startY 965m
param *.uav[16].startZ 539m
param *.uav[17].startX 312m
param *.uav[17].startY 1262m
param *.uav[17].startZ 540m
param *.uav[18].startX 2185m
param *.uav[18].startY 3026m
param *.uav[18].startZ 778m
param *.uav[19].startX 3537m
param *.uav[19].startY 965m
param *.uav[19].startZ 539m
param *.uav[20].startX 3537m
param *.uav[20].startY 965m
param *.uav[20].startZ 539m
param *.uav[21].startX 312m
param *.uav[21].startY 1262m
param *.uav[21].startZ 540m
param *.uav[22].startX 2185m
param *.uav[22].startY 3026m
param *.uav[22].startZ 778m
param *.uav[23].startX 3537m
param *.uav[23].startY 965m
param *.uav[23].startZ 539m
param *.uav[24].startX 312m
param *.uav[24].startY 1262m
param *.uav[24].startZ 540m
param *.uav[25].startX 2185m
param *.uav[25].startY 3026m
param *.uav[25].startZ 778m
param *.uav[26].startX 3537m
param *.uav[26].startY 965m
param *.uav[26].startZ 539m
param *.uav[27].startX 312m
param *.uav[27].startY 1262m
param *.uav[27].startZ 540m
param *.uav[28].startX 2185m
param *.uav[28].startY 3026m
param *.uav[28].startZ 778m
param *.uav[29].startX 3537m
param *.uav[29].startY 965m
param *.uav[29].startZ 539m
param *.uav[30].startX 3537m
param *.uav[30].startY 965m
param *.uav[30].startZ 539m
param *.uav[31].startX 312m
param *.uav[31].startY 1262m
param *.uav[31].startZ 540m
param *.uav[32].startX 2185m
param *.uav[32].startY 3026m
param *.uav[32].startZ 778m
param *.uav[33].startX 3537m
param *.uav[33].startY 965m
param *.uav[33].startZ 539m
param *.uav[34].startX 312m
param *.uav[34].startY 1262m
param *.uav[34].startZ 540m
param *.uav[35].startX 2185m
param *.uav[35].startY 3026m
param *.uav[35].startZ 778m
param *.uav[36].startX 3537m
param *.uav[36].startY 965m
param *.uav[36].startZ 539m
param *.uav[37].startX 312m
param *.uav[37].startY 1262m
param *.uav[37].startZ 540m
param *.uav[38].startX 2185m
param *.uav[38].startY 3026m
param *.uav[38].startZ 778m
param *.uav[39].startX 3537m
param *.uav[39].startY 965m
param *.uav[39].startZ 539m
param *.uav[40].startX 3537m
param *.uav[40].startY 965m
param *.uav[40].startZ 539m
param *.uav[41].startX 312m
param *.uav[41].startY 1262m
param *.uav[41].startZ 540m
param *.uav[42].startX 2185m
param *.uav[42].startY 3026m
param *.uav[42].startZ 778m
param *.uav[43].startX 3537m
param *.uav[43].startY 965m
param *.uav[43].startZ 539m
param *.uav[44].startX 312m
param *.uav[44].startY 1262m
param *.uav[44].startZ 540m
param *.uav[45].startX 2185m
param *.uav[45].startY 3026m
param *.uav[45].startZ 778m
param *.uav[46].startX 3537m
param *.uav[46].startY 965m
param *.uav[46].startZ 539m
param *.uav[47].startX 312m
param *.uav[47].startY 1262m
param *.uav[47].startZ 540m
param *.uav[48].startX 2185m
param *.uav[48].startY 3026m
param *.uav[48].startZ 778m
param *.uav[49].startX 3537m
param *.uav[49].startY 965m
param *.uav[49].startZ 539m
param *.uav[50].startX 3537m
param *.uav[50].startY 965m
param *.uav[50].startZ 539m
param *.uav[51].startX 312m
param *.uav[51].startY 1262m
param *.uav[51].startZ 540m
param *.uav[52].startX 2185m
param *.uav[52].startY 3026m
param *.uav[52].startZ 778m
param *.uav[53].startX 3537m
param *.uav[53].startY 965m
param *.uav[53].startZ 539m
param *.uav[54].startX 312m
param *.uav[54].startY 1262m
param *.uav[54].startZ 540m
param *.uav[55].startX 2185m
param *.uav[55].startY 3026m
param *.uav[55].startZ 778m
param *.uav[56].startX 3537m
param *.uav[56].startY 965m
param *.uav[56].startZ 539m
param *.uav[57].startX 312m
param *.uav[57].startY 1262m
param *.uav[57].startZ 540m
param *.uav[58].startX 2185m
param *.uav[58].startY 3026m
param *.uav[58].startZ 778m
param *.uav[59].startX 3537m
param *.uav[59].startY 965m
param *.uav[59].startZ 539m
param *.uav[60].startX 3537m
param *.uav[60].startY 965m
param *.uav[60].startZ 539m
param *.uav[61].startX 312m
param *.uav[61].startY 1262m
param *.uav[61].startZ 540m
param *.uav[62].startX 2185m
param *.uav[62].startY 3026m
param *.uav[62].startZ 778m
param *.uav[63].startX 3537m
param *.uav[63].startY 965m
param *.uav[63].startZ 539m
param *.uav[64].startX 312m
param *.uav[64].startY 1262m
param *.uav[64].startZ 540m
param *.uav[65].startX 2185m
param *.uav[65].startY 3026m
param *.uav[65].startZ 778m
param *.uav[66].startX 3537m
param *.uav[66].startY 965m
param *.uav[66].startZ 539m
param *.uav[67].startX 312m
param *.uav[67].startY 1262m
param *.uav[67].startZ 540m
param *.uav[68].startX 2185m
param *.uav[68].startY 3026m
param *.uav[68].startZ 778m
param *.uav[69].startX 3537m
param *.uav[69].startY 965m
param *.uav[69].startZ 539m
param *.uav[70].startX 3537m
param *.uav[70].startY 965m
param *.uav[70].startZ 539m
param *.uav[71].startX 312m
param *.uav[71].startY 1262m
param *.uav[71].startZ 540m
param *.uav[72].startX 2185m
param *.uav[72].startY 3026m
param *.uav[72].startZ 778m
param *.uav[73].startX 3537m
param *.uav[73].startY 965m
param *.uav[73].startZ 539m
param *.uav[74].startX 312m
param *.uav[74].startY 1262m
param *.uav[74].startZ 540m
param *.uav[75].startX 2185m
param *.uav[75].startY 3026m
param *.uav[75].startZ 778m
param *.uav[76].startX 3537m
param *.uav[76].startY 965m
param *.uav[76].startZ 539m
param *.uav[77].startX 312m
param *.uav[77].startY 1262m
param *.uav[77].startZ 540m
param *.uav[78].startX 2185m
param *.uav[78].startY 3026m
param *.uav[78].startZ 778m
param *.uav[79].startX 3537m
param *.uav[79].startY 965m
param *.uav[79].startZ 539m
param *.uav[80].startX 3537m
param *.uav[80].startY 965m
param *.uav[80].startZ 539m
param *.uav[81].startX 312m
param *.uav[81].startY 1262m
param *.uav[81].startZ 540m
param *.uav[82].startX 2185m
param *.uav[82].startY 3026m
param *.uav[82].startZ 778m
param *.uav[83].startX 3537m
param *.uav[83].startY 965m
param *.uav[83].startZ 539m
param *.uav[84].startX 312m
param *.uav[84].startY 1262m
param *.uav[84].startZ 540m
param *.uav[85].startX 2185m
param *.uav[85].startY 3026m
param *.uav[85].startZ 778m
param *.uav[86].startX 3537m
param *.uav[86].startY 965m
param *.uav[86].startZ 539m
param *.uav[87].startX 312m
param *.uav[87].startY 1262m
param *.uav[87].startZ 540m
param *.uav[88].startX 2185m
param *.uav[88].startY 3026m
param *.uav[88].startZ 778m
param *.uav[89].startX 3537m
param *.uav[89].startY 965m
param *.uav[89].startZ 539m
param *.uav[90].startX 3537m
param *.uav[90].startY 965m
param *.uav[90].startZ 539m
param *.uav[91].startX 312m
param *.uav[91].startY 1262m
param *.uav[91].startZ 540m
param *.uav[92].startX 2185m
param *.uav[92].startY 3026m
param *.uav[92].startZ 778m
param *.uav[93].startX 3537m
param *.uav[93].startY 965m
param *.uav[93].startZ 539m
param *.uav[94].startX 312m
param *.uav[94].startY 1262m
param *.uav[94].startZ 540m
param *.uav[95].startX 2185m
param *.uav[95].startY 3026m
param *.uav[95].startZ 778m
param *.uav[96].startX 3537m
param *.uav[96].startY 965m
param *.uav[96].startZ 539m
param *.uav[97].startX 312m
param *.uav[97].startY 1262m
param *.uav[97].startZ 540m
param *.uav[98].startX 2185m
param *.uav[98].startY 3026m
param *.uav[98].startZ 778m
param *.uav[99].startX 3537m
param *.uav[99].startY 965m
param *.uav[99].startZ 539m
param *.osgEarthScene.scene "\"boston.earth\""
param *.playgroundLatitude 42.3558
param *.playgroundLongitude -71.0677
param *.playgroundWidth 400m
param *.playgroundHeight 200m
param *.channelController.connectionColor "\"#0000FF40\""
param *.channelController.showConnections false
param *.uav[*].modelURL "\"quadrocopter.small.obj.15.scale.0,0,90.rot\""
param *.uav[*].labelColor "\"#FF7C00CC\""
param *.uav[*].label2Color "\"#FF7C00EE\""
param *.uav[*].batteryCapacity 5200mAh
param *.uav[*].batteryRemaining uav[index].batteryCapacity
param *.uav[*].predictionQuantile 0.95
param *.uav[*].replacementMethod 2
param *.uav[*].weightedSumWeight 0.5
param *.cs[*].modelURL "\"chargingstation_v1.osgt.2.scale.0,0,0.rot.0,0,-15e-1.trans\""
param *.cs[*].spotsWaiting 999
param *.cs[*].spotsCharging 999
param *.cs[*].chargeEffectivenessPercentage 100
param *.cs[*].nonLinearPhaseStartPercentage 85
param *.cs[*].chargeCurrent 6.0A
param *.cs[*].prioritizeFastCharge true
param *.missionControl.replacementSearchMethod 0
param *.*.timeStep 9s

scalar OsgEarthNet.uav[0] utilizationSecMission 760.62515258028
scalar OsgEarthNet.uav[0] utilizationSecMaintenance 291.95923480269
scalar OsgEarthNet.uav[0] utilizationSecCharge 3670
scalar OsgEarthNet.uav[0] utilizationSecIdle 254477.41461262
scalar OsgEarthNet.uav[0] utilizationEnergyMission 3222.9738464356
scalar OsgEarthNet.uav[0] utilizationEnergyMaintenance 1441.7917404175
scalar OsgEarthNet.uav[0] utilizationEnergyCharge 4664.7680664062
scalar OsgEarthNet.uav[0] utilizationEnergyOverdrawMission 0
scalar OsgEarthNet.uav[0] utilizationEnergyOverdrawMaintenance 0
scalar OsgEarthNet.uav[0] utilizationCountMissions 1
scalar OsgEarthNet.uav[0] utilizationCountManeuversMission 12
scalar OsgEarthNet.uav[0] utilizationCountManeuversMaintenance 2
scalar OsgEarthNet.uav[0] utilizationCountChargeState 1
scalar OsgEarthNet.uav[0] utilizationCountOverdrawnAfterMission 0
scalar OsgEarthNet.uav[0] utilizationCountIdleState 2
scalar OsgEarthNet.uav[0] utilizationFail 0
scalar OsgEarthNet.uav[0] simulationTime 259200
scalar OsgEarthNet.uav[1] utilizationSecMission 566.77865696645
scalar OsgEarthNet.uav[1] utilizationSecMaintenance 435.68252551324
scalar OsgEarthNet.uav[1] utilizationSecCharge 3820
scalar OsgEarthNet.uav[1] utilizationSecIdle 254377.53781752
scalar OsgEarthNet.uav[1] utilizationEnergyMission 2644.8811340332
scalar OsgEarthNet.uav[1] utilizationEnergyMaintenance 2207.1141586304
scalar OsgEarthNet.uav[1] utilizationEnergyCharge 4851.9926757812
scalar OsgEarthNet.uav[1] utilizationEnergyOverdrawMission 0
scalar OsgEarthNet.uav[1] utilizationEnergyOverdrawMaintenance 0
scalar OsgEarthNet.uav[1] utilizationCountMissions 1
scalar OsgEarthNet.uav[1] utilizationCountManeuversMission 10
scalar OsgEarthNet.uav[1] utilizationCountManeuversMaintenance 2
scalar OsgEarthNet.uav[1] utilizationCountChargeState 1
scalar OsgEarthNet.uav[1] utilizationCountOverdrawnAfterMission 0
scalar OsgEarthNet.uav[1] utilizationCountIdleState 2
scalar OsgEarthNet.uav[1] utilizationFail 0
scalar OsgEarthNet.uav[1] simulationTime 259200
scalar OsgEarthNet.uav[2] utilizationSecMission 25319.209348983
scalar OsgEarthNet.uav[2] utilizationSecMaintenance 10348.810855532
scalar OsgEarthNet.uav[2] utilizationSecCharge 131975.11974931
scalar OsgEarthNet.uav[2] utilizationSecIdle 91556.859046175
scalar OsgEarthNet.uav[2] utilizationEnergyMission 117984.38574982
scalar OsgEarthNet.uav[2] utilizationEnergyMaintenance 49492.155838013
scalar OsgEarthNet.uav[2] utilizationEnergyCharge 166159.45678711
scalar OsgEarthNet.uav[2] utilizationEnergyOverdrawMission 0
scalar OsgEarthNet.uav[2] utilizationEnergyOverdrawMaintenance 0
scalar OsgEarthNet.uav[2] utilizationCountMissions 36
scalar OsgEarthNet.uav[2] utilizationCountManeuversMission 407
scalar OsgEarthNet.uav[2] utilizationCountManeuversMaintenance 72
scalar OsgEarthNet.uav[2] utilizationCountChargeState 36
scalar OsgEarthNet.uav[2] utilizationCountOverdrawnAfterMission 0
scalar OsgEarthNet.uav[2] utilizationCountIdleState 36
scalar OsgEarthNet.uav[2] utilizationFail 0
scalar OsgEarthNet.uav[2] simulationTime 259200
scalar OsgEarthNet.uav[3] utilizationSecMission 26705.952435995
scalar OsgEarthNet.uav[3] utilizationSecMaintenance 13521.280598666
scalar OsgEarthNet.uav[3] utilizationSecCharge 149840
scalar OsgEarthNet.uav[3] utilizationSecIdle 69132.765965339
scalar OsgEarthNet.uav[3] utilizationEnergyMission 123923.53634262
scalar OsgEarthNet.uav[3] utilizationEnergyMaintenance 63468.607039629
scalar OsgEarthNet.uav[3] utilizationEnergyCharge 186249.17114258
scalar OsgEarthNet.uav[3] utilizationEnergyOverdrawMission 0
scalar OsgEarthNet.uav[3] utilizationEnergyOverdrawMaintenance 0
scalar OsgEarthNet.uav[3] utilizationCountMissions 41
scalar OsgEarthNet.uav[3] utilizationCountManeuversMission 441
scalar OsgEarthNet.uav[3] utilizationCountManeuversMaintenance 83
scalar OsgEarthNet.uav[3] utilizationCountChargeState 41
scalar OsgEarthNet.uav[3] utilizationCountOverdrawnAfterMission 0
scalar OsgEarthNet.uav[3] utilizationCountIdleState 42
scalar OsgEarthNet.uav[3] utilizationFail 0
scalar OsgEarthNet.uav[3] simulationTime 259200
scalar OsgEarthNet.uav[4] utilizationSecMission 30235.394903469
scalar OsgEarthNet.uav[4] utilizationSecMaintenance 12787.110632532
scalar OsgEarthNet.uav[4] utilizationSecCharge 156590.81265611
scalar OsgEarthNet.uav[4] utilizationSecIdle 59586.680807888
scalar OsgEarthNet.uav[4] utilizationEnergyMission 138339.30865097
scalar OsgEarthNet.uav[4] utilizationEnergyMaintenance 60332.913105011
scalar OsgEarthNet.uav[4] utilizationEnergyCharge 196625.03271484
scalar OsgEarthNet.uav[4] utilizationEnergyOverdrawMission 0
scalar OsgEarthNet.uav[4] utilizationEnergyOverdrawMaintenance 0
scalar OsgEarthNet.uav[4] utilizationCountMissions 43
scalar OsgEarthNet.uav[4] utilizationCountManeuversMission 486
scalar OsgEarthNet.uav[4] utilizationCountManeuversMaintenance 86
scalar OsgEarthNet.uav[4] utilizationCountChargeState 43
scalar OsgEarthNet.uav[4] utilizationCountOverdrawnAfterMission 0
scalar OsgEarthNet.uav[4] utilizationCountIdleState 43
scalar OsgEarthNet.uav[4] utilizationFail 0
scalar OsgEarthNet.uav[4] simulationTime 259200
scalar OsgEarthNet.uav[5] utilizationSecMission 28599.730782988
scalar OsgEarthNet.uav[5] utilizationSecMaintenance 12351.794027574
scalar OsgEarthNet.uav[5] utilizationSecCharge 150686.80113785
scalar OsgEarthNet.uav[5] utilizationSecIdle 67561.673051586
scalar OsgEarthNet.uav[5] utilizationEnergyMission 132902.40966034
scalar OsgEarthNet.uav[5] utilizationEnergyMaintenance 58134.86605072
scalar OsgEarthNet.uav[5] utilizationEnergyCharge 189801.87548828
scalar OsgEarthNet.uav[5] utilizationEnergyOverdrawMission 0
scalar OsgEarthNet.uav[5] utilizationEnergyOverdrawMaintenance 0
scalar OsgEarthNet.uav[5] utilizationCountMissions 41
scalar OsgEarthNet.uav[5] utilizationCountManeuversMission 469
scalar OsgEarthNet.uav[5] utilizationCountManeuversMaintenance 82
scalar OsgEarthNet.uav[5] utilizationCountChargeState 41
scalar OsgEarthNet.uav[5] utilizationCountOverdrawnAfterMission 0
scalar OsgEarthNet.uav[5] utilizationCountIdleState 41
scalar OsgEarthNet.uav[5] utilizationFail 0
scalar OsgEarthNet.uav[5] simulationTime 259200
scalar OsgEarthNet.uav[6] utilizationSecMission 760.62515258028
scalar OsgEarthNet.uav[6] utilizationSecMaintenance 291.95923480269
scalar OsgEarthNet.uav[6] utilizationSecCharge 3730
scalar OsgEarthNet.uav[6] utilizationSecIdle 254417.41461262
scalar OsgEarthNet.uav[6] utilizationEnergyMission 3429.7904968262
scalar OsgEarthNet.uav[6] utilizationEnergyMaintenance 1244.1379623413
scalar OsgEarthNet.uav[6] utilizationEnergyCharge 4673.9301757812
scalar OsgEarthNet.uav[6] utilizationEnergyOverdrawMission 0
scalar OsgEarthNet.uav[6] utilizationEnergyOverdrawMaintenance 0
scalar OsgEarthNet.uav[6] utilizationCountMissions 1
scalar OsgEarthNet.uav[6] utilizationCountManeuversMission 12
scalar OsgEarthNet.uav[6] utilizationCountManeuversMaintenance 2
scalar OsgEarthNet.uav[6] utilizationCountChargeState 1
scalar OsgEarthNet.uav[6] utilizationCountOverdrawnAfterMission 0
scalar OsgEarthNet.uav[6] utilizationCountIdleState 2
scalar OsgEarthNet.uav[6] utilizationFail 0
scalar OsgEarthNet.uav[6] simulationTime 259200
scalar OsgEarthNet.uav[7] utilizationSecMission 27910.910161737
scalar OsgEarthNet.uav[7] utilizationSecMaintenance 16504.960019632
scalar OsgEarthNet.uav[7] utilizationSecCharge 165250
scalar OsgEarthNet.uav[7] utilizationSecIdle 49534.128818631
scalar OsgEarthNet.uav[7] utilizationEnergyMission 128522.12036133
scalar OsgEarthNet.uav[7] utilizationEnergyMaintenance 77830.270942688
scalar OsgEarthNet.uav[7] utilizationEnergyCharge 206022.25024414
scalar OsgEarthNet.uav[7] utilizationEnergyOverdrawMission 0
scalar OsgEarthNet.uav[7] utilizationEnergyOverdrawMaintenance 0
scalar OsgEarthNet.uav[7] utilizationCountMissions 45
scalar OsgEarthNet.uav[7] utilizationCountManeuversMission 455
scalar OsgEarthNet.uav[7] utilizationCountManeuversMaintenance 90
scalar OsgEarthNet.uav[7] utilizationCountChargeState 45
scalar OsgEarthNet.uav[7] utilizationCountOverdrawnAfterMission 0
scalar OsgEarthNet.uav[7] utilizationCountIdleState 46
scalar OsgEarthNet.uav[7] utilizationFail 0
scalar OsgEarthNet.uav[7] simulationTime 259200
scalar OsgEarthNet.uav[8] utilizationSecMission 801.56413302216
scalar OsgEarthNet.uav[8] utilizationSecMaintenance 267.91392259192
scalar OsgEarthNet.uav[8] utilizationSecCharge 3790
scalar OsgEarthNet.uav[8] utilizationSecIdle 254340.52094439
scalar OsgEarthNet.uav[8] utilizationEnergyMission 3635.3698883057
scalar OsgEarthNet.uav[8] utilizationEnergyMaintenance 1195.0449142456
scalar OsgEarthNet.uav[8] utilizationEnergyCharge 4776.7446289062
scalar OsgEarthNet.uav[8] utilizationEnergyOverdrawMission 0
scalar OsgEarthNet.uav[8] utilizationEnergyOverdrawMaintenance 0
scalar OsgEarthNet.uav[8] utilizationCountMissions 1
scalar OsgEarthNet.uav[8] utilizationCountManeuversMission 12
scalar OsgEarthNet.uav[8] utilizationCountManeuversMaintenance 2
scalar OsgEarthNet.uav[8] utilizationCountChargeState 1
scalar OsgEarthNet.uav[8] utilizationCountOverdrawnAfterMission 0
scalar OsgEarthNet.uav[8] utilizationCountIdleState 2
scalar OsgEarthNet.uav[8] utilizationFail 0
scalar OsgEarthNet.uav[8] simulationTime 259200
scalar OsgEarthNet.uav[9] utilizationSecMission 760.62515258028
scalar OsgEarthNet.uav[9] utilizationSecMaintenance 291.95923480269
scalar OsgEarthNet.uav[9] utilizationSecCharge 3780
scalar OsgEarthNet.uav[9] utilizationSecIdle 254367.41461262
scalar OsgEarthNet.uav[9] utilizationEnergyMission 3477.7354202271
scalar OsgEarthNet.uav[9] utilizationEnergyMaintenance 1369.1843490601
scalar OsgEarthNet.uav[9] utilizationEnergyCharge 4846.9204101562
scalar OsgEarthNet.uav[9] utilizationEnergyOverdrawMission 0
scalar OsgEarthNet.uav[9] utilizationEnergyOverdrawMaintenance 0
scalar OsgEarthNet.uav[9] utilizationCountMissions 1
scalar OsgEarthNet.uav[9] utilizationCountManeuversMission 12
scalar OsgEarthNet.uav[9] utilizationCountManeuversMaintenance 2
scalar OsgEarthNet.uav[9] utilizationCountChargeState 1
scalar OsgEarthNet.uav[9] utilizationCountOverdrawnAfterMission 0
scalar OsgEarthNet.uav[9] utilizationCountIdleState 2
scalar OsgEarthNet.uav[9] utilizationFail 0
scalar OsgEarthNet.uav[9] simulationTime 259200
scalar OsgEarthNet.uav[10] utilizationSecMission 760.62515258028
scalar OsgEarthNet.uav[10] utilizationSecMaintenance 291.95923480269
scalar OsgEarthNet.uav[10] utilizationSecCharge 3800
scalar OsgEarthNet.uav[10] utilizationSecIdle 254347.41461262
scalar OsgEarthNet.uav[10] utilizationEnergyMission 3395.635848999
scalar OsgEarthNet.uav[10] utilizationEnergyMaintenance 1405.2663803101
scalar OsgEarthNet.uav[10] utilizationEnergyCharge 4800.9057617188
scalar OsgEarthNet.uav[10] utilizationEnergyOverdrawMission 0
scalar OsgEarthNet.uav[10] utilizationEnergyOverdrawMaintenance 0
scalar OsgEarthNet.uav[10] utilizationCountMissions 1
scalar OsgEarthNet.uav[10] utilizationCountManeuversMission 12
scalar OsgEarthNet.uav[10] utilizationCountManeuversMaintenance 2
scalar OsgEarthNet.uav[10] utilizationCountChargeState 1
scalar OsgEarthNet.uav[10] utilizationCountOverdrawnAfterMission 0
scalar OsgEarthNet.uav[10] utilizationCountIdleState 2
scalar OsgEarthNet.uav[10] utilizationFail 0
scalar OsgEarthNet.uav[10] simulationTime 259200
scalar OsgEarthNet.uav[11] utilizationSecMission 1338.5011333386
scalar OsgEarthNet.uav[11] utilizationSecMaintenance 553.28016956556
scalar OsgEarthNet.uav[11] utilizationSecCharge 7250
scalar OsgEarthNet.uav[11] utilizationSecIdle 250058.2176971
scalar OsgEarthNet.uav[11] utilizationEnergyMission 6260.3643798828
scalar OsgEarthNet.uav[11] utilizationEnergyMaintenance 2687.4376754761
scalar OsgEarthNet.uav[11] utilizationEnergyCharge 8947.8017578125
scalar OsgEarthNet.uav[11] utilizationEnergyOverdrawMission 0
scalar OsgEarthNet.uav[11] utilizationEnergyOverdrawMaintenance 0
scalar OsgEarthNet.uav[11] utilizationCountMissions 2
scalar OsgEarthNet.uav[11] utilizationCountManeuversMission 22
scalar OsgEarthNet.uav[11] utilizationCountManeuversMaintenance 4
scalar OsgEarthNet.uav[11] utilizationCountChargeState 2
scalar OsgEarthNet.uav[11] utilizationCountOverdrawnAfterMission 0
scalar OsgEarthNet.uav[11] utilizationCountIdleState 3
scalar OsgEarthNet.uav[11] utilizationFail 0
scalar OsgEarthNet.uav[11] simulationTime 259200
scalar OsgEarthNet.uav[12] utilizationSecMission 828.1936691689
scalar OsgEarthNet.uav[12] utilizationSecMaintenance 156.97870384097
scalar OsgEarthNet.uav[12] utilizationSecCharge 3730
scalar OsgEarthNet.uav[12] utilizationSecIdle 254484.82662699
scalar OsgEarthNet.uav[12] utilizationEnergyMission 4017.6933288574
scalar OsgEarthNet.uav[12] utilizationEnergyMaintenance 628.35124969483
scalar OsgEarthNet.uav[12] utilizationEnergyCharge 4673.5092773438
scalar OsgEarthNet.uav[12] utilizationEnergyOverdrawMission 0
scalar OsgEarthNet.uav[12] utilizationEnergyOverdrawMaintenance 0
scalar OsgEarthNet.uav[12] utilizationCountMissions 1
scalar OsgEarthNet.uav[12] utilizationCountManeuversMission 13
scalar OsgEarthNet.uav[12] utilizationCountManeuversMaintenance 2
scalar OsgEarthNet.uav[12] utilizationCountChargeState 1
scalar OsgEarthNet.uav[12] utilizationCountOverdrawnAfterMission 0
scalar OsgEarthNet.uav[12] utilizationCountIdleState 2
scalar OsgEarthNet.uav[12] utilizationFail 0
scalar OsgEarthNet.uav[12] simulationTime 259200
scalar OsgEarthNet.uav[13] utilizationSecMission 21370.620248398
scalar OsgEarthNet.uav[13] utilizationSecMaintenance 9136.9557201035
scalar OsgEarthNet.uav[13] utilizationSecCharge 110300
scalar OsgEarthNet.uav[13] utilizationSecIdle 118392.4230315
scalar OsgEarthNet.uav[13] utilizationEnergyMission 98951.322573479
scalar OsgEarthNet.uav[13] utilizationEnergyMaintenance 42864.211307526
scalar OsgEarthNet.uav[13] utilizationEnergyCharge 137494.90063477
scalar OsgEarthNet.uav[13] utilizationEnergyOverdrawMission 0
scalar OsgEarthNet.uav[13] utilizationEnergyOverdrawMaintenance 0
scalar OsgEarthNet.uav[13] utilizationCountMissions 30
scalar OsgEarthNet.uav[13] utilizationCountManeuversMission 332
scalar OsgEarthNet.uav[13] utilizationCountManeuversMaintenance 61
scalar OsgEarthNet.uav[13] utilizationCountChargeState 30
scalar OsgEarthNet.uav[13] utilizationCountOverdrawnAfterMission 0
scalar OsgEarthNet.uav[13] utilizationCountIdleState 31
scalar OsgEarthNet.uav[13] utilizationFail 0
scalar OsgEarthNet.uav[13] simulationTime 259200
scalar OsgEarthNet.uav[14] utilizationSecMission 1350.549161035
scalar OsgEarthNet.uav[14] utilizationSecMaintenance 730.22714082376
scalar OsgEarthNet.uav[14] utilizationSecCharge 7660
scalar OsgEarthNet.uav[14] utilizationSecIdle 249459.22269814
scalar OsgEarthNet.uav[14] utilizationEnergyMission 6140.7330932617
scalar OsgEarthNet.uav[14] utilizationEnergyMaintenance 3492.696598053
scalar OsgEarthNet.uav[14] utilizationEnergyCharge 9633.4321289062
scalar OsgEarthNet.uav[14] utilizationEnergyOverdrawMission 0
scalar OsgEarthNet.uav[14] utilizationEnergyOverdrawMaintenance 0
scalar OsgEarthNet.uav[14] utilizationCountMissions 2
scalar OsgEarthNet.uav[14] utilizationCountManeuversMission 23
scalar OsgEarthNet.uav[14] utilizationCountManeuversMaintenance 4
scalar OsgEarthNet.uav[14] utilizationCountChargeState 2
scalar OsgEarthNet.uav[14] utilizationCountOverdrawnAfterMission 0
scalar OsgEarthNet.uav[14] utilizationCountIdleState 3
scalar OsgEarthNet.uav[14] utilizationFail 0
scalar OsgEarthNet.uav[14] simulationTime 259200
scalar OsgEarthNet.uav[15] utilizationSecMission 27826.332547132
scalar OsgEarthNet.uav[15] utilizationSecMaintenance 14965.008680033
scalar OsgEarthNet.uav[15] utilizationSecCharge 158422.21020036
scalar OsgEarthNet.uav[15] utilizationSecIdle 57986.447572472
scalar OsgEarthNet.uav[15] utilizationEnergyMission 129393.61239624
scalar OsgEarthNet.uav[15] utilizationEnergyMaintenance 69759.255878449
scalar OsgEarthNet.uav[15] utilizationEnergyCharge 199123.95068359
scalar OsgEarthNet.uav[15] utilizationEnergyOverdrawMission 0
scalar OsgEarthNet.uav[15] utilizationEnergyOverdrawMaintenance 0
scalar OsgEarthNet.uav[15] utilizationCountMissions 43
scalar OsgEarthNet.uav[15] utilizationCountManeuversMission 447
scalar OsgEarthNet.uav[15] utilizationCountManeuversMaintenance 86
scalar OsgEarthNet.uav[15] utilizationCountChargeState 43
scalar OsgEarthNet.uav[15] utilizationCountOverdrawnAfterMission 0
scalar OsgEarthNet.uav[15] utilizationCountIdleState 43
scalar OsgEarthNet.uav[15] utilizationFail 0
scalar OsgEarthNet.uav[15] simulationTime 259200
scalar OsgEarthNet.uav[16] utilizationSecMission 31886.174018461
scalar OsgEarthNet.uav[16] utilizationSecMaintenance 13282.079175614
scalar OsgEarthNet.uav[16] utilizationSecCharge 167390
scalar OsgEarthNet.uav[16] utilizationSecIdle 46641.745805925
scalar OsgEarthNet.uav[16] utilizationEnergyMission 148396.06910706
scalar OsgEarthNet.uav[16] utilizationEnergyMaintenance 61499.932491303
scalar OsgEarthNet.uav[16] utilizationEnergyCharge 209767.01806641
scalar OsgEarthNet.uav[16] utilizationEnergyOverdrawMission 0
scalar OsgEarthNet.uav[16] utilizationEnergyOverdrawMaintenance 0
scalar OsgEarthNet.uav[16] utilizationCountMissions 45
scalar OsgEarthNet.uav[16] utilizationCountManeuversMission 517
scalar OsgEarthNet.uav[16] utilizationCountManeuversMaintenance 89
scalar OsgEarthNet.uav[16] utilizationCountChargeState 45
scalar OsgEarthNet.uav[16] utilizationCountOverdrawnAfterMission 0
scalar OsgEarthNet.uav[16] utilizationCountIdleState 46
scalar OsgEarthNet.uav[16] utilizationFail 0
scalar OsgEarthNet.uav[16] simulationTime 259200
scalar OsgEarthNet.uav[17] utilizationSecMission 15022.460030052
scalar OsgEarthNet.uav[17] utilizationSecMaintenance 8742.4873641404
scalar OsgEarthNet.uav[17] utilizationSecCharge 88760
scalar OsgEarthNet.uav[17] utilizationSecIdle 146675.05160581
scalar OsgEarthNet.uav[17] utilizationEnergyMission 69820.820793152
scalar OsgEarthNet.uav[17] utilizationEnergyMaintenance 41199.609024048
scalar OsgEarthNet.uav[17] utilizationEnergyCharge 110847.83447266
scalar OsgEarthNet.uav[17] utilizationEnergyOverdrawMission 0
scalar OsgEarthNet.uav[17] utilizationEnergyOverdrawMaintenance 0
scalar OsgEarthNet.uav[17] utilizationCountMissions 24
scalar OsgEarthNet.uav[17] utilizationCountManeuversMission 250
scalar OsgEarthNet.uav[17] utilizationCountManeuversMaintenance 48
scalar OsgEarthNet.uav[17] utilizationCountChargeState 24
scalar OsgEarthNet.uav[17] utilizationCountOverdrawnAfterMission 0
scalar OsgEarthNet.uav[17] utilizationCountIdleState 25
scalar OsgEarthNet.uav[17] utilizationFail 0
scalar OsgEarthNet.uav[17] simulationTime 259200
scalar OsgEarthNet.uav[18] utilizationSecMission 30143.798125484
scalar OsgEarthNet.uav[18] utilizationSecMaintenance 15674.050453205
scalar OsgEarthNet.uav[18] utilizationSecCharge 167556.11432254
scalar OsgEarthNet.uav[18] utilizationSecIdle 45826.036098769
scalar OsgEarthNet.uav[18] utilizationEnergyMission 140426.74820709
scalar OsgEarthNet.uav[18] utilizationEnergyMaintenance 73165.662742615
scalar OsgEarthNet.uav[18] utilizationEnergyCharge 209959.01574707
scalar OsgEarthNet.uav[18] utilizationEnergyOverdrawMission 0
scalar OsgEarthNet.uav[18] utilizationEnergyOverdrawMaintenance 0
scalar OsgEarthNet.uav[18] utilizationCountMissions 46
scalar OsgEarthNet.uav[18] utilizationCountManeuversMission 496
scalar OsgEarthNet.uav[18] utilizationCountManeuversMaintenance 92
scalar OsgEarthNet.uav[18] utilizationCountChargeState 46
scalar OsgEarthNet.uav[18] utilizationCountOverdrawnAfterMission 0
scalar OsgEarthNet.uav[18] utilizationCountIdleState 46
scalar OsgEarthNet.uav[18] utilizationFail 0
scalar OsgEarthNet.uav[18] simulationTime 259200
scalar OsgEarthNet.uav[19] utilizationSecMission 30738.899185302
scalar OsgEarthNet.uav[19] utilizationSecMaintenance 11970.067946483
scalar OsgEarthNet.uav[19] utilizationSecCharge 156378.89205507
scalar OsgEarthNet.uav[19] utilizationSecIdle 60112.139813144
scalar OsgEarthNet.uav[19] utilizationEnergyMission 141572.72193909
scalar OsgEarthNet.uav[19] utilizationEnergyMaintenance 56796.631580353
scalar OsgEarthNet.uav[19] utilizationEnergyCharge 197649.70751953
scalar OsgEarthNet.uav[19] utilizationEnergyOverdrawMission 0
scalar OsgEarthNet.uav[19] utilizationEnergyOverdrawMaintenance 0
scalar OsgEarthNet.uav[19] utilizationCountMissions 42
scalar OsgEarthNet.uav[19] utilizationCountManeuversMission 502
scalar OsgEarthNet.uav[19] utilizationCountManeuversMaintenance 84
scalar OsgEarthNet.uav[19] utilizationCountChargeState 42
scalar OsgEarthNet.uav[19] utilizationCountOverdrawnAfterMission 0
scalar OsgEarthNet.uav[19] utilizationCountIdleState 42
scalar OsgEarthNet.uav[19] utilizationFail 0
scalar OsgEarthNet.uav[19] simulationTime 259200
scalar OsgEarthNet.uav[20] utilizationSecMission 760.62515258028
scalar OsgEarthNet.uav[20] utilizationSecMaintenance 291.95923480269
scalar OsgEarthNet.uav[20] utilizationSecCharge 3890
scalar OsgEarthNet.uav[20] utilizationSecIdle 254257.41461262
scalar OsgEarthNet.uav[20] utilizationEnergyMission 3567.7185821533
scalar OsgEarthNet.uav[20] utilizationEnergyMaintenance 1395.2039413452
scalar OsgEarthNet.uav[20] utilizationEnergyCharge 4962.9252929688
scalar OsgEarthNet.uav[20] utilizationEnergyOverdrawMission 0
scalar OsgEarthNet.uav[20] utilizationEnergyOverdrawMaintenance 0
scalar OsgEarthNet.uav[20] utilizationCountMissions 1
scalar OsgEarthNet.uav[20] utilizationCountManeuversMission 12
scalar OsgEarthNet.uav[20] utilizationCountManeuversMaintenance 2
scalar OsgEarthNet.uav[20] utilizationCountChargeState 1
scalar OsgEarthNet.uav[20] utilizationCountOverdrawnAfterMission 0
scalar OsgEarthNet.uav[20] utilizationCountIdleState 2
scalar OsgEarthNet.uav[20] utilizationFail 0
scalar OsgEarthNet.uav[20] simulationTime 259200
scalar OsgEarthNet.uav[21] utilizationSecMission 655.55330183502
scalar OsgEarthNet.uav[21] utilizationSecMaintenance 344.5505930207
scalar OsgEarthNet.uav[21] utilizationSecCharge 3810
scalar OsgEarthNet.uav[21] utilizationSecIdle 254389.89510514
scalar OsgEarthNet.uav[21] utilizationEnergyMission 2949.9059295654
scalar OsgEarthNet.uav[21] utilizationEnergyMaintenance 1796.0077133179
scalar OsgEarthNet.uav[21] utilizationEnergyCharge 4745.9194335938
scalar OsgEarthNet.uav[21] utilizationEnergyOverdrawMission 0
scalar OsgEarthNet.uav[21] utilizationEnergyOverdrawMaintenance 0
scalar OsgEarthNet.uav[21] utilizationCountMissions 1
scalar OsgEarthNet.uav[21] utilizationCountManeuversMission 10
scalar OsgEarthNet.uav[21] utilizationCountManeuversMaintenance 2
scalar OsgEarthNet.uav[21] utilizationCountChargeState 1
scalar OsgEarthNet.uav[21] utilizationCountOverdrawnAfterMission 0
scalar OsgEarthNet.uav[21] utilizationCountIdleState 2
scalar OsgEarthNet.uav[21] utilizationFail 0
scalar OsgEarthNet.uav[21] simulationTime 259200
scalar OsgEarthNet.uav[22] utilizationSecMission 31558.618173211
scalar OsgEarthNet.uav[22] utilizationSecMaintenance 13329.380826789
scalar OsgEarthNet.uav[22] utilizationSecCharge 163690
scalar OsgEarthNet.uav[22] utilizationSecIdle 50622
scalar OsgEarthNet.uav[22] utilizationEnergyMission 145558.70750697
scalar OsgEarthNet.uav[22] utilizationEnergyMaintenance 61822.382392883
scalar OsgEarthNet.uav[22] utilizationEnergyCharge 205092.0534668
scalar OsgEarthNet.uav[22] utilizationEnergyOverdrawMission 0
scalar OsgEarthNet.uav[22] utilizationEnergyOverdrawMaintenance 0
scalar OsgEarthNet.uav[22] utilizationCountMissions 44
scalar OsgEarthNet.uav[22] utilizationCountManeuversMission 528
scalar OsgEarthNet.uav[22] utilizationCountManeuversMaintenance 88
scalar OsgEarthNet.uav[22] utilizationCountChargeState 44
scalar OsgEarthNet.uav[22] utilizationCountOverdrawnAfterMission 0
scalar OsgEarthNet.uav[22] utilizationCountIdleState 45
scalar OsgEarthNet.uav[22] utilizationFail 0
scalar OsgEarthNet.uav[22] simulationTime 259200
scalar OsgEarthNet.uav[23] utilizationSecMission 760.62515258028
scalar OsgEarthNet.uav[23] utilizationSecMaintenance 291.95923480269
scalar OsgEarthNet.uav[23] utilizationSecCharge 3910
scalar OsgEarthNet.uav[23] utilizationSecIdle 254237.41461262
scalar OsgEarthNet.uav[23] utilizationEnergyMission 3580.065612793
scalar OsgEarthNet.uav[23] utilizationEnergyMaintenance 1414.8387374878
scalar OsgEarthNet.uav[23] utilizationEnergyCharge 4994.9077148438
scalar OsgEarthNet.uav[23] utilizationEnergyOverdrawMission 0
scalar OsgEarthNet.uav[23] utilizationEnergyOverdrawMaintenance 0
scalar OsgEarthNet.uav[23] utilizationCountMissions 1
scalar OsgEarthNet.uav[23] utilizationCountManeuversMission 12
scalar OsgEarthNet.uav[23] utilizationCountManeuversMaintenance 2
scalar OsgEarthNet.uav[23] utilizationCountChargeState 1
scalar OsgEarthNet.uav[23] utilizationCountOverdrawnAfterMission 0
scalar OsgEarthNet.uav[23] utilizationCountIdleState 2
scalar OsgEarthNet.uav[23] utilizationFail 0
scalar OsgEarthNet.uav[23] simulationTime 259200
scalar OsgEarthNet.uav[24] utilizationSecMission 24169.544240452
scalar OsgEarthNet.uav[24] utilizationSecMaintenance 11844.854160973
scalar OsgEarthNet.uav[24] utilizationSecCharge 131392.1861939
scalar OsgEarthNet.uav[24] utilizationSecIdle 91793.414404672
scalar OsgEarthNet.uav[24] utilizationEnergyMission 110853.72291565
scalar OsgEarthNet.uav[24] utilizationEnergyMaintenance 55248.59835434
scalar OsgEarthNet.uav[24] utilizationEnergyCharge 163444.88989258
scalar OsgEarthNet.uav[24] utilizationEnergyOverdrawMission 0
scalar OsgEarthNet.uav[24] utilizationEnergyOverdrawMaintenance 0
scalar OsgEarthNet.uav[24] utilizationCountMissions 37
scalar OsgEarthNet.uav[24] utilizationCountManeuversMission 395
scalar OsgEarthNet.uav[24] utilizationCountManeuversMaintenance 74
scalar OsgEarthNet.uav[24] utilizationCountChargeState 37
scalar OsgEarthNet.uav[24] utilizationCountOverdrawnAfterMission 0
scalar OsgEarthNet.uav[24] utilizationCountIdleState 37
scalar OsgEarthNet.uav[24] utilizationFail 0
scalar OsgEarthNet.uav[24] simulationTime 259200
scalar OsgEarthNet.uav[25] utilizationSecMission 29422.158686605
scalar OsgEarthNet.uav[25] utilizationSecMaintenance 13357.152547186
scalar OsgEarthNet.uav[25] utilizationSecCharge 157650
scalar OsgEarthNet.uav[25] utilizationSecIdle 58770.687766209
scalar OsgEarthNet.uav[25] utilizationEnergyMission 135286.29946899
scalar OsgEarthNet.uav[25] utilizationEnergyMaintenance 60833.393146515
scalar OsgEarthNet.uav[25] utilizationEnergyCharge 196504.7199707
scalar OsgEarthNet.uav[25] utilizationEnergyOverdrawMission 0
scalar OsgEarthNet.uav[25] utilizationEnergyOverdrawMaintenance 0
scalar OsgEarthNet.uav[25] utilizationCountMissions 43
scalar OsgEarthNet.uav[25] utilizationCountManeuversMission 490
scalar OsgEarthNet.uav[25] utilizationCountManeuversMaintenance 86
scalar OsgEarthNet.uav[25] utilizationCountChargeState 43
scalar OsgEarthNet.uav[25] utilizationCountOverdrawnAfterMission 0
scalar OsgEarthNet.uav[25] utilizationCountIdleState 44
scalar OsgEarthNet.uav[25] utilizationFail 0
scalar OsgEarthNet.uav[25] simulationTime 259200
scalar OsgEarthNet.uav[26] utilizationSecMission 29760.224339661
scalar OsgEarthNet.uav[26] utilizationSecMaintenance 11711.56170592
scalar OsgEarthNet.uav[26] utilizationSecCharge 152830
scalar OsgEarthNet.uav[26] utilizationSecIdle 64898.212954419
scalar OsgEarthNet.uav[26] utilizationEnergyMission 137006.03323364
scalar OsgEarthNet.uav[26] utilizationEnergyMaintenance 54630.746452332
scalar OsgEarthNet.uav[26] utilizationEnergyCharge 191600.98022461
scalar OsgEarthNet.uav[26] utilizationEnergyOverdrawMission 0
scalar OsgEarthNet.uav[26] utilizationEnergyOverdrawMaintenance 0
scalar OsgEarthNet.uav[26] utilizationCountMissions 41
scalar OsgEarthNet.uav[26] utilizationCountManeuversMission 471
scalar OsgEarthNet.uav[26] utilizationCountManeuversMaintenance 82
scalar OsgEarthNet.uav[26] utilizationCountChargeState 41
scalar OsgEarthNet.uav[26] utilizationCountOverdrawnAfterMission 0
scalar OsgEarthNet.uav[26] utilizationCountIdleState 42
scalar OsgEarthNet.uav[26] utilizationFail 0
scalar OsgEarthNet.uav[26] simulationTime 259200
scalar OsgEarthNet.uav[27] utilizationSecMission 27792.93322717
scalar OsgEarthNet.uav[27] utilizationSecMaintenance 13217.654069868
scalar OsgEarthNet.uav[27] utilizationSecCharge 151940
scalar OsgEarthNet.uav[27] utilizationSecIdle 66249.411702962
scalar OsgEarthNet.uav[27] utilizationEnergyMission 129170.58857727
scalar OsgEarthNet.uav[27] utilizationEnergyMaintenance 61594.976553509
scalar OsgEarthNet.uav[27] utilizationEnergyCharge 189937.64086914
scalar OsgEarthNet.uav[27] utilizationEnergyOverdrawMission 0
scalar OsgEarthNet.uav[27] utilizationEnergyOverdrawMaintenance 0
scalar OsgEarthNet.uav[27] utilizationCountMissions 41
scalar OsgEarthNet.uav[27] utilizationCountManeuversMission 449
scalar OsgEarthNet.uav[27] utilizationCountManeuversMaintenance 83
scalar OsgEarthNet.uav[27] utilizationCountChargeState 41
scalar OsgEarthNet.uav[27] utilizationCountOverdrawnAfterMission 0
scalar OsgEarthNet.uav[27] utilizationCountIdleState 42
scalar OsgEarthNet.uav[27] utilizationFail 0
scalar OsgEarthNet.uav[27] simulationTime 259200
scalar OsgEarthNet.uav[28] utilizationSecMission 5606.1382019163
scalar OsgEarthNet.uav[28] utilizationSecMaintenance 1517.0592389078
scalar OsgEarthNet.uav[28] utilizationSecCharge 23490.778291175
scalar OsgEarthNet.uav[28] utilizationSecIdle 228586.023268
scalar OsgEarthNet.uav[28] utilizationEnergyMission 25341.139701843
scalar OsgEarthNet.uav[28] utilizationEnergyMaintenance 7049.3723144531
scalar OsgEarthNet.uav[28] utilizationEnergyCharge 30028.292724609
scalar OsgEarthNet.uav[28] utilizationEnergyOverdrawMission 0
scalar OsgEarthNet.uav[28] utilizationEnergyOverdrawMaintenance 0
scalar OsgEarthNet.uav[28] utilizationCountMissions 7
scalar OsgEarthNet.uav[28] utilizationCountManeuversMission 88
scalar OsgEarthNet.uav[28] utilizationCountManeuversMaintenance 14
scalar OsgEarthNet.uav[28] utilizationCountChargeState 7
scalar OsgEarthNet.uav[28] utilizationCountOverdrawnAfterMission 0
scalar OsgEarthNet.uav[28] utilizationCountIdleState 7
scalar OsgEarthNet.uav[28] utilizationFail 0
scalar OsgEarthNet.uav[28] simulationTime 259200
scalar OsgEarthNet.uav[29] utilizationSecMission 836.77707522227
scalar OsgEarthNet.uav[29] utilizationSecMaintenance 217.0347828456
scalar OsgEarthNet.uav[29] utilizationSecCharge 3800
scalar OsgEarthNet.uav[29] utilizationSecIdle 254346.18714193
scalar OsgEarthNet.uav[29] utilizationEnergyMission 3765.9711532593
scalar OsgEarthNet.uav[29] utilizationEnergyMaintenance 1053.2234916687
scalar OsgEarthNet.uav[29] utilizationEnergyCharge 4819.197265625
scalar OsgEarthNet.uav[29] utilizationEnergyOverdrawMission 0
scalar OsgEarthNet.uav[29] utilizationEnergyOverdrawMaintenance 0
scalar OsgEarthNet.uav[29] utilizationCountMissions 1
scalar OsgEarthNet.uav[29] utilizationCountManeuversMission 13
scalar OsgEarthNet.uav[29] utilizationCountManeuversMaintenance 2
scalar OsgEarthNet.uav[29] utilizationCountChargeState 1
scalar OsgEarthNet.uav[29] utilizationCountOverdrawnAfterMission 0
scalar OsgEarthNet.uav[29] utilizationCountIdleState 2
scalar OsgEarthNet.uav[29] utilizationFail 0
scalar OsgEarthNet.uav[29] simulationTime 259200
scalar OsgEarthNet.uav[30] utilizationSecMission 760.62515258028
scalar OsgEarthNet.uav[30] utilizationSecMaintenance 291.95923480269
scalar OsgEarthNet.uav[30] utilizationSecCharge 3880
scalar OsgEarthNet.uav[30] utilizationSecIdle 254267.41461262
scalar OsgEarthNet.uav[30] utilizationEnergyMission 3574.6324462891
scalar OsgEarthNet.uav[30] utilizationEnergyMaintenance 1358.5549850464
scalar OsgEarthNet.uav[30] utilizationEnergyCharge 4933.189453125
scalar OsgEarthNet.uav[30] utilizationEnergyOverdrawMission 0
scalar OsgEarthNet.uav[30] utilizationEnergyOverdrawMaintenance 0
scalar OsgEarthNet.uav[30] utilizationCountMissions 1
scalar OsgEarthNet.uav[30] utilizationCountManeuversMission 12
scalar OsgEarthNet.uav[30] utilizationCountManeuversMaintenance 2
scalar OsgEarthNet.uav[30] utilizationCountChargeState 1
scalar OsgEarthNet.uav[30] utilizationCountOverdrawnAfterMission 0
scalar OsgEarthNet.uav[30] utilizationCountIdleState 2
scalar OsgEarthNet.uav[30] utilizationFail 0
scalar OsgEarthNet.uav[30] simulationTime 259200
scalar OsgEarthNet.uav[31] utilizationSecMission 553.12566654921
scalar OsgEarthNet.uav[31] utilizationSecMaintenance 489.82638271256
scalar OsgEarthNet.uav[31] utilizationSecCharge 3790
scalar OsgEarthNet.uav[31] utilizationSecIdle 254367.04695074
scalar OsgEarthNet.uav[31] utilizationEnergyMission 2573.7817993164
scalar OsgEarthNet.uav[31] utilizationEnergyMaintenance 2249.9971427917
scalar OsgEarthNet.uav[31] utilizationEnergyCharge 4697.48046875
scalar OsgEarthNet.uav[31] utilizationEnergyOverdrawMission 0
scalar OsgEarthNet.uav[31] utilizationEnergyOverdrawMaintenance 0
scalar OsgEarthNet.uav[31] utilizationCountMissions 1
scalar OsgEarthNet.uav[31] utilizationCountManeuversMission 9
scalar OsgEarthNet.uav[31] utilizationCountManeuversMaintenance 2
scalar OsgEarthNet.uav[31] utilizationCountChargeState 1
scalar OsgEarthNet.uav[31] utilizationCountOverdrawnAfterMission 0
scalar OsgEarthNet.uav[31] utilizationCountIdleState 2
scalar OsgEarthNet.uav[31] utilizationFail 0
scalar OsgEarthNet.uav[31] simulationTime 259200
scalar OsgEarthNet.uav[32] utilizationSecMission 32249.713674528
scalar OsgEarthNet.uav[32] utilizationSecMaintenance 13248.285325472
scalar OsgEarthNet.uav[32] utilizationSecCharge 166340
scalar OsgEarthNet.uav[32] utilizationSecIdle 47362
scalar OsgEarthNet.uav[32] utilizationEnergyMission 149817.40420744
scalar OsgEarthNet.uav[32] utilizationEnergyMaintenance 62346.509616825
scalar OsgEarthNet.uav[32] utilizationEnergyCharge 207701.4675293
scalar OsgEarthNet.uav[32] utilizationEnergyOverdrawMission 0
scalar OsgEarthNet.uav[32] utilizationEnergyOverdrawMaintenance 0
scalar OsgEarthNet.uav[32] utilizationCountMissions 46
scalar OsgEarthNet.uav[32] utilizationCountManeuversMission 523
scalar OsgEarthNet.uav[32] utilizationCountManeuversMaintenance 91
scalar OsgEarthNet.uav[32] utilizationCountChargeState 45
scalar OsgEarthNet.uav[32] utilizationCountOverdrawnAfterMission 0
scalar OsgEarthNet.uav[32] utilizationCountIdleState 46
scalar OsgEarthNet.uav[32] utilizationFail 0
scalar OsgEarthNet.uav[32] simulationTime 259200
scalar OsgEarthNet.uav[33] utilizationSecMission 760.62515258028
scalar OsgEarthNet.uav[33] utilizationSecMaintenance 291.95923480269
scalar OsgEarthNet.uav[33] utilizationSecCharge 3760
scalar OsgEarthNet.uav[33] utilizationSecIdle 254387.41461262
scalar OsgEarthNet.uav[33] utilizationEnergyMission 3280.5058364868
scalar OsgEarthNet.uav[33] utilizationEnergyMaintenance 1446.9158554077
scalar OsgEarthNet.uav[33] utilizationEnergyCharge 4727.4248046875
scalar OsgEarthNet.uav[33] utilizationEnergyOverdrawMission 0
scalar OsgEarthNet.uav[33] utilizationEnergyOverdrawMaintenance 0
scalar OsgEarthNet.uav[33] utilizationCountMissions 1
scalar OsgEarthNet.uav[33] utilizationCountManeuversMission 12
scalar OsgEarthNet.uav[33] utilizationCountManeuversMaintenance 2
scalar OsgEarthNet.uav[33] utilizationCountChargeState 1
scalar OsgEarthNet.uav[33] utilizationCountOverdrawnAfterMission 0
scalar OsgEarthNet.uav[33] utilizationCountIdleState 2
scalar OsgEarthNet.uav[33] utilizationFail 0
scalar OsgEarthNet.uav[33] simulationTime 259200
scalar OsgEarthNet.uav[34] utilizationSecMission 30099.789878699
scalar OsgEarthNet.uav[34] utilizationSecMaintenance 15737.648079434
scalar OsgEarthNet.uav[34] utilizationSecCharge 167324.2084346
scalar OsgEarthNet.uav[34] utilizationSecIdle 46038.352607263
scalar OsgEarthNet.uav[34] utilizationEnergyMission 138612.74754333
scalar OsgEarthNet.uav[34] utilizationEnergyMaintenance 74572.568572998
scalar OsgEarthNet.uav[34] utilizationEnergyCharge 209212.05255127
scalar OsgEarthNet.uav[34] utilizationEnergyOverdrawMission 0
scalar OsgEarthNet.uav[34] utilizationEnergyOverdrawMaintenance 0
scalar OsgEarthNet.uav[34] utilizationCountMissions 46
scalar OsgEarthNet.uav[34] utilizationCountManeuversMission 483
scalar OsgEarthNet.uav[34] utilizationCountManeuversMaintenance 92
scalar OsgEarthNet.uav[34] utilizationCountChargeState 46
scalar OsgEarthNet.uav[34] utilizationCountOverdrawnAfterMission 0
scalar OsgEarthNet.uav[34] utilizationCountIdleState 46
scalar OsgEarthNet.uav[34] utilizationFail 0
scalar OsgEarthNet.uav[34] simulationTime 259200
scalar OsgEarthNet.uav[35] utilizationSecMission 28374.242460249
scalar OsgEarthNet.uav[35] utilizationSecMaintenance 14683.523665377
scalar OsgEarthNet.uav[35] utilizationSecCharge 157569.53020666
scalar OsgEarthNet.uav[35] utilizationSecIdle 58572.702667718
scalar OsgEarthNet.uav[35] utilizationEnergyMission 129556.33370209
scalar OsgEarthNet.uav[35] utilizationEnergyMaintenance 68819.111057281
scalar OsgEarthNet.uav[35] utilizationEnergyCharge 197800.74291992
scalar OsgEarthNet.uav[35] utilizationEnergyOverdrawMission 0
scalar OsgEarthNet.uav[35] utilizationEnergyOverdrawMaintenance 0
scalar OsgEarthNet.uav[35] utilizationCountMissions 43
scalar OsgEarthNet.uav[35] utilizationCountManeuversMission 464
scalar OsgEarthNet.uav[35] utilizationCountManeuversMaintenance 86
scalar OsgEarthNet.uav[35] utilizationCountChargeState 43
scalar OsgEarthNet.uav[35] utilizationCountOverdrawnAfterMission 0
scalar OsgEarthNet.uav[35] utilizationCountIdleState 43
scalar OsgEarthNet.uav[35] utilizationFail 0
scalar OsgEarthNet.uav[35] simulationTime 259200
scalar OsgEarthNet.uav[36] utilizationSecMission 760.62515258028
scalar OsgEarthNet.uav[36] utilizationSecMaintenance 291.95923480269
scalar OsgEarthNet.uav[36] utilizationSecCharge 3890
scalar OsgEarthNet.uav[36] utilizationSecIdle 254257.41461262
scalar OsgEarthNet.uav[36] utilizationEnergyMission 3470.5190429688
scalar OsgEarthNet.uav[36] utilizationEnergyMaintenance 1538.7650375366
scalar OsgEarthNet.uav[36] utilizationEnergyCharge 5009.2822265625
scalar OsgEarthNet.uav[36] utilizationEnergyOverdrawMission 0
scalar OsgEarthNet.uav[36] utilizationEnergyOverdrawMaintenance 0
scalar OsgEarthNet.uav[36] utilizationCountMissions 1
scalar OsgEarthNet.uav[36] utilizationCountManeuversMission 12
scalar OsgEarthNet.uav[36] utilizationCountManeuversMaintenance 2
scalar OsgEarthNet.uav[36] utilizationCountChargeState 1
scalar OsgEarthNet.uav[36] utilizationCountOverdrawnAfterMission 0
scalar OsgEarthNet.uav[36] utilizationCountIdleState 2
scalar OsgEarthNet.uav[36] utilizationFail 0
scalar OsgEarthNet.uav[36] simulationTime 259200
scalar OsgEarthNet.uav[37] utilizationSecMission 23092.708131608
scalar OsgEarthNet.uav[37] utilizationSecMaintenance 15121.896618152
scalar OsgEarthNet.uav[37] utilizationSecCharge 139893.30704896
scalar OsgEarthNet.uav[37] utilizationSecIdle 81092.087201284
scalar OsgEarthNet.uav[37] utilizationEnergyMission 105849.6812706
scalar OsgEarthNet.uav[37] utilizationEnergyMaintenance 70659.454040527
scalar OsgEarthNet.uav[37] utilizationEnergyCharge 176226.8125
scalar OsgEarthNet.uav[37] utilizationEnergyOverdrawMission 0
scalar OsgEarthNet.uav[37] utilizationEnergyOverdrawMaintenance 0
scalar OsgEarthNet.uav[37] utilizationCountMissions 38
scalar OsgEarthNet.uav[37] utilizationCountManeuversMission 387
scalar OsgEarthNet.uav[37] utilizationCountManeuversMaintenance 76
scalar OsgEarthNet.uav[37] utilizationCountChargeState 38
scalar OsgEarthNet.uav[37] utilizationCountOverdrawnAfterMission 0
scalar OsgEarthNet.uav[37] utilizationCountIdleState 38
scalar OsgEarthNet.uav[37] utilizationFail 0
scalar OsgEarthNet.uav[37] simulationTime 259200
scalar OsgEarthNet.uav[38] utilizationSecMission 24681.477741321
scalar OsgEarthNet.uav[38] utilizationSecMaintenance 10451.384591524
scalar OsgEarthNet.uav[38] utilizationSecCharge 126260.43130461
scalar OsgEarthNet.uav[38] utilizationSecIdle 97806.705362542
scalar OsgEarthNet.uav[38] utilizationEnergyMission 113820.25181198
scalar OsgEarthNet.uav[38] utilizationEnergyMaintenance 47892.840061188
scalar OsgEarthNet.uav[38] utilizationEnergyCharge 158065.0713501
scalar OsgEarthNet.uav[38] utilizationEnergyOverdrawMission 0
scalar OsgEarthNet.uav[38] utilizationEnergyOverdrawMaintenance 0
scalar OsgEarthNet.uav[38] utilizationCountMissions 35
scalar OsgEarthNet.uav[38] utilizationCountManeuversMission 409
scalar OsgEarthNet.uav[38] utilizationCountManeuversMaintenance 70
scalar OsgEarthNet.uav[38] utilizationCountChargeState 35
scalar OsgEarthNet.uav[38] utilizationCountOverdrawnAfterMission 0
scalar OsgEarthNet.uav[38] utilizationCountIdleState 35
scalar OsgEarthNet.uav[38] utilizationFail 0
scalar OsgEarthNet.uav[38] simulationTime 259200
scalar OsgEarthNet.uav[39] utilizationSecMission 760.62515258028
scalar OsgEarthNet.uav[39] utilizationSecMaintenance 291.95923480269
scalar OsgEarthNet.uav[39] utilizationSecCharge 3790
scalar OsgEarthNet.uav[39] utilizationSecIdle 254357.41461262
scalar OsgEarthNet.uav[39] utilizationEnergyMission 3391.5895690918
scalar OsgEarthNet.uav[39] utilizationEnergyMaintenance 1424.5541305542
scalar OsgEarthNet.uav[39] utilizationEnergyCharge 4816.1411132812
scalar OsgEarthNet.uav[39] utilizationEnergyOverdrawMission 0
scalar OsgEarthNet.uav[39] utilizationEnergyOverdrawMaintenance 0
scalar OsgEarthNet.uav[39] utilizationCountMissions 1
scalar OsgEarthNet.uav[39] utilizationCountManeuversMission 12
scalar OsgEarthNet.uav[39] utilizationCountManeuversMaintenance 2
scalar OsgEarthNet.uav[39] utilizationCountChargeState 1
scalar OsgEarthNet.uav[39] utilizationCountOverdrawnAfterMission 0
scalar OsgEarthNet.uav[39] utilizationCountIdleState 2
scalar OsgEarthNet.uav[39] utilizationFail 0
scalar OsgEarthNet.uav[39] simulationTime 259200
scalar OsgEarthNet.uav[40] utilizationSecMission 760.62515258028
scalar OsgEarthNet.uav[40] utilizationSecMaintenance 291.95923480269
scalar OsgEarthNet.uav[40] utilizationSecCharge 3860
scalar OsgEarthNet.uav[40] utilizationSecIdle 254287.41461262
scalar OsgEarthNet.uav[40] utilizationEnergyMission 3433.9125976563
scalar OsgEarthNet.uav[40] utilizationEnergyMaintenance 1513.3215560913
scalar OsgEarthNet.uav[40] utilizationEnergyCharge 4947.2348632812
scalar OsgEarthNet.uav[40] utilizationEnergyOverdrawMission 0
scalar OsgEarthNet.uav[40] utilizationEnergyOverdrawMaintenance 0
scalar OsgEarthNet.uav[40] utilizationCountMissions 1
scalar OsgEarthNet.uav[40] utilizationCountManeuversMission 12
scalar OsgEarthNet.uav[40] utilizationCountManeuversMaintenance 2
scalar OsgEarthNet.uav[40] utilizationCountChargeState 1
scalar OsgEarthNet.uav[40] utilizationCountOverdrawnAfterMission 0
scalar OsgEarthNet.uav[40] utilizationCountIdleState 2
scalar OsgEarthNet.uav[40] utilizationFail 0
scalar OsgEarthNet.uav[40] simulationTime 259200
scalar OsgEarthNet.uav[41] utilizationSecMission 27566.961315592
scalar OsgEarthNet.uav[41] utilizationSecMaintenance 13828.305306601
scalar OsgEarthNet.uav[41] utilizationSecCharge 154660
scalar OsgEarthNet.uav[41] utilizationSecIdle 63144.732377806
scalar OsgEarthNet.uav[41] utilizationEnergyMission 128278.39178467
scalar OsgEarthNet.uav[41] utilizationEnergyMaintenance 65267.404777527
scalar OsgEarthNet.uav[41] utilizationEnergyCharge 193161.69018555
scalar OsgEarthNet.uav[41] utilizationEnergyOverdrawMission 0
scalar OsgEarthNet.uav[41] utilizationEnergyOverdrawMaintenance 0
scalar OsgEarthNet.uav[41] utilizationCountMissions 42
scalar OsgEarthNet.uav[41] utilizationCountManeuversMission 459
scalar OsgEarthNet.uav[41] utilizationCountManeuversMaintenance 84
scalar OsgEarthNet.uav[41] utilizationCountChargeState 42
scalar OsgEarthNet.uav[41] utilizationCountOverdrawnAfterMission 0
scalar OsgEarthNet.uav[41] utilizationCountIdleState 43
scalar OsgEarthNet.uav[41] utilizationFail 0
scalar OsgEarthNet.uav[41] simulationTime 259200
scalar OsgEarthNet.uav[42] utilizationSecMission 11520.093199409
scalar OsgEarthNet.uav[42] utilizationSecMaintenance 3972.8286747306
scalar OsgEarthNet.uav[42] utilizationSecCharge 56790
scalar OsgEarthNet.uav[42] utilizationSecIdle 186917.07712586
scalar OsgEarthNet.uav[42] utilizationEnergyMission 53812.789245605
scalar OsgEarthNet.uav[42] utilizationEnergyMaintenance 18134.5795784
scalar OsgEarthNet.uav[42] utilizationEnergyCharge 71557.952148438
scalar OsgEarthNet.uav[42] utilizationEnergyOverdrawMission 0
scalar OsgEarthNet.uav[42] utilizationEnergyOverdrawMaintenance 0
scalar OsgEarthNet.uav[42] utilizationCountMissions 15
scalar OsgEarthNet.uav[42] utilizationCountManeuversMission 180
scalar OsgEarthNet.uav[42] utilizationCountManeuversMaintenance 30
scalar OsgEarthNet.uav[42] utilizationCountChargeState 15
scalar OsgEarthNet.uav[42] utilizationCountOverdrawnAfterMission 0
scalar OsgEarthNet.uav[42] utilizationCountIdleState 16
scalar OsgEarthNet.uav[42] utilizationFail 0
scalar OsgEarthNet.uav[42] simulationTime 259200
scalar OsgEarthNet.uav[43] utilizationSecMission 623.68863475643
scalar OsgEarthNet.uav[43] utilizationSecMaintenance 394.94199877579
scalar OsgEarthNet.uav[43] utilizationSecCharge 3810
scalar OsgEarthNet.uav[43] utilizationSecIdle 254371.36836647
scalar OsgEarthNet.uav[43] utilizationEnergyMission 3066.1128387451
scalar OsgEarthNet.uav[43] utilizationEnergyMaintenance 1736.853477478
scalar OsgEarthNet.uav[43] utilizationEnergyCharge 4817.548828125
scalar OsgEarthNet.uav[43] utilizationEnergyOverdrawMission 0
scalar OsgEarthNet.uav[43] utilizationEnergyOverdrawMaintenance 0
scalar OsgEarthNet.uav[43] utilizationCountMissions 1
scalar OsgEarthNet.uav[43] utilizationCountManeuversMission 10
scalar OsgEarthNet.uav[43] utilizationCountManeuversMaintenance 2
scalar OsgEarthNet.uav[43] utilizationCountChargeState 1
scalar OsgEarthNet.uav[43] utilizationCountOverdrawnAfterMission 0
scalar OsgEarthNet.uav[43] utilizationCountIdleState 2
scalar OsgEarthNet.uav[43] utilizationFail 0
scalar OsgEarthNet.uav[43] simulationTime 259200
scalar OsgEarthNet.uav[44] utilizationSecMission 28807.164482369
scalar OsgEarthNet.uav[44] utilizationSecMaintenance 13962.738998297
scalar OsgEarthNet.uav[44] utilizationSecCharge 154350.71151475
scalar OsgEarthNet.uav[44] utilizationSecIdle 62079.384004586
scalar OsgEarthNet.uav[44] utilizationEnergyMission 132505.64228821
scalar OsgEarthNet.uav[44] utilizationEnergyMaintenance 64957.283466339
scalar OsgEarthNet.uav[44] utilizationEnergyCharge 194277.37329102
scalar OsgEarthNet.uav[44] utilizationEnergyOverdrawMission 0
scalar OsgEarthNet.uav[44] utilizationEnergyOverdrawMaintenance 0
scalar OsgEarthNet.uav[44] utilizationCountMissions 42
scalar OsgEarthNet.uav[44] utilizationCountManeuversMission 462
scalar OsgEarthNet.uav[44] utilizationCountManeuversMaintenance 84
scalar OsgEarthNet.uav[44] utilizationCountChargeState 42
scalar OsgEarthNet.uav[44] utilizationCountOverdrawnAfterMission 0
scalar OsgEarthNet.uav[44] utilizationCountIdleState 42
scalar OsgEarthNet.uav[44] utilizationFail 0
scalar OsgEarthNet.uav[44] simulationTime 259200
scalar OsgEarthNet.uav[45] utilizationSecMission 698.84532193436
scalar OsgEarthNet.uav[45] utilizationSecMaintenance 251.76601760685
scalar OsgEarthNet.uav[45] utilizationSecCharge 3780
scalar OsgEarthNet.uav[45] utilizationSecIdle 254469.38766046
scalar OsgEarthNet.uav[45] utilizationEnergyMission 3573.3138885498
scalar OsgEarthNet.uav[45] utilizationEnergyMaintenance 1202.4856071472
scalar OsgEarthNet.uav[45] utilizationEnergyCharge 4775.7944335938
scalar OsgEarthNet.uav[45] utilizationEnergyOverdrawMission 0
scalar OsgEarthNet.uav[45] utilizationEnergyOverdrawMaintenance 0
scalar OsgEarthNet.uav[45] utilizationCountMissions 1
scalar OsgEarthNet.uav[45] utilizationCountManeuversMission 10
scalar OsgEarthNet.uav[45] utilizationCountManeuversMaintenance 2
scalar OsgEarthNet.uav[45] utilizationCountChargeState 1
scalar OsgEarthNet.uav[45] utilizationCountOverdrawnAfterMission 0
scalar OsgEarthNet.uav[45] utilizationCountIdleState 2
scalar OsgEarthNet.uav[45] utilizationFail 0
scalar OsgEarthNet.uav[45] simulationTime 259200
scalar OsgEarthNet.uav[46] utilizationSecMission 28984.420400295
scalar OsgEarthNet.uav[46] utilizationSecMaintenance 13855.411097168
scalar OsgEarthNet.uav[46] utilizationSecCharge 157178.16750254
scalar OsgEarthNet.uav[46] utilizationSecIdle 59182
scalar OsgEarthNet.uav[46] utilizationEnergyMission 135641.68873041
scalar OsgEarthNet.uav[46] utilizationEnergyMaintenance 64327.039585114
scalar OsgEarthNet.uav[46] utilizationEnergyCharge 197423.59179688
scalar OsgEarthNet.uav[46] utilizationEnergyOverdrawMission 0
scalar OsgEarthNet.uav[46] utilizationEnergyOverdrawMaintenance 0
scalar OsgEarthNet.uav[46] utilizationCountMissions 43
scalar OsgEarthNet.uav[46] utilizationCountManeuversMission 473
scalar OsgEarthNet.uav[46] utilizationCountManeuversMaintenance 85
scalar OsgEarthNet.uav[46] utilizationCountChargeState 43
scalar OsgEarthNet.uav[46] utilizationCountOverdrawnAfterMission 0
scalar OsgEarthNet.uav[46] utilizationCountIdleState 43
scalar OsgEarthNet.uav[46] utilizationFail 0
scalar OsgEarthNet.uav[46] simulationTime 259200
scalar OsgEarthNet.uav[47] utilizationSecMission 29546.854432857
scalar OsgEarthNet.uav[47] utilizationSecMaintenance 14201.711086071
scalar OsgEarthNet.uav[47] utilizationSecCharge 161320.50588464
scalar OsgEarthNet.uav[47] utilizationSecIdle 54130.92759643
scalar OsgEarthNet.uav[47] utilizationEnergyMission 137105.42735291
scalar OsgEarthNet.uav[47] utilizationEnergyMaintenance 67306.09179306
scalar OsgEarthNet.uav[47] utilizationEnergyCharge 202924.36474609
scalar OsgEarthNet.uav[47] utilizationEnergyOverdrawMission 0
scalar OsgEarthNet.uav[47] utilizationEnergyOverdrawMaintenance 0
scalar OsgEarthNet.uav[47] utilizationCountMissions 44
scalar OsgEarthNet.uav[47] utilizationCountManeuversMission 492
scalar OsgEarthNet.uav[47] utilizationCountManeuversMaintenance 88
scalar OsgEarthNet.uav[47] utilizationCountChargeState 44
scalar OsgEarthNet.uav[47] utilizationCountOverdrawnAfterMission 0
scalar OsgEarthNet.uav[47] utilizationCountIdleState 44
scalar OsgEarthNet.uav[47] utilizationFail 0
scalar OsgEarthNet.uav[47] simulationTime 259200
scalar OsgEarthNet.uav[48] utilizationSecMission 887.1741082606
scalar OsgEarthNet.uav[48] utilizationSecMaintenance 148.2728194454
scalar OsgEarthNet.uav[48] utilizationSecCharge 3810
scalar OsgEarthNet.uav[48] utilizationSecIdle 254354.55207229
scalar OsgEarthNet.uav[48] utilizationEnergyMission 3793.2119445801
scalar OsgEarthNet.uav[48] utilizationEnergyMaintenance 687.40657806396
scalar OsgEarthNet.uav[48] utilizationEnergyCharge 4817.3583984375
scalar OsgEarthNet.uav[48] utilizationEnergyOverdrawMission 0
scalar OsgEarthNet.uav[48] utilizationEnergyOverdrawMaintenance 0
scalar OsgEarthNet.uav[48] utilizationCountMissions 1
scalar OsgEarthNet.uav[48] utilizationCountManeuversMission 14
scalar OsgEarthNet.uav[48] utilizationCountManeuversMaintenance 2
scalar OsgEarthNet.uav[48] utilizationCountChargeState 1
scalar OsgEarthNet.uav[48] utilizationCountOverdrawnAfterMission 0
scalar OsgEarthNet.uav[48] utilizationCountIdleState 2
scalar OsgEarthNet.uav[48] utilizationFail 0
scalar OsgEarthNet.uav[48] simulationTime 259200
scalar OsgEarthNet.uav[49] utilizationSecMission 760.62515258028
scalar OsgEarthNet.uav[49] utilizationSecMaintenance 291.95923480269
scalar OsgEarthNet.uav[49] utilizationSecCharge 3790
scalar OsgEarthNet.uav[49] utilizationSecIdle 254357.41461262
scalar OsgEarthNet.uav[49] utilizationEnergyMission 3407.0720672607
scalar OsgEarthNet.uav[49] utilizationEnergyMaintenance 1383.0373153687
scalar OsgEarthNet.uav[49] utilizationEnergyCharge 4790.1127929688
scalar OsgEarthNet.uav[49] utilizationEnergyOverdrawMission 0
scalar OsgEarthNet.uav[49] utilizationEnergyOverdrawMaintenance 0
scalar OsgEarthNet.uav[49] utilizationCountMissions 1
scalar OsgEarthNet.uav[49] utilizationCountManeuversMission 12
scalar OsgEarthNet.uav[49] utilizationCountManeuversMaintenance 2
scalar OsgEarthNet.uav[49] utilizationCountChargeState 1
scalar OsgEarthNet.uav[49] utilizationCountOverdrawnAfterMission 0
scalar OsgEarthNet.uav[49] utilizationCountIdleState 2
scalar OsgEarthNet.uav[49] utilizationFail 0
scalar OsgEarthNet.uav[49] simulationTime 259200
scalar OsgEarthNet.uav[50] utilizationSecMission 1510.8298800585
scalar OsgEarthNet.uav[50] utilizationSecMaintenance 526.35035959113
scalar OsgEarthNet.uav[50] utilizationSecCharge 7600
scalar OsgEarthNet.uav[50] utilizationSecIdle 249562.81876035
scalar OsgEarthNet.uav[50] utilizationEnergyMission 7118.3885955811
scalar OsgEarthNet.uav[50] utilizationEnergyMaintenance 2506.7682533264
scalar OsgEarthNet.uav[50] utilizationEnergyCharge 9625.1630859375
scalar OsgEarthNet.uav[50] utilizationEnergyOverdrawMission 0
scalar OsgEarthNet.uav[50] utilizationEnergyOverdrawMaintenance 0
scalar OsgEarthNet.uav[50] utilizationCountMissions 2
scalar OsgEarthNet.uav[50] utilizationCountManeuversMission 23
scalar OsgEarthNet.uav[50] utilizationCountManeuversMaintenance 4
scalar OsgEarthNet.uav[50] utilizationCountChargeState 2
scalar OsgEarthNet.uav[50] utilizationCountOverdrawnAfterMission 0
scalar OsgEarthNet.uav[50] utilizationCountIdleState 3
scalar OsgEarthNet.uav[50] utilizationFail 0
scalar OsgEarthNet.uav[50] simulationTime 259200
scalar OsgEarthNet.uav[51] utilizationSecMission 28455.315687494
scalar OsgEarthNet.uav[51] utilizationSecMaintenance 13637.368226291
scalar OsgEarthNet.uav[51] utilizationSecCharge 154500
scalar OsgEarthNet.uav[51] utilizationSecIdle 62607.315086215
scalar OsgEarthNet.uav[51] utilizationEnergyMission 131152.72627936
scalar OsgEarthNet.uav[51] utilizationEnergyMaintenance 64496.331455231
scalar OsgEarthNet.uav[51] utilizationEnergyCharge 192740.37133789
scalar OsgEarthNet.uav[51] utilizationEnergyOverdrawMission 0
scalar OsgEarthNet.uav[51] utilizationEnergyOverdrawMaintenance 0
scalar OsgEarthNet.uav[51] utilizationCountMissions 42
scalar OsgEarthNet.uav[51] utilizationCountManeuversMission 461
scalar OsgEarthNet.uav[51] utilizationCountManeuversMaintenance 85
scalar OsgEarthNet.uav[51] utilizationCountChargeState 42
scalar OsgEarthNet.uav[51] utilizationCountOverdrawnAfterMission 0
scalar OsgEarthNet.uav[51] utilizationCountIdleState 43
scalar OsgEarthNet.uav[51] utilizationFail 0
scalar OsgEarthNet.uav[51] simulationTime 259200
scalar OsgEarthNet.uav[52] utilizationSecMission 26144.477770866
scalar OsgEarthNet.uav[52] utilizationSecMaintenance 11511.240811668
scalar OsgEarthNet.uav[52] utilizationSecCharge 140770
scalar OsgEarthNet.uav[52] utilizationSecIdle 80774.280417465
scalar OsgEarthNet.uav[52] utilizationEnergyMission 122110.33175659
scalar OsgEarthNet.uav[52] utilizationEnergyMaintenance 54157.355247498
scalar OsgEarthNet.uav[52] utilizationEnergyCharge 175944.77246094
scalar OsgEarthNet.uav[52] utilizationEnergyOverdrawMission 0
scalar OsgEarthNet.uav[52] utilizationEnergyOverdrawMaintenance 0
scalar OsgEarthNet.uav[52] utilizationCountMissions 38
scalar OsgEarthNet.uav[52] utilizationCountManeuversMission 424
scalar OsgEarthNet.uav[52] utilizationCountManeuversMaintenance 76
scalar OsgEarthNet.uav[52] utilizationCountChargeState 38
scalar OsgEarthNet.uav[52] utilizationCountOverdrawnAfterMission 0
scalar OsgEarthNet.uav[52] utilizationCountIdleState 39
scalar OsgEarthNet.uav[52] utilizationFail 0
scalar OsgEarthNet.uav[52] simulationTime 259200
scalar OsgEarthNet.uav[53] utilizationSecMission 760.62515258028
scalar OsgEarthNet.uav[53] utilizationSecMaintenance 291.95923480269
scalar OsgEarthNet.uav[53] utilizationSecCharge 3750
scalar OsgEarthNet.uav[53] utilizationSecIdle 254397.41461262
scalar OsgEarthNet.uav[53] utilizationEnergyMission 3348.1658172607
scalar OsgEarthNet.uav[53] utilizationEnergyMaintenance 1428.2598495483
scalar OsgEarthNet.uav[53] utilizationEnergyCharge 4776.423828125
scalar OsgEarthNet.uav[53] utilizationEnergyOverdrawMission 0
scalar OsgEarthNet.uav[53] utilizationEnergyOverdrawMaintenance 0
scalar OsgEarthNet.uav[53] utilizationCountMissions 1
scalar OsgEarthNet.uav[53] utilizationCountManeuversMission 12
scalar OsgEarthNet.uav[53] utilizationCountManeuversMaintenance 2
scalar OsgEarthNet.uav[53] utilizationCountChargeState 1
scalar OsgEarthNet.uav[53] utilizationCountOverdrawnAfterMission 0
scalar OsgEarthNet.uav[53] utilizationCountIdleState 2
scalar OsgEarthNet.uav[53] utilizationFail 0
scalar OsgEarthNet.uav[53] simulationTime 259200
scalar OsgEarthNet.uav[54] utilizationSecMission 27213.465175779
scalar OsgEarthNet.uav[54] utilizationSecMaintenance 13132.033676622
scalar OsgEarthNet.uav[54] utilizationSecCharge 148909.07764062
scalar OsgEarthNet.uav[54] utilizationSecIdle 69945.42250698
scalar OsgEarthNet.uav[54] utilizationEnergyMission 125734.81043625
scalar OsgEarthNet.uav[54] utilizationEnergyMaintenance 61885.776748657
scalar OsgEarthNet.uav[54] utilizationEnergyCharge 187787.0703125
scalar OsgEarthNet.uav[54] utilizationEnergyOverdrawMission 0
scalar OsgEarthNet.uav[54] utilizationEnergyOverdrawMaintenance 0
scalar OsgEarthNet.uav[54] utilizationCountMissions 40
scalar OsgEarthNet.uav[54] utilizationCountManeuversMission 440
scalar OsgEarthNet.uav[54] utilizationCountManeuversMaintenance 80
scalar OsgEarthNet.uav[54] utilizationCountChargeState 40
scalar OsgEarthNet.uav[54] utilizationCountOverdrawnAfterMission 0
scalar OsgEarthNet.uav[54] utilizationCountIdleState 40
scalar OsgEarthNet.uav[54] utilizationFail 0
scalar OsgEarthNet.uav[54] simulationTime 259200
scalar OsgEarthNet.uav[55] utilizationSecMission 694.00169469977
scalar OsgEarthNet.uav[55] utilizationSecMaintenance 338.49695459722
scalar OsgEarthNet.uav[55] utilizationSecCharge 3830
scalar OsgEarthNet.uav[55] utilizationSecIdle 254337.5003507
scalar OsgEarthNet.uav[55] utilizationEnergyMission 3275.3985443115
scalar OsgEarthNet.uav[55] utilizationEnergyMaintenance 1572.9233512878
scalar OsgEarthNet.uav[55] utilizationEnergyCharge 4848.3198242188
scalar OsgEarthNet.uav[55] utilizationEnergyOverdrawMission 0
scalar OsgEarthNet.uav[55] utilizationEnergyOverdrawMaintenance 0
scalar OsgEarthNet.uav[55] utilizationCountMissions 1
scalar OsgEarthNet.uav[55] utilizationCountManeuversMission 13
scalar OsgEarthNet.uav[55] utilizationCountManeuversMaintenance 2
scalar OsgEarthNet.uav[55] utilizationCountChargeState 1
scalar OsgEarthNet.uav[55] utilizationCountOverdrawnAfterMission 0
scalar OsgEarthNet.uav[55] utilizationCountIdleState 2
scalar OsgEarthNet.uav[55] utilizationFail 0
scalar OsgEarthNet.uav[55] simulationTime 259200
scalar OsgEarthNet.uav[56] utilizationSecMission 702.6942798579
scalar OsgEarthNet.uav[56] utilizationSecMaintenance 282.29565405678
scalar OsgEarthNet.uav[56] utilizationSecCharge 3790
scalar OsgEarthNet.uav[56] utilizationSecIdle 254425.00906609
scalar OsgEarthNet.uav[56] utilizationEnergyMission 3451.6627197266
scalar OsgEarthNet.uav[56] utilizationEnergyMaintenance 1325.5288505554
scalar OsgEarthNet.uav[56] utilizationEnergyCharge 4777.1865234375
scalar OsgEarthNet.uav[56] utilizationEnergyOverdrawMission 0
scalar OsgEarthNet.uav[56] utilizationEnergyOverdrawMaintenance 0
scalar OsgEarthNet.uav[56] utilizationCountMissions 1
scalar OsgEarthNet.uav[56] utilizationCountManeuversMission 10
scalar OsgEarthNet.uav[56] utilizationCountManeuversMaintenance 2
scalar OsgEarthNet.uav[56] utilizationCountChargeState 1
scalar OsgEarthNet.uav[56] utilizationCountOverdrawnAfterMission 0
scalar OsgEarthNet.uav[56] utilizationCountIdleState 2
scalar OsgEarthNet.uav[56] utilizationFail 0
scalar OsgEarthNet.uav[56] simulationTime 259200
scalar OsgEarthNet.uav[57] utilizationSecMission 30953.402537237
scalar OsgEarthNet.uav[57] utilizationSecMaintenance 12458.443793556
scalar OsgEarthNet.uav[57] utilizationSecCharge 157730.74907137
scalar OsgEarthNet.uav[57] utilizationSecIdle 58057.403597832
scalar OsgEarthNet.uav[57] utilizationEnergyMission 142651.54589844
scalar OsgEarthNet.uav[57] utilizationEnergyMaintenance 58288.258895874
scalar OsgEarthNet.uav[57] utilizationEnergyCharge 196514.42102051
scalar OsgEarthNet.uav[57] utilizationEnergyOverdrawMission 0
scalar OsgEarthNet.uav[57] utilizationEnergyOverdrawMaintenance 0
scalar OsgEarthNet.uav[57] utilizationCountMissions 44
scalar OsgEarthNet.uav[57] utilizationCountManeuversMission 503
scalar OsgEarthNet.uav[57] utilizationCountManeuversMaintenance 88
scalar OsgEarthNet.uav[57] utilizationCountChargeState 44
scalar OsgEarthNet.uav[57] utilizationCountOverdrawnAfterMission 0
scalar OsgEarthNet.uav[57] utilizationCountIdleState 44
scalar OsgEarthNet.uav[57] utilizationFail 0
scalar OsgEarthNet.uav[57] simulationTime 259200
scalar OsgEarthNet.uav[58] utilizationSecMission 30231.80596403
scalar OsgEarthNet.uav[58] utilizationSecMaintenance 13684.750038188
scalar OsgEarthNet.uav[58] utilizationSecCharge 161407.20116216
scalar OsgEarthNet.uav[58] utilizationSecIdle 53876.241835621
scalar OsgEarthNet.uav[58] utilizationEnergyMission 138576.60351562
scalar OsgEarthNet.uav[58] utilizationEnergyMaintenance 63034.667098999
scalar OsgEarthNet.uav[58] utilizationEnergyCharge 201467.21386719
scalar OsgEarthNet.uav[58] utilizationEnergyOverdrawMission 0
scalar OsgEarthNet.uav[58] utilizationEnergyOverdrawMaintenance 0
scalar OsgEarthNet.uav[58] utilizationCountMissions 44
scalar OsgEarthNet.uav[58] utilizationCountManeuversMission 485
scalar OsgEarthNet.uav[58] utilizationCountManeuversMaintenance 88
scalar OsgEarthNet.uav[58] utilizationCountChargeState 44
scalar OsgEarthNet.uav[58] utilizationCountOverdrawnAfterMission 0
scalar OsgEarthNet.uav[58] utilizationCountIdleState 44
scalar OsgEarthNet.uav[58] utilizationFail 0
scalar OsgEarthNet.uav[58] simulationTime 259200
scalar OsgEarthNet.uav[59] utilizationSecMission 702.6942798579
scalar OsgEarthNet.uav[59] utilizationSecMaintenance 282.29565405678
scalar OsgEarthNet.uav[59] utilizationSecCharge 3680
scalar OsgEarthNet.uav[59] utilizationSecIdle 254535.00906609
scalar OsgEarthNet.uav[59] utilizationEnergyMission 3265.7925872803
scalar OsgEarthNet.uav[59] utilizationEnergyMaintenance 1330.5638237
scalar OsgEarthNet.uav[59] utilizationEnergyCharge 4596.3608398438
scalar OsgEarthNet.uav[59] utilizationEnergyOverdrawMission 0
scalar OsgEarthNet.uav[59] utilizationEnergyOverdrawMaintenance 0
scalar OsgEarthNet.uav[59] utilizationCountMissions 1
scalar OsgEarthNet.uav[59] utilizationCountManeuversMission 10
scalar OsgEarthNet.uav[59] utilizationCountManeuversMaintenance 2
scalar OsgEarthNet.uav[59] utilizationCountChargeState 1
scalar OsgEarthNet.uav[59] utilizationCountOverdrawnAfterMission 0
scalar OsgEarthNet.uav[59] utilizationCountIdleState 2
scalar OsgEarthNet.uav[59] utilizationFail 0
scalar OsgEarthNet.uav[59] simulationTime 259200
scalar OsgEarthNet.uav[60] utilizationSecMission 4793.5282466022
scalar OsgEarthNet.uav[60] utilizationSecMaintenance 1557.1911333278
scalar OsgEarthNet.uav[60] utilizationSecCharge 23350
scalar OsgEarthNet.uav[60] utilizationSecIdle 229499.27962007
scalar OsgEarthNet.uav[60] utilizationEnergyMission 22068.887588501
scalar OsgEarthNet.uav[60] utilizationEnergyMaintenance 7498.195148468
scalar OsgEarthNet.uav[60] utilizationEnergyCharge 29696.690429688
scalar OsgEarthNet.uav[60] utilizationEnergyOverdrawMission 0
scalar OsgEarthNet.uav[60] utilizationEnergyOverdrawMaintenance 0
scalar OsgEarthNet.uav[60] utilizationCountMissions 6
scalar OsgEarthNet.uav[60] utilizationCountManeuversMission 77
scalar OsgEarthNet.uav[60] utilizationCountManeuversMaintenance 12
scalar OsgEarthNet.uav[60] utilizationCountChargeState 6
scalar OsgEarthNet.uav[60] utilizationCountOverdrawnAfterMission 0
scalar OsgEarthNet.uav[60] utilizationCountIdleState 7
scalar OsgEarthNet.uav[60] utilizationFail 0
scalar OsgEarthNet.uav[60] simulationTime 259200
scalar OsgEarthNet.uav[61] utilizationSecMission 20574.109018427
scalar OsgEarthNet.uav[61] utilizationSecMaintenance 11163.724032403
scalar OsgEarthNet.uav[61] utilizationSecCharge 118819.34824749
scalar OsgEarthNet.uav[61] utilizationSecIdle 108642.81770168
scalar OsgEarthNet.uav[61] utilizationEnergyMission 96878.76953125
scalar OsgEarthNet.uav[61] utilizationEnergyMaintenance 53116.566051483
scalar OsgEarthNet.uav[61] utilizationEnergyCharge 149577.42626953
scalar OsgEarthNet.uav[61] utilizationEnergyOverdrawMission 0
scalar OsgEarthNet.uav[61] utilizationEnergyOverdrawMaintenance 0
scalar OsgEarthNet.uav[61] utilizationCountMissions 32
scalar OsgEarthNet.uav[61] utilizationCountManeuversMission 334
scalar OsgEarthNet.uav[61] utilizationCountManeuversMaintenance 64
scalar OsgEarthNet.uav[61] utilizationCountChargeState 32
scalar OsgEarthNet.uav[61] utilizationCountOverdrawnAfterMission 0
scalar OsgEarthNet.uav[61] utilizationCountIdleState 32
scalar OsgEarthNet.uav[61] utilizationFail 0
scalar OsgEarthNet.uav[61] simulationTime 259200
scalar OsgEarthNet.uav[62] utilizationSecMission 17563.844505297
scalar OsgEarthNet.uav[62] utilizationSecMaintenance 7650.3381638186
scalar OsgEarthNet.uav[62] utilizationSecCharge 93126.96817109
scalar OsgEarthNet.uav[62] utilizationSecIdle 140858.84815979
scalar OsgEarthNet.uav[62] utilizationEnergyMission 82062.702278137
scalar OsgEarthNet.uav[62] utilizationEnergyMaintenance 35836.191612244
scalar OsgEarthNet.uav[62] utilizationEnergyCharge 117519.22412109
scalar OsgEarthNet.uav[62] utilizationEnergyOverdrawMission 0
scalar OsgEarthNet.uav[62] utilizationEnergyOverdrawMaintenance 0
scalar OsgEarthNet.uav[62] utilizationCountMissions 25
scalar OsgEarthNet.uav[62] utilizationCountManeuversMission 280
scalar OsgEarthNet.uav[62] utilizationCountManeuversMaintenance 50
scalar OsgEarthNet.uav[62] utilizationCountChargeState 25
scalar OsgEarthNet.uav[62] utilizationCountOverdrawnAfterMission 0
scalar OsgEarthNet.uav[62] utilizationCountIdleState 25
scalar OsgEarthNet.uav[62] utilizationFail 0
scalar OsgEarthNet.uav[62] simulationTime 259200
scalar OsgEarthNet.uav[63] utilizationSecMission 760.62515258028
scalar OsgEarthNet.uav[63] utilizationSecMaintenance 291.95923480269
scalar OsgEarthNet.uav[63] utilizationSecCharge 3740
scalar OsgEarthNet.uav[63] utilizationSecIdle 254407.41461262
scalar OsgEarthNet.uav[63] utilizationEnergyMission 3419.3998413086
scalar OsgEarthNet.uav[63] utilizationEnergyMaintenance 1303.1314926147
scalar OsgEarthNet.uav[63] utilizationEnergyCharge 4722.5346679688
scalar OsgEarthNet.uav[63] utilizationEnergyOverdrawMission 0
scalar OsgEarthNet.uav[63] utilizationEnergyOverdrawMaintenance 0
scalar OsgEarthNet.uav[63] utilizationCountMissions 1
scalar OsgEarthNet.uav[63] utilizationCountManeuversMission 12
scalar OsgEarthNet.uav[63] utilizationCountManeuversMaintenance 2
scalar OsgEarthNet.uav[63] utilizationCountChargeState 1
scalar OsgEarthNet.uav[63] utilizationCountOverdrawnAfterMission 0
scalar OsgEarthNet.uav[63] utilizationCountIdleState 2
scalar OsgEarthNet.uav[63] utilizationFail 0
scalar OsgEarthNet.uav[63] simulationTime 259200
scalar OsgEarthNet.uav[64] utilizationSecMission 27108.878213251
scalar OsgEarthNet.uav[64] utilizationSecMaintenance 14424.534284861
scalar OsgEarthNet.uav[64] utilizationSecCharge 155690
scalar OsgEarthNet.uav[64] utilizationSecIdle 61976.586501888
scalar OsgEarthNet.uav[64] utilizationEnergyMission 126122.08122253
scalar OsgEarthNet.uav[64] utilizationEnergyMaintenance 68761.308479309
scalar OsgEarthNet.uav[64] utilizationEnergyCharge 194724.93896484
scalar OsgEarthNet.uav[64] utilizationEnergyOverdrawMission 0
scalar OsgEarthNet.uav[64] utilizationEnergyOverdrawMaintenance 0
scalar OsgEarthNet.uav[64] utilizationCountMissions 42
scalar OsgEarthNet.uav[64] utilizationCountManeuversMission 443
scalar OsgEarthNet.uav[64] utilizationCountManeuversMaintenance 84
scalar OsgEarthNet.uav[64] utilizationCountChargeState 42
scalar OsgEarthNet.uav[64] utilizationCountOverdrawnAfterMission 0
scalar OsgEarthNet.uav[64] utilizationCountIdleState 43
scalar OsgEarthNet.uav[64] utilizationFail 0
scalar OsgEarthNet.uav[64] simulationTime 259200
scalar OsgEarthNet.uav[65] utilizationSecMission 11521.157410117
scalar OsgEarthNet.uav[65] utilizationSecMaintenance 3805.0011705612
scalar OsgEarthNet.uav[65] utilizationSecCharge 56730
scalar OsgEarthNet.uav[65] utilizationSecIdle 187143.84041932
scalar OsgEarthNet.uav[65] utilizationEnergyMission 53779.319957733
[...]
scalar OsgEarthNet.uav[82] utilizationSecIdle 249988.72064478
scalar OsgEarthNet.uav[82] utilizationEnergyMission 5188.2460174561
scalar OsgEarthNet.uav[82] utilizationEnergyMaintenance 3810.1349105835
scalar OsgEarthNet.uav[82] utilizationEnergyCharge 8998.3823242188
scalar OsgEarthNet.uav[82] utilizationEnergyOverdrawMission 0
scalar OsgEarthNet.uav[82] utilizationEnergyOverdrawMaintenance 0
scalar OsgEarthNet.uav[82] utilizationCountMissions 2
scalar OsgEarthNet.uav[82] utilizationCountManeuversMission 22
scalar OsgEarthNet.uav[82] utilizationCountManeuversMaintenance 4
scalar OsgEarthNet.uav[82] utilizationCountChargeState 2
scalar OsgEarthNet.uav[82] utilizationCountOverdrawnAfterMission 0
scalar OsgEarthNet.uav[82] utilizationCountIdleState 3
scalar OsgEarthNet.uav[82] utilizationFail 0
scalar OsgEarthNet.uav[82] simulationTime 259200
scalar OsgEarthNet.uav[83] utilizationSecMission 702.6942798579
scalar OsgEarthNet.uav[83] utilizationSecMaintenance 282.29565405678
scalar OsgEarthNet.uav[83] utilizationSecCharge 3730
scalar OsgEarthNet.uav[83] utilizationSecIdle 254485.00906609
scalar OsgEarthNet.uav[83] utilizationEnergyMission 3369.4745483398
scalar OsgEarthNet.uav[83] utilizationEnergyMaintenance 1316.4949150085
scalar OsgEarthNet.uav[83] utilizationEnergyCharge 4685.9663085938
scalar OsgEarthNet.uav[83] utilizationEnergyOverdrawMission 0
scalar OsgEarthNet.uav[83] utilizationEnergyOverdrawMaintenance 0
scalar OsgEarthNet.uav[83] utilizationCountMissions 1
scalar OsgEarthNet.uav[83] utilizationCountManeuversMission 10
scalar OsgEarthNet.uav[83] utilizationCountManeuversMaintenance 2
scalar OsgEarthNet.uav[83] utilizationCountChargeState 1
scalar OsgEarthNet.uav[83] utilizationCountOverdrawnAfterMission 0
scalar OsgEarthNet.uav[83] utilizationCountIdleState 2
scalar OsgEarthNet.uav[83] utilizationFail 0
scalar OsgEarthNet.uav[83] simulationTime 259200
scalar OsgEarthNet.uav[84] utilizationSecMission 23238.784606082
scalar OsgEarthNet.uav[84] utilizationSecMaintenance 14207.742527625
scalar OsgEarthNet.uav[84] utilizationSecCharge 139061.28844294
scalar OsgEarthNet.uav[84] utilizationSecIdle 82692.183423353
scalar OsgEarthNet.uav[84] utilizationEnergyMission 107089.12837982
scalar OsgEarthNet.uav[84] utilizationEnergyMaintenance 66901.944019318
scalar OsgEarthNet.uav[84] utilizationEnergyCharge 173147.74560547
scalar OsgEarthNet.uav[84] utilizationEnergyOverdrawMission 0
scalar OsgEarthNet.uav[84] utilizationEnergyOverdrawMaintenance 0
scalar OsgEarthNet.uav[84] utilizationCountMissions 39
scalar OsgEarthNet.uav[84] utilizationCountManeuversMission 395
scalar OsgEarthNet.uav[84] utilizationCountManeuversMaintenance 78
scalar OsgEarthNet.uav[84] utilizationCountChargeState 39
scalar OsgEarthNet.uav[84] utilizationCountOverdrawnAfterMission 0
scalar OsgEarthNet.uav[84] utilizationCountIdleState 39
scalar OsgEarthNet.uav[84] utilizationFail 0
scalar OsgEarthNet.uav[84] simulationTime 259200
scalar OsgEarthNet.uav[85] utilizationSecMission 694.00169469977
scalar OsgEarthNet.uav[85] utilizationSecMaintenance 338.49695459722
scalar OsgEarthNet.uav[85] utilizationSecCharge 3660
scalar OsgEarthNet.uav[85] utilizationSecIdle 254507.5003507
scalar OsgEarthNet.uav[85] utilizationEnergyMission 3075.240032196
scalar OsgEarthNet.uav[85] utilizationEnergyMaintenance 1458.2114372253
scalar OsgEarthNet.uav[85] utilizationEnergyCharge 4533.4467773438
scalar OsgEarthNet.uav[85] utilizationEnergyOverdrawMission 0
scalar OsgEarthNet.uav[85] utilizationEnergyOverdrawMaintenance 0
scalar OsgEarthNet.uav[85] utilizationCountMissions 1
scalar OsgEarthNet.uav[85] utilizationCountManeuversMission 13
scalar OsgEarthNet.uav[85] utilizationCountManeuversMaintenance 2
scalar OsgEarthNet.uav[85] utilizationCountChargeState 1
scalar OsgEarthNet.uav[85] utilizationCountOverdrawnAfterMission 0
scalar OsgEarthNet.uav[85] utilizationCountIdleState 2
scalar OsgEarthNet.uav[85] utilizationFail 0
scalar OsgEarthNet.uav[85] simulationTime 259200
scalar OsgEarthNet.uav[86] utilizationSecMission 760.62515258028
scalar OsgEarthNet.uav[86] utilizationSecMaintenance 291.95923480269
scalar OsgEarthNet.uav[86] utilizationSecCharge 3800
scalar OsgEarthNet.uav[86] utilizationSecIdle 254347.41461262
scalar OsgEarthNet.uav[86] utilizationEnergyMission 3324.3541412354
scalar OsgEarthNet.uav[86] utilizationEnergyMaintenance 1493.711479187
scalar OsgEarthNet.uav[86] utilizationEnergyCharge 4818.0668945312
scalar OsgEarthNet.uav[86] utilizationEnergyOverdrawMission 0
scalar OsgEarthNet.uav[86] utilizationEnergyOverdrawMaintenance 0
scalar OsgEarthNet.uav[86] utilizationCountMissions 1
scalar OsgEarthNet.uav[86] utilizationCountManeuversMission 12
scalar OsgEarthNet.uav[86] utilizationCountManeuversMaintenance 2
scalar OsgEarthNet.uav[86] utilizationCountChargeState 1
scalar OsgEarthNet.uav[86] utilizationCountOverdrawnAfterMission 0
scalar OsgEarthNet.uav[86] utilizationCountIdleState 2
scalar OsgEarthNet.uav[86] utilizationFail 0
scalar OsgEarthNet.uav[86] simulationTime 259200
scalar OsgEarthNet.uav[87] utilizationSecMission 28080.474538435
scalar OsgEarthNet.uav[87] utilizationSecMaintenance 13870.438920838
scalar OsgEarthNet.uav[87] utilizationSecCharge 153148.97103575
scalar OsgEarthNet.uav[87] utilizationSecIdle 64100.114504981
scalar OsgEarthNet.uav[87] utilizationEnergyMission 129231.10675049
scalar OsgEarthNet.uav[87] utilizationEnergyMaintenance 65721.057685852
scalar OsgEarthNet.uav[87] utilizationEnergyCharge 190286.45635986
scalar OsgEarthNet.uav[87] utilizationEnergyOverdrawMission 0
scalar OsgEarthNet.uav[87] utilizationEnergyOverdrawMaintenance 0
scalar OsgEarthNet.uav[87] utilizationCountMissions 43
scalar OsgEarthNet.uav[87] utilizationCountManeuversMission 452
scalar OsgEarthNet.uav[87] utilizationCountManeuversMaintenance 86
scalar OsgEarthNet.uav[87] utilizationCountChargeState 43
scalar OsgEarthNet.uav[87] utilizationCountOverdrawnAfterMission 0
scalar OsgEarthNet.uav[87] utilizationCountIdleState 43
scalar OsgEarthNet.uav[87] utilizationFail 0
scalar OsgEarthNet.uav[87] simulationTime 259200
scalar OsgEarthNet.uav[88] utilizationSecMission 887.1741082606
scalar OsgEarthNet.uav[88] utilizationSecMaintenance 148.2728194454
scalar OsgEarthNet.uav[88] utilizationSecCharge 3810
scalar OsgEarthNet.uav[88] utilizationSecIdle 254354.55207229
scalar OsgEarthNet.uav[88] utilizationEnergyMission 4235.8996276856
scalar OsgEarthNet.uav[88] utilizationEnergyMaintenance 719.73299407959
scalar OsgEarthNet.uav[88] utilizationEnergyCharge 4815.2768554688
scalar OsgEarthNet.uav[88] utilizationEnergyOverdrawMission 0
scalar OsgEarthNet.uav[88] utilizationEnergyOverdrawMaintenance 0
scalar OsgEarthNet.uav[88] utilizationCountMissions 1
scalar OsgEarthNet.uav[88] utilizationCountManeuversMission 14
scalar OsgEarthNet.uav[88] utilizationCountManeuversMaintenance 2
scalar OsgEarthNet.uav[88] utilizationCountChargeState 1
scalar OsgEarthNet.uav[88] utilizationCountOverdrawnAfterMission 0
scalar OsgEarthNet.uav[88] utilizationCountIdleState 2
scalar OsgEarthNet.uav[88] utilizationFail 0
scalar OsgEarthNet.uav[88] simulationTime 259200
scalar OsgEarthNet.uav[89] utilizationSecMission 1521.2503051606
scalar OsgEarthNet.uav[89] utilizationSecMaintenance 480.20622259878
scalar OsgEarthNet.uav[89] utilizationSecCharge 7100
scalar OsgEarthNet.uav[89] utilizationSecIdle 250098.54247224
scalar OsgEarthNet.uav[89] utilizationEnergyMission 6452.2043914795
scalar OsgEarthNet.uav[89] utilizationEnergyMaintenance 2269.602848053
scalar OsgEarthNet.uav[89] utilizationEnergyCharge 8721.8090820312
scalar OsgEarthNet.uav[89] utilizationEnergyOverdrawMission 0
scalar OsgEarthNet.uav[89] utilizationEnergyOverdrawMaintenance 0
scalar OsgEarthNet.uav[89] utilizationCountMissions 2
scalar OsgEarthNet.uav[89] utilizationCountManeuversMission 24
scalar OsgEarthNet.uav[89] utilizationCountManeuversMaintenance 4
scalar OsgEarthNet.uav[89] utilizationCountChargeState 2
scalar OsgEarthNet.uav[89] utilizationCountOverdrawnAfterMission 0
scalar OsgEarthNet.uav[89] utilizationCountIdleState 3
scalar OsgEarthNet.uav[89] utilizationFail 0
scalar OsgEarthNet.uav[89] simulationTime 259200
scalar OsgEarthNet.uav[90] utilizationSecMission 1169.7549995704
scalar OsgEarthNet.uav[90] utilizationSecMaintenance 817.34729109025
scalar OsgEarthNet.uav[90] utilizationSecCharge 7380
scalar OsgEarthNet.uav[90] utilizationSecIdle 249832.89670934
scalar OsgEarthNet.uav[90] utilizationEnergyMission 5387.6354370117
scalar OsgEarthNet.uav[90] utilizationEnergyMaintenance 3884.6385231018
scalar OsgEarthNet.uav[90] utilizationEnergyCharge 9272.28125
scalar OsgEarthNet.uav[90] utilizationEnergyOverdrawMission 0
scalar OsgEarthNet.uav[90] utilizationEnergyOverdrawMaintenance 0
scalar OsgEarthNet.uav[90] utilizationCountMissions 2
scalar OsgEarthNet.uav[90] utilizationCountManeuversMission 19
scalar OsgEarthNet.uav[90] utilizationCountManeuversMaintenance 4
scalar OsgEarthNet.uav[90] utilizationCountChargeState 2
scalar OsgEarthNet.uav[90] utilizationCountOverdrawnAfterMission 0
scalar OsgEarthNet.uav[90] utilizationCountIdleState 3
scalar OsgEarthNet.uav[90] utilizationFail 0
scalar OsgEarthNet.uav[90] simulationTime 259200
scalar OsgEarthNet.uav[91] utilizationSecMission 847.51142080213
scalar OsgEarthNet.uav[91] utilizationSecMaintenance 964.40137468536
scalar OsgEarthNet.uav[91] utilizationSecCharge 6840
scalar OsgEarthNet.uav[91] utilizationSecIdle 250548.08620451
scalar OsgEarthNet.uav[91] utilizationEnergyMission 3918.4338531494
scalar OsgEarthNet.uav[91] utilizationEnergyMaintenance 4331.3596534729
scalar OsgEarthNet.uav[91] utilizationEnergyCharge 8249.7924804688
scalar OsgEarthNet.uav[91] utilizationEnergyOverdrawMission 0
scalar OsgEarthNet.uav[91] utilizationEnergyOverdrawMaintenance 0
scalar OsgEarthNet.uav[91] utilizationCountMissions 2
scalar OsgEarthNet.uav[91] utilizationCountManeuversMission 15
scalar OsgEarthNet.uav[91] utilizationCountManeuversMaintenance 4
scalar OsgEarthNet.uav[91] utilizationCountChargeState 2
scalar OsgEarthNet.uav[91] utilizationCountOverdrawnAfterMission 0
scalar OsgEarthNet.uav[91] utilizationCountIdleState 3
scalar OsgEarthNet.uav[91] utilizationFail 0
scalar OsgEarthNet.uav[91] simulationTime 259200
scalar OsgEarthNet.uav[92] utilizationSecMission 2433.5006997428
scalar OsgEarthNet.uav[92] utilizationSecMaintenance 621.27995186009
scalar OsgEarthNet.uav[92] utilizationSecCharge 11210
scalar OsgEarthNet.uav[92] utilizationSecIdle 244935.2183484
scalar OsgEarthNet.uav[92] utilizationEnergyMission 11287.811569214
scalar OsgEarthNet.uav[92] utilizationEnergyMaintenance 2875.5021514893
scalar OsgEarthNet.uav[92] utilizationEnergyCharge 14163.286132812
scalar OsgEarthNet.uav[92] utilizationEnergyOverdrawMission 0
scalar OsgEarthNet.uav[92] utilizationEnergyOverdrawMaintenance 0
scalar OsgEarthNet.uav[92] utilizationCountMissions 3
scalar OsgEarthNet.uav[92] utilizationCountManeuversMission 38
scalar OsgEarthNet.uav[92] utilizationCountManeuversMaintenance 6
scalar OsgEarthNet.uav[92] utilizationCountChargeState 3
scalar OsgEarthNet.uav[92] utilizationCountOverdrawnAfterMission 0
scalar OsgEarthNet.uav[92] utilizationCountIdleState 4
scalar OsgEarthNet.uav[92] utilizationFail 0
scalar OsgEarthNet.uav[92] simulationTime 259200
scalar OsgEarthNet.uav[93] utilizationSecMission 28654.06097142
scalar OsgEarthNet.uav[93] utilizationSecMaintenance 13124.424367631
scalar OsgEarthNet.uav[93] utilizationSecCharge 152420
scalar OsgEarthNet.uav[93] utilizationSecIdle 65001.51366095
scalar OsgEarthNet.uav[93] utilizationEnergyMission 133479.33488111
scalar OsgEarthNet.uav[93] utilizationEnergyMaintenance 61476.605140686
scalar OsgEarthNet.uav[93] utilizationEnergyCharge 190770.48583984
scalar OsgEarthNet.uav[93] utilizationEnergyOverdrawMission 0
scalar OsgEarthNet.uav[93] utilizationEnergyOverdrawMaintenance 0
scalar OsgEarthNet.uav[93] utilizationCountMissions 41
scalar OsgEarthNet.uav[93] utilizationCountManeuversMission 475
scalar OsgEarthNet.uav[93] utilizationCountManeuversMaintenance 83
scalar OsgEarthNet.uav[93] utilizationCountChargeState 41
scalar OsgEarthNet.uav[93] utilizationCountOverdrawnAfterMission 0
scalar OsgEarthNet.uav[93] utilizationCountIdleState 42
scalar OsgEarthNet.uav[93] utilizationFail 0
scalar OsgEarthNet.uav[93] simulationTime 259200
scalar OsgEarthNet.uav[94] utilizationSecMission 28897.633063357
scalar OsgEarthNet.uav[94] utilizationSecMaintenance 13551.258433456
scalar OsgEarthNet.uav[94] utilizationSecCharge 153215.69850193
scalar OsgEarthNet.uav[94] utilizationSecIdle 63535.409001252
scalar OsgEarthNet.uav[94] utilizationEnergyMission 132536.65846252
scalar OsgEarthNet.uav[94] utilizationEnergyMaintenance 62148.163887024
scalar OsgEarthNet.uav[94] utilizationEnergyCharge 192335.28308105
scalar OsgEarthNet.uav[94] utilizationEnergyOverdrawMission 0
scalar OsgEarthNet.uav[94] utilizationEnergyOverdrawMaintenance 0
scalar OsgEarthNet.uav[94] utilizationCountMissions 42
scalar OsgEarthNet.uav[94] utilizationCountManeuversMission 481
scalar OsgEarthNet.uav[94] utilizationCountManeuversMaintenance 84
scalar OsgEarthNet.uav[94] utilizationCountChargeState 42
scalar OsgEarthNet.uav[94] utilizationCountOverdrawnAfterMission 0
scalar OsgEarthNet.uav[94] utilizationCountIdleState 42
scalar OsgEarthNet.uav[94] utilizationFail 0
scalar OsgEarthNet.uav[94] simulationTime 259200
scalar OsgEarthNet.uav[95] utilizationSecMission 29883.384428363
scalar OsgEarthNet.uav[95] utilizationSecMaintenance 12790.436462532
scalar OsgEarthNet.uav[95] utilizationSecCharge 158700
scalar OsgEarthNet.uav[95] utilizationSecIdle 57826.178109105
scalar OsgEarthNet.uav[95] utilizationEnergyMission 138491.42702484
scalar OsgEarthNet.uav[95] utilizationEnergyMaintenance 60152.79258728
scalar OsgEarthNet.uav[95] utilizationEnergyCharge 198242.29418945
scalar OsgEarthNet.uav[95] utilizationEnergyOverdrawMission 0
scalar OsgEarthNet.uav[95] utilizationEnergyOverdrawMaintenance 0
scalar OsgEarthNet.uav[95] utilizationCountMissions 43
scalar OsgEarthNet.uav[95] utilizationCountManeuversMission 480
scalar OsgEarthNet.uav[95] utilizationCountManeuversMaintenance 86
scalar OsgEarthNet.uav[95] utilizationCountChargeState 43
scalar OsgEarthNet.uav[95] utilizationCountOverdrawnAfterMission 0
scalar OsgEarthNet.uav[95] utilizationCountIdleState 44
scalar OsgEarthNet.uav[95] utilizationFail 0
scalar OsgEarthNet.uav[95] simulationTime 259200
scalar OsgEarthNet.uav[96] utilizationSecMission 25588.390966217
scalar OsgEarthNet.uav[96] utilizationSecMaintenance 11717.373982609
scalar OsgEarthNet.uav[96] utilizationSecCharge 138409.30642338
scalar OsgEarthNet.uav[96] utilizationSecIdle 83484.927627792
scalar OsgEarthNet.uav[96] utilizationEnergyMission 117376.44606781
scalar OsgEarthNet.uav[96] utilizationEnergyMaintenance 55103.49036026
scalar OsgEarthNet.uav[96] utilizationEnergyCharge 172529.72363281
scalar OsgEarthNet.uav[96] utilizationEnergyOverdrawMission 0
scalar OsgEarthNet.uav[96] utilizationEnergyOverdrawMaintenance 0
scalar OsgEarthNet.uav[96] utilizationCountMissions 38
scalar OsgEarthNet.uav[96] utilizationCountManeuversMission 407
scalar OsgEarthNet.uav[96] utilizationCountManeuversMaintenance 76
scalar OsgEarthNet.uav[96] utilizationCountChargeState 38
scalar OsgEarthNet.uav[96] utilizationCountOverdrawnAfterMission 0
scalar OsgEarthNet.uav[96] utilizationCountIdleState 38
scalar OsgEarthNet.uav[96] utilizationFail 0
scalar OsgEarthNet.uav[96] simulationTime 259200
scalar OsgEarthNet.uav[97] utilizationSecMission 23137.778788117
scalar OsgEarthNet.uav[97] utilizationSecMaintenance 10364.46913361
scalar OsgEarthNet.uav[97] utilizationSecCharge 125370
scalar OsgEarthNet.uav[97] utilizationSecIdle 100327.75107827
scalar OsgEarthNet.uav[97] utilizationEnergyMission 107359.15940857
scalar OsgEarthNet.uav[97] utilizationEnergyMaintenance 49209.913475037
scalar OsgEarthNet.uav[97] utilizationEnergyCharge 156702.94628906
scalar OsgEarthNet.uav[97] utilizationEnergyOverdrawMission 0
scalar OsgEarthNet.uav[97] utilizationEnergyOverdrawMaintenance 0
scalar OsgEarthNet.uav[97] utilizationCountMissions 34
scalar OsgEarthNet.uav[97] utilizationCountManeuversMission 397
scalar OsgEarthNet.uav[97] utilizationCountManeuversMaintenance 68
scalar OsgEarthNet.uav[97] utilizationCountChargeState 34
scalar OsgEarthNet.uav[97] utilizationCountOverdrawnAfterMission 0
scalar OsgEarthNet.uav[97] utilizationCountIdleState 35
scalar OsgEarthNet.uav[97] utilizationFail 0
scalar OsgEarthNet.uav[97] simulationTime 259200
scalar OsgEarthNet.uav[98] utilizationSecMission 15836.096572926
scalar OsgEarthNet.uav[98] utilizationSecMaintenance 8485.1264265364
scalar OsgEarthNet.uav[98] utilizationSecCharge 89580
scalar OsgEarthNet.uav[98] utilizationSecIdle 145298.77600054
scalar OsgEarthNet.uav[98] utilizationEnergyMission 73277.681835175
scalar OsgEarthNet.uav[98] utilizationEnergyMaintenance 39473.637523651
scalar OsgEarthNet.uav[98] utilizationEnergyCharge 112489.80957031
scalar OsgEarthNet.uav[98] utilizationEnergyOverdrawMission 0
scalar OsgEarthNet.uav[98] utilizationEnergyOverdrawMaintenance 0
scalar OsgEarthNet.uav[98] utilizationCountMissions 24
scalar OsgEarthNet.uav[98] utilizationCountManeuversMission 257
scalar OsgEarthNet.uav[98] utilizationCountManeuversMaintenance 48
scalar OsgEarthNet.uav[98] utilizationCountChargeState 24
scalar OsgEarthNet.uav[98] utilizationCountOverdrawnAfterMission 0
scalar OsgEarthNet.uav[98] utilizationCountIdleState 25
scalar OsgEarthNet.uav[98] utilizationFail 0
scalar OsgEarthNet.uav[98] simulationTime 259200
scalar OsgEarthNet.uav[99] utilizationSecMission 10955.673985017
scalar OsgEarthNet.uav[99] utilizationSecMaintenance 7043.5076471036
scalar OsgEarthNet.uav[99] utilizationSecCharge 66770
scalar OsgEarthNet.uav[99] utilizationSecIdle 174430.81736788
scalar OsgEarthNet.uav[99] utilizationEnergyMission 51217.295402527
scalar OsgEarthNet.uav[99] utilizationEnergyMaintenance 32818.261600494
scalar OsgEarthNet.uav[99] utilizationEnergyCharge 83814.424316406
scalar OsgEarthNet.uav[99] utilizationEnergyOverdrawMission 0
scalar OsgEarthNet.uav[99] utilizationEnergyOverdrawMaintenance 0
scalar OsgEarthNet.uav[99] utilizationCountMissions 18
scalar OsgEarthNet.uav[99] utilizationCountManeuversMission 176
scalar OsgEarthNet.uav[99] utilizationCountManeuversMaintenance 36
scalar OsgEarthNet.uav[99] utilizationCountChargeState 18
scalar OsgEarthNet.uav[99] utilizationCountOverdrawnAfterMission 0
scalar OsgEarthNet.uav[99] utilizationCountIdleState 19
scalar OsgEarthNet.uav[99] utilizationFail 0
scalar OsgEarthNet.uav[99] simulationTime 259200
scalar OsgEarthNet.cs[0] usedPower 555833.02965404
scalar OsgEarthNet.cs[0] chargedPower 555833.02965404
scalar OsgEarthNet.cs[0] chargedMobileNodes 116
scalar OsgEarthNet.cs[0] reservations 120
scalar OsgEarthNet.cs[1] usedPower 1170905.9056493
scalar OsgEarthNet.cs[1] chargedPower 1170905.9056493
scalar OsgEarthNet.cs[1] chargedMobileNodes 249
scalar OsgEarthNet.cs[1] reservations 253
scalar OsgEarthNet.cs[2] usedPower 2814041.8962637
scalar OsgEarthNet.cs[2] chargedPower 2814041.8962637
scalar OsgEarthNet.cs[2] chargedMobileNodes 597
scalar OsgEarthNet.cs[2] reservations 602
scalar OsgEarthNet.cs[3] usedPower 612526.81728725
scalar OsgEarthNet.cs[3] chargedPower 612526.81728725
scalar OsgEarthNet.cs[3] chargedMobileNodes 136
scalar OsgEarthNet.cs[3] reservations 141
scalar OsgEarthNet.cs[4] usedPower 728355.69851835
scalar OsgEarthNet.cs[4] chargedPower 728355.69851835
scalar OsgEarthNet.cs[4] chargedMobileNodes 161
scalar OsgEarthNet.cs[4] reservations 163
scalar OsgEarthNet.cs[5] usedPower 442100.15108175
scalar OsgEarthNet.cs[5] chargedPower 442100.15108175
scalar OsgEarthNet.cs[5] chargedMobileNodes 92
scalar OsgEarthNet.cs[5] reservations 93
scalar OsgEarthNet.cs[6] usedPower 2389682.1806854
scalar OsgEarthNet.cs[6] chargedPower 2389682.1806854
scalar OsgEarthNet.cs[6] chargedMobileNodes 517
scalar OsgEarthNet.cs[6] reservations 522

