version 2
run Szenario_Hotel_Gabelbach-14-20180708-23:41:44-48232
attr configname Szenario_Hotel_Gabelbach
attr datetime 20180708-23:41:44
attr experiment Szenario_Hotel_Gabelbach
attr inifile omnetpp.ini
attr iterationvars $replM=0
attr iterationvarsf replM=0-
attr measurement $replM=0
attr network OsgEarthNet
attr processid 48232
attr repetition 14
attr replication #14
attr resultdir results
attr runnumber 14
attr seedset 14
itervar replM 0
param *.osgEarthScene.scene "\"Szenario_Hotel_Gabelbach.earth\""
param *.playgroundLatitude 50.6830269
param *.playgroundLongitude 10.8538055
param *.playgroundWidth 3500m
param *.playgroundHeight 3500m
param *.numUAVs 100
param *.cs[0].posX 3537m
param *.cs[0].posY 965m
param *.cs[0].posZ 538m
param *.cs[1].posX 312m
param *.cs[1].posY 1262m
param *.cs[1].posZ 539m
param *.cs[2].posX 2185m
param *.cs[2].posY 3026m
param *.cs[2].posZ 777m
param *.cs[3].posX 10m
param *.cs[3].posY 2200m
param *.cs[3].posZ 560m
param *.cs[4].posX 750m
param *.cs[4].posY 200m
param *.cs[4].posZ 540m
param *.cs[5].posX 2450m
param *.cs[5].posY 180m
param *.cs[5].posZ 524m
param *.cs[6].posX 3140m
param *.cs[6].posY 1790m
param *.cs[6].posZ 606m
param *.numCSs 7
param *.uav[*].replacementMethod 0
param *.*.timeStep 10s
param *.uav[*].commandPreviewCommandCount 20
param *.missionControl.missionFiles "\"missions\\\\Szenario_WB_Hotel_Gabelbach_Mission_Hotel.waypoints,missions\\\\Szenario_WB_Hotel_Gabelbach_Mission_Kickelhahn.waypoints,missions\\\\Szenario_WB_Hotel_Gabelbach_Mission_Ilmenau_Sportplatz.waypoints,missions\\\\Szenario_WB_Hotel_Gabelbach_Mission_Manebach_Mitte.waypoints,missions\\\\Szenario_WB_Hotel_Gabelbach_Mission_Manebach_Sued.waypoints\""
param *.missionControl.missionFiles "\"missions\\\\Szenario_WB_Hotel_Gabelbach_Mission_Hotel.waypoints,missions\\\\Szenario_WB_Hotel_Gabelbach_Mission_Kickelhahn.waypoints,missions\\\\Szenario_WB_Hotel_Gabelbach_Mission_Ilmenau_Sportplatz.waypoints,missions\\\\Szenario_WB_Hotel_Gabelbach_Mission_Manebach_Mitte.waypoints,missions\\\\Szenario_WB_Hotel_Gabelbach_Mission_Manebach_Sued.waypoints,missions\\\\Szenario_WB_Hotel_Gabelbach_Hover_HoheSchlaufe.waypoints,missions\\\\Szenario_WB_Hotel_Gabelbach_Hover_Kickelhahn.waypoints,missions\\\\Szenario_WB_Hotel_Gabelbach_Hover_Gabelbachskopf.waypoints,missions\\\\Szenario_WB_Hotel_Gabelbach_Hover_Dachskopf.waypoints\""
param *.uav[0].startX 3537m
param *.uav[0].startY 965m
param *.uav[0].startZ 539m
param *.uav[1].startX 312m
param *.uav[1].startY 1262m
param *.uav[1].startZ 540m
param *.uav[2].startX 2185m
param *.uav[2].startY 3026m
param *.uav[2].startZ 778m
param *.uav[3].startX 3537m
param *.uav[3].startY 965m
param *.uav[3].startZ 539m
param *.uav[4].startX 312m
param *.uav[4].startY 1262m
param *.uav[4].startZ 540m
param *.uav[5].startX 2185m
param *.uav[5].startY 3026m
param *.uav[5].startZ 778m
param *.uav[6].startX 3537m
param *.uav[6].startY 965m
param *.uav[6].startZ 539m
param *.uav[7].startX 312m
param *.uav[7].startY 1262m
param *.uav[7].startZ 540m
param *.uav[8].startX 2185m
param *.uav[8].startY 3026m
param *.uav[8].startZ 778m
param *.uav[9].startX 3537m
param *.uav[9].startY 965m
param *.uav[9].startZ 539m
param *.uav[10].startX 3537m
param *.uav[10].startY 965m
param *.uav[10].startZ 539m
param *.uav[11].startX 312m
param *.uav[11].startY 1262m
param *.uav[11].startZ 540m
param *.uav[12].startX 2185m
param *.uav[12].startY 3026m
param *.uav[12].startZ 778m
param *.uav[13].startX 3537m
param *.uav[13].startY 965m
param *.uav[13].startZ 539m
param *.uav[14].startX 312m
param *.uav[14].startY 1262m
param *.uav[14].startZ 540m
param *.uav[15].startX 2185m
param *.uav[15].startY 3026m
param *.uav[15].startZ 778m
param *.uav[16].startX 3537m
param *.uav[16].startY 965m
param *.uav[16].startZ 539m
param *.uav[17].startX 312m
param *.uav[17].startY 1262m
param *.uav[17].startZ 540m
param *.uav[18].startX 2185m
param *.uav[18].startY 3026m
param *.uav[18].startZ 778m
param *.uav[19].startX 3537m
param *.uav[19].startY 965m
param *.uav[19].startZ 539m
param *.uav[20].startX 3537m
param *.uav[20].startY 965m
param *.uav[20].startZ 539m
param *.uav[21].startX 312m
param *.uav[21].startY 1262m
param *.uav[21].startZ 540m
param *.uav[22].startX 2185m
param *.uav[22].startY 3026m
param *.uav[22].startZ 778m
param *.uav[23].startX 3537m
param *.uav[23].startY 965m
param *.uav[23].startZ 539m
param *.uav[24].startX 312m
param *.uav[24].startY 1262m
param *.uav[24].startZ 540m
param *.uav[25].startX 2185m
param *.uav[25].startY 3026m
param *.uav[25].startZ 778m
param *.uav[26].startX 3537m
param *.uav[26].startY 965m
param *.uav[26].startZ 539m
param *.uav[27].startX 312m
param *.uav[27].startY 1262m
param *.uav[27].startZ 540m
param *.uav[28].startX 2185m
param *.uav[28].startY 3026m
param *.uav[28].startZ 778m
param *.uav[29].startX 3537m
param *.uav[29].startY 965m
param *.uav[29].startZ 539m
param *.uav[30].startX 3537m
param *.uav[30].startY 965m
param *.uav[30].startZ 539m
param *.uav[31].startX 312m
param *.uav[31].startY 1262m
param *.uav[31].startZ 540m
param *.uav[32].startX 2185m
param *.uav[32].startY 3026m
param *.uav[32].startZ 778m
param *.uav[33].startX 3537m
param *.uav[33].startY 965m
param *.uav[33].startZ 539m
param *.uav[34].startX 312m
param *.uav[34].startY 1262m
param *.uav[34].startZ 540m
param *.uav[35].startX 2185m
param *.uav[35].startY 3026m
param *.uav[35].startZ 778m
param *.uav[36].startX 3537m
param *.uav[36].startY 965m
param *.uav[36].startZ 539m
param *.uav[37].startX 312m
param *.uav[37].startY 1262m
param *.uav[37].startZ 540m
param *.uav[38].startX 2185m
param *.uav[38].startY 3026m
param *.uav[38].startZ 778m
param *.uav[39].startX 3537m
param *.uav[39].startY 965m
param *.uav[39].startZ 539m
param *.uav[40].startX 3537m
param *.uav[40].startY 965m
param *.uav[40].startZ 539m
param *.uav[41].startX 312m
param *.uav[41].startY 1262m
param *.uav[41].startZ 540m
param *.uav[42].startX 2185m
param *.uav[42].startY 3026m
param *.uav[42].startZ 778m
param *.uav[43].startX 3537m
param *.uav[43].startY 965m
param *.uav[43].startZ 539m
param *.uav[44].startX 312m
param *.uav[44].startY 1262m
param *.uav[44].startZ 540m
param *.uav[45].startX 2185m
param *.uav[45].startY 3026m
param *.uav[45].startZ 778m
param *.uav[46].startX 3537m
param *.uav[46].startY 965m
param *.uav[46].startZ 539m
param *.uav[47].startX 312m
param *.uav[47].startY 1262m
param *.uav[47].startZ 540m
param *.uav[48].startX 2185m
param *.uav[48].startY 3026m
param *.uav[48].startZ 778m
param *.uav[49].startX 3537m
param *.uav[49].startY 965m
param *.uav[49].startZ 539m
param *.uav[50].startX 3537m
param *.uav[50].startY 965m
param *.uav[50].startZ 539m
param *.uav[51].startX 312m
param *.uav[51].startY 1262m
param *.uav[51].startZ 540m
param *.uav[52].startX 2185m
param *.uav[52].startY 3026m
param *.uav[52].startZ 778m
param *.uav[53].startX 3537m
param *.uav[53].startY 965m
param *.uav[53].startZ 539m
param *.uav[54].startX 312m
param *.uav[54].startY 1262m
param *.uav[54].startZ 540m
param *.uav[55].startX 2185m
param *.uav[55].startY 3026m
param *.uav[55].startZ 778m
param *.uav[56].startX 3537m
param *.uav[56].startY 965m
param *.uav[56].startZ 539m
param *.uav[57].startX 312m
param *.uav[57].startY 1262m
param *.uav[57].startZ 540m
param *.uav[58].startX 2185m
param *.uav[58].startY 3026m
param *.uav[58].startZ 778m
param *.uav[59].startX 3537m
param *.uav[59].startY 965m
param *.uav[59].startZ 539m
param *.uav[60].startX 3537m
param *.uav[60].startY 965m
param *.uav[60].startZ 539m
param *.uav[61].startX 312m
param *.uav[61].startY 1262m
param *.uav[61].startZ 540m
param *.uav[62].startX 2185m
param *.uav[62].startY 3026m
param *.uav[62].startZ 778m
param *.uav[63].startX 3537m
param *.uav[63].startY 965m
param *.uav[63].startZ 539m
param *.uav[64].startX 312m
param *.uav[64].startY 1262m
param *.uav[64].startZ 540m
param *.uav[65].startX 2185m
param *.uav[65].startY 3026m
param *.uav[65].startZ 778m
param *.uav[66].startX 3537m
param *.uav[66].startY 965m
param *.uav[66].startZ 539m
param *.uav[67].startX 312m
param *.uav[67].startY 1262m
param *.uav[67].startZ 540m
param *.uav[68].startX 2185m
param *.uav[68].startY 3026m
param *.uav[68].startZ 778m
param *.uav[69].startX 3537m
param *.uav[69].startY 965m
param *.uav[69].startZ 539m
param *.uav[70].startX 3537m
param *.uav[70].startY 965m
param *.uav[70].startZ 539m
param *.uav[71].startX 312m
param *.uav[71].startY 1262m
param *.uav[71].startZ 540m
param *.uav[72].startX 2185m
param *.uav[72].startY 3026m
param *.uav[72].startZ 778m
param *.uav[73].startX 3537m
param *.uav[73].startY 965m
param *.uav[73].startZ 539m
param *.uav[74].startX 312m
param *.uav[74].startY 1262m
param *.uav[74].startZ 540m
param *.uav[75].startX 2185m
param *.uav[75].startY 3026m
param *.uav[75].startZ 778m
param *.uav[76].startX 3537m
param *.uav[76].startY 965m
param *.uav[76].startZ 539m
param *.uav[77].startX 312m
param *.uav[77].startY 1262m
param *.uav[77].startZ 540m
param *.uav[78].startX 2185m
param *.uav[78].startY 3026m
param *.uav[78].startZ 778m
param *.uav[79].startX 3537m
param *.uav[79].startY 965m
param *.uav[79].startZ 539m
param *.uav[80].startX 3537m
param *.uav[80].startY 965m
param *.uav[80].startZ 539m
param *.uav[81].startX 312m
param *.uav[81].startY 1262m
param *.uav[81].startZ 540m
param *.uav[82].startX 2185m
param *.uav[82].startY 3026m
param *.uav[82].startZ 778m
param *.uav[83].startX 3537m
param *.uav[83].startY 965m
param *.uav[83].startZ 539m
param *.uav[84].startX 312m
param *.uav[84].startY 1262m
param *.uav[84].startZ 540m
param *.uav[85].startX 2185m
param *.uav[85].startY 3026m
param *.uav[85].startZ 778m
param *.uav[86].startX 3537m
param *.uav[86].startY 965m
param *.uav[86].startZ 539m
param *.uav[87].startX 312m
param *.uav[87].startY 1262m
param *.uav[87].startZ 540m
param *.uav[88].startX 2185m
param *.uav[88].startY 3026m
param *.uav[88].startZ 778m
param *.uav[89].startX 3537m
param *.uav[89].startY 965m
param *.uav[89].startZ 539m
param *.uav[90].startX 3537m
param *.uav[90].startY 965m
param *.uav[90].startZ 539m
param *.uav[91].startX 312m
param *.uav[91].startY 1262m
param *.uav[91].startZ 540m
param *.uav[92].startX 2185m
param *.uav[92].startY 3026m
param *.uav[92].startZ 778m
param *.uav[93].startX 3537m
param *.uav[93].startY 965m
param *.uav[93].startZ 539m
param *.uav[94].startX 312m
param *.uav[94].startY 1262m
param *.uav[94].startZ 540m
param *.uav[95].startX 2185m
param *.uav[95].startY 3026m
param *.uav[95].startZ 778m
param *.uav[96].startX 3537m
param *.uav[96].startY 965m
param *.uav[96].startZ 539m
param *.uav[97].startX 312m
param *.uav[97].startY 1262m
param *.uav[97].startZ 540m
param *.uav[98].startX 2185m
param *.uav[98].startY 3026m
param *.uav[98].startZ 778m
param *.uav[99].startX 3537m
param *.uav[99].startY 965m
param *.uav[99].startZ 539m
param *.osgEarthScene.scene "\"boston.earth\""
param *.playgroundLatitude 42.3558
param *.playgroundLongitude -71.0677
param *.playgroundWidth 400m
param *.playgroundHeight 200m
param *.channelController.connectionColor "\"#0000FF40\""
param *.channelController.showConnections false
param *.uav[*].modelURL "\"quadrocopter.small.obj.15.scale.0,0,90.rot\""
param *.uav[*].labelColor "\"#FF7C00CC\""
param *.uav[*].label2Color "\"#FF7C00EE\""
param *.uav[*].batteryCapacity 5200mAh
param *.uav[*].batteryRemaining uav[index].batteryCapacity
param *.uav[*].predictionQuantile 0.95
param *.uav[*].replacementMethod 2
param *.uav[*].weightedSumWeight 0.5
param *.cs[*].modelURL "\"chargingstation_v1.osgt.2.scale.0,0,0.rot.0,0,-15e-1.trans\""
param *.cs[*].spotsWaiting 999
param *.cs[*].spotsCharging 999
param *.cs[*].chargeEffectivenessPercentage 100
param *.cs[*].nonLinearPhaseStartPercentage 85
param *.cs[*].chargeCurrent 6.0A
param *.cs[*].prioritizeFastCharge true
param *.missionControl.replacementSearchMethod 0
param *.*.timeStep 9s

scalar OsgEarthNet.uav[0] utilizationSecMission 760.62515258028
scalar OsgEarthNet.uav[0] utilizationSecMaintenance 291.95923480269
scalar OsgEarthNet.uav[0] utilizationSecCharge 3680
scalar OsgEarthNet.uav[0] utilizationSecIdle 254467.41461262
scalar OsgEarthNet.uav[0] utilizationEnergyMission 3214.1191177368
scalar OsgEarthNet.uav[0] utilizationEnergyMaintenance 1375.8133163452
scalar OsgEarthNet.uav[0] utilizationEnergyCharge 4589.927734375
scalar OsgEarthNet.uav[0] utilizationEnergyOverdrawMission 0
scalar OsgEarthNet.uav[0] utilizationEnergyOverdrawMaintenance 0
scalar OsgEarthNet.uav[0] utilizationCountMissions 1
scalar OsgEarthNet.uav[0] utilizationCountManeuversMission 12
scalar OsgEarthNet.uav[0] utilizationCountManeuversMaintenance 2
scalar OsgEarthNet.uav[0] utilizationCountChargeState 1
scalar OsgEarthNet.uav[0] utilizationCountOverdrawnAfterMission 0
scalar OsgEarthNet.uav[0] utilizationCountIdleState 2
scalar OsgEarthNet.uav[0] utilizationFail 0
scalar OsgEarthNet.uav[0] simulationTime 259200
scalar OsgEarthNet.uav[1] utilizationSecMission 597.53391521556
scalar OsgEarthNet.uav[1] utilizationSecMaintenance 388.71128889908
scalar OsgEarthNet.uav[1] utilizationSecCharge 3760
scalar OsgEarthNet.uav[1] utilizationSecIdle 254453.75379589
scalar OsgEarthNet.uav[1] utilizationEnergyMission 2869.1113891602
scalar OsgEarthNet.uav[1] utilizationEnergyMaintenance 1916.9569816589
scalar OsgEarthNet.uav[1] utilizationEnergyCharge 4733.30859375
scalar OsgEarthNet.uav[1] utilizationEnergyOverdrawMission 0
scalar OsgEarthNet.uav[1] utilizationEnergyOverdrawMaintenance 0
scalar OsgEarthNet.uav[1] utilizationCountMissions 1
scalar OsgEarthNet.uav[1] utilizationCountManeuversMission 9
scalar OsgEarthNet.uav[1] utilizationCountManeuversMaintenance 2
scalar OsgEarthNet.uav[1] utilizationCountChargeState 1
scalar OsgEarthNet.uav[1] utilizationCountOverdrawnAfterMission 0
scalar OsgEarthNet.uav[1] utilizationCountIdleState 2
scalar OsgEarthNet.uav[1] utilizationFail 0
scalar OsgEarthNet.uav[1] simulationTime 259200
scalar OsgEarthNet.uav[2] utilizationSecMission 7835.1440536497
scalar OsgEarthNet.uav[2] utilizationSecMaintenance 5097.9761518749
scalar OsgEarthNet.uav[2] utilizationSecCharge 48580
scalar OsgEarthNet.uav[2] utilizationSecIdle 197686.87879448
scalar OsgEarthNet.uav[2] utilizationEnergyMission 36807.773284912
scalar OsgEarthNet.uav[2] utilizationEnergyMaintenance 24190.239906311
scalar OsgEarthNet.uav[2] utilizationEnergyCharge 60998.015869141
scalar OsgEarthNet.uav[2] utilizationEnergyOverdrawMission 0
scalar OsgEarthNet.uav[2] utilizationEnergyOverdrawMaintenance 0
scalar OsgEarthNet.uav[2] utilizationCountMissions 13
scalar OsgEarthNet.uav[2] utilizationCountManeuversMission 131
scalar OsgEarthNet.uav[2] utilizationCountManeuversMaintenance 26
scalar OsgEarthNet.uav[2] utilizationCountChargeState 13
scalar OsgEarthNet.uav[2] utilizationCountOverdrawnAfterMission 0
scalar OsgEarthNet.uav[2] utilizationCountIdleState 14
scalar OsgEarthNet.uav[2] utilizationFail 0
scalar OsgEarthNet.uav[2] simulationTime 259200
scalar OsgEarthNet.uav[3] utilizationSecMission 750.20472747826
scalar OsgEarthNet.uav[3] utilizationSecMaintenance 335.16822070369
scalar OsgEarthNet.uav[3] utilizationSecCharge 3920
scalar OsgEarthNet.uav[3] utilizationSecIdle 254194.62605182
scalar OsgEarthNet.uav[3] utilizationEnergyMission 3363.2913513184
scalar OsgEarthNet.uav[3] utilizationEnergyMaintenance 1666.6698722839
scalar OsgEarthNet.uav[3] utilizationEnergyCharge 5029.966796875
scalar OsgEarthNet.uav[3] utilizationEnergyOverdrawMission 0
scalar OsgEarthNet.uav[3] utilizationEnergyOverdrawMaintenance 0
scalar OsgEarthNet.uav[3] utilizationCountMissions 1
scalar OsgEarthNet.uav[3] utilizationCountManeuversMission 11
scalar OsgEarthNet.uav[3] utilizationCountManeuversMaintenance 2
scalar OsgEarthNet.uav[3] utilizationCountChargeState 1
scalar OsgEarthNet.uav[3] utilizationCountOverdrawnAfterMission 0
scalar OsgEarthNet.uav[3] utilizationCountIdleState 2
scalar OsgEarthNet.uav[3] utilizationFail 0
scalar OsgEarthNet.uav[3] simulationTime 259200
scalar OsgEarthNet.uav[4] utilizationSecMission 29163.911140377
scalar OsgEarthNet.uav[4] utilizationSecMaintenance 15270.925558336
scalar OsgEarthNet.uav[4] utilizationSecCharge 161344.19931495
scalar OsgEarthNet.uav[4] utilizationSecIdle 53420.962986334
scalar OsgEarthNet.uav[4] utilizationEnergyMission 135015.50492477
scalar OsgEarthNet.uav[4] utilizationEnergyMaintenance 71983.253917694
scalar OsgEarthNet.uav[4] utilizationEnergyCharge 203071.72363281
scalar OsgEarthNet.uav[4] utilizationEnergyOverdrawMission 0
scalar OsgEarthNet.uav[4] utilizationEnergyOverdrawMaintenance 0
scalar OsgEarthNet.uav[4] utilizationCountMissions 44
scalar OsgEarthNet.uav[4] utilizationCountManeuversMission 483
scalar OsgEarthNet.uav[4] utilizationCountManeuversMaintenance 88
scalar OsgEarthNet.uav[4] utilizationCountChargeState 44
scalar OsgEarthNet.uav[4] utilizationCountOverdrawnAfterMission 0
scalar OsgEarthNet.uav[4] utilizationCountIdleState 44
scalar OsgEarthNet.uav[4] utilizationFail 0
scalar OsgEarthNet.uav[4] simulationTime 259200
scalar OsgEarthNet.uav[5] utilizationSecMission 750.20472747826
scalar OsgEarthNet.uav[5] utilizationSecMaintenance 280.95484451848
scalar OsgEarthNet.uav[5] utilizationSecCharge 3740
scalar OsgEarthNet.uav[5] utilizationSecIdle 254428.839428
scalar OsgEarthNet.uav[5] utilizationEnergyMission 3420.4329223633
scalar OsgEarthNet.uav[5] utilizationEnergyMaintenance 1290.2053031921
scalar OsgEarthNet.uav[5] utilizationEnergyCharge 4710.6337890625
scalar OsgEarthNet.uav[5] utilizationEnergyOverdrawMission 0
scalar OsgEarthNet.uav[5] utilizationEnergyOverdrawMaintenance 0
scalar OsgEarthNet.uav[5] utilizationCountMissions 1
scalar OsgEarthNet.uav[5] utilizationCountManeuversMission 11
scalar OsgEarthNet.uav[5] utilizationCountManeuversMaintenance 2
scalar OsgEarthNet.uav[5] utilizationCountChargeState 1
scalar OsgEarthNet.uav[5] utilizationCountOverdrawnAfterMission 0
scalar OsgEarthNet.uav[5] utilizationCountIdleState 2
scalar OsgEarthNet.uav[5] utilizationFail 0
scalar OsgEarthNet.uav[5] simulationTime 259200
scalar OsgEarthNet.uav[6] utilizationSecMission 702.6942798579
scalar OsgEarthNet.uav[6] utilizationSecMaintenance 282.29565405678
scalar OsgEarthNet.uav[6] utilizationSecCharge 3720
scalar OsgEarthNet.uav[6] utilizationSecIdle 254495.00906609
scalar OsgEarthNet.uav[6] utilizationEnergyMission 3374.110748291
scalar OsgEarthNet.uav[6] utilizationEnergyMaintenance 1293.0051994324
scalar OsgEarthNet.uav[6] utilizationEnergyCharge 4667.1181640625
scalar OsgEarthNet.uav[6] utilizationEnergyOverdrawMission 0
scalar OsgEarthNet.uav[6] utilizationEnergyOverdrawMaintenance 0
scalar OsgEarthNet.uav[6] utilizationCountMissions 1
scalar OsgEarthNet.uav[6] utilizationCountManeuversMission 10
scalar OsgEarthNet.uav[6] utilizationCountManeuversMaintenance 2
scalar OsgEarthNet.uav[6] utilizationCountChargeState 1
scalar OsgEarthNet.uav[6] utilizationCountOverdrawnAfterMission 0
scalar OsgEarthNet.uav[6] utilizationCountIdleState 2
scalar OsgEarthNet.uav[6] utilizationFail 0
scalar OsgEarthNet.uav[6] simulationTime 259200
scalar OsgEarthNet.uav[7] utilizationSecMission 28659.042093421
scalar OsgEarthNet.uav[7] utilizationSecMaintenance 15087.651161037
scalar OsgEarthNet.uav[7] utilizationSecCharge 161994.43350347
scalar OsgEarthNet.uav[7] utilizationSecIdle 53458.872242069
scalar OsgEarthNet.uav[7] utilizationEnergyMission 133032.61011124
scalar OsgEarthNet.uav[7] utilizationEnergyMaintenance 71231.248886108
scalar OsgEarthNet.uav[7] utilizationEnergyCharge 203577.27514648
scalar OsgEarthNet.uav[7] utilizationEnergyOverdrawMission 0
scalar OsgEarthNet.uav[7] utilizationEnergyOverdrawMaintenance 0
scalar OsgEarthNet.uav[7] utilizationCountMissions 44
scalar OsgEarthNet.uav[7] utilizationCountManeuversMission 480
scalar OsgEarthNet.uav[7] utilizationCountManeuversMaintenance 88
scalar OsgEarthNet.uav[7] utilizationCountChargeState 44
scalar OsgEarthNet.uav[7] utilizationCountOverdrawnAfterMission 0
scalar OsgEarthNet.uav[7] utilizationCountIdleState 44
scalar OsgEarthNet.uav[7] utilizationFail 0
scalar OsgEarthNet.uav[7] simulationTime 259200
scalar OsgEarthNet.uav[8] utilizationSecMission 31740.325315961
scalar OsgEarthNet.uav[8] utilizationSecMaintenance 13120.616911814
scalar OsgEarthNet.uav[8] utilizationSecCharge 162721.60650819
scalar OsgEarthNet.uav[8] utilizationSecIdle 51617.450264031
scalar OsgEarthNet.uav[8] utilizationEnergyMission 146301.01833344
scalar OsgEarthNet.uav[8] utilizationEnergyMaintenance 60584.097179413
scalar OsgEarthNet.uav[8] utilizationEnergyCharge 205606.13916016
scalar OsgEarthNet.uav[8] utilizationEnergyOverdrawMission 0
scalar OsgEarthNet.uav[8] utilizationEnergyOverdrawMaintenance 0
scalar OsgEarthNet.uav[8] utilizationCountMissions 44
scalar OsgEarthNet.uav[8] utilizationCountManeuversMission 510
scalar OsgEarthNet.uav[8] utilizationCountManeuversMaintenance 88
scalar OsgEarthNet.uav[8] utilizationCountChargeState 44
scalar OsgEarthNet.uav[8] utilizationCountOverdrawnAfterMission 0
scalar OsgEarthNet.uav[8] utilizationCountIdleState 44
scalar OsgEarthNet.uav[8] utilizationFail 0
scalar OsgEarthNet.uav[8] simulationTime 259200
scalar OsgEarthNet.uav[9] utilizationSecMission 760.62515258028
scalar OsgEarthNet.uav[9] utilizationSecMaintenance 291.95923480269
scalar OsgEarthNet.uav[9] utilizationSecCharge 3900
scalar OsgEarthNet.uav[9] utilizationSecIdle 254247.41461262
scalar OsgEarthNet.uav[9] utilizationEnergyMission 3573.1841049194
scalar OsgEarthNet.uav[9] utilizationEnergyMaintenance 1382.9870223999
scalar OsgEarthNet.uav[9] utilizationEnergyCharge 4956.1733398438
scalar OsgEarthNet.uav[9] utilizationEnergyOverdrawMission 0
scalar OsgEarthNet.uav[9] utilizationEnergyOverdrawMaintenance 0
scalar OsgEarthNet.uav[9] utilizationCountMissions 1
scalar OsgEarthNet.uav[9] utilizationCountManeuversMission 12
scalar OsgEarthNet.uav[9] utilizationCountManeuversMaintenance 2
scalar OsgEarthNet.uav[9] utilizationCountChargeState 1
scalar OsgEarthNet.uav[9] utilizationCountOverdrawnAfterMission 0
scalar OsgEarthNet.uav[9] utilizationCountIdleState 2
scalar OsgEarthNet.uav[9] utilizationFail 0
scalar OsgEarthNet.uav[9] simulationTime 259200
scalar OsgEarthNet.uav[10] utilizationSecMission 760.62515258028
scalar OsgEarthNet.uav[10] utilizationSecMaintenance 223.6438949726
scalar OsgEarthNet.uav[10] utilizationSecCharge 3760
scalar OsgEarthNet.uav[10] utilizationSecIdle 254455.72995245
scalar OsgEarthNet.uav[10] utilizationEnergyMission 3653.0478744507
scalar OsgEarthNet.uav[10] utilizationEnergyMaintenance 1080.9859733582
scalar OsgEarthNet.uav[10] utilizationEnergyCharge 4734.03515625
scalar OsgEarthNet.uav[10] utilizationEnergyOverdrawMission 0
scalar OsgEarthNet.uav[10] utilizationEnergyOverdrawMaintenance 0
scalar OsgEarthNet.uav[10] utilizationCountMissions 1
scalar OsgEarthNet.uav[10] utilizationCountManeuversMission 12
scalar OsgEarthNet.uav[10] utilizationCountManeuversMaintenance 2
scalar OsgEarthNet.uav[10] utilizationCountChargeState 1
scalar OsgEarthNet.uav[10] utilizationCountOverdrawnAfterMission 0
scalar OsgEarthNet.uav[10] utilizationCountIdleState 2
scalar OsgEarthNet.uav[10] utilizationFail 0
scalar OsgEarthNet.uav[10] simulationTime 259200
scalar OsgEarthNet.uav[11] utilizationSecMission 13737.08638773
scalar OsgEarthNet.uav[11] utilizationSecMaintenance 7730.42611011
scalar OsgEarthNet.uav[11] utilizationSecCharge 80530
scalar OsgEarthNet.uav[11] utilizationSecIdle 157202.48650216
scalar OsgEarthNet.uav[11] utilizationEnergyMission 63591.989013672
scalar OsgEarthNet.uav[11] utilizationEnergyMaintenance 36662.524665833
scalar OsgEarthNet.uav[11] utilizationEnergyCharge 100301.48974609
scalar OsgEarthNet.uav[11] utilizationEnergyOverdrawMission 0
scalar OsgEarthNet.uav[11] utilizationEnergyOverdrawMaintenance 0
scalar OsgEarthNet.uav[11] utilizationCountMissions 22
scalar OsgEarthNet.uav[11] utilizationCountManeuversMission 229
scalar OsgEarthNet.uav[11] utilizationCountManeuversMaintenance 44
scalar OsgEarthNet.uav[11] utilizationCountChargeState 22
scalar OsgEarthNet.uav[11] utilizationCountOverdrawnAfterMission 0
scalar OsgEarthNet.uav[11] utilizationCountIdleState 23
scalar OsgEarthNet.uav[11] utilizationFail 0
scalar OsgEarthNet.uav[11] simulationTime 259200
scalar OsgEarthNet.uav[12] utilizationSecMission 3591.1886633094
scalar OsgEarthNet.uav[12] utilizationSecMaintenance 677.26828822461
scalar OsgEarthNet.uav[12] utilizationSecCharge 15330
scalar OsgEarthNet.uav[12] utilizationSecIdle 239601.54204847
scalar OsgEarthNet.uav[12] utilizationEnergyMission 16318.975585937
scalar OsgEarthNet.uav[12] utilizationEnergyMaintenance 3086.2601890564
scalar OsgEarthNet.uav[12] utilizationEnergyCharge 19319.899414062
scalar OsgEarthNet.uav[12] utilizationEnergyOverdrawMission 0
scalar OsgEarthNet.uav[12] utilizationEnergyOverdrawMaintenance 0
scalar OsgEarthNet.uav[12] utilizationCountMissions 4
scalar OsgEarthNet.uav[12] utilizationCountManeuversMission 57
scalar OsgEarthNet.uav[12] utilizationCountManeuversMaintenance 8
scalar OsgEarthNet.uav[12] utilizationCountChargeState 4
scalar OsgEarthNet.uav[12] utilizationCountOverdrawnAfterMission 0
scalar OsgEarthNet.uav[12] utilizationCountIdleState 5
scalar OsgEarthNet.uav[12] utilizationFail 0
scalar OsgEarthNet.uav[12] simulationTime 259200
scalar OsgEarthNet.uav[13] utilizationSecMission 545.05972348896
scalar OsgEarthNet.uav[13] utilizationSecMaintenance 427.36308650536
scalar OsgEarthNet.uav[13] utilizationSecCharge 3680
scalar OsgEarthNet.uav[13] utilizationSecIdle 254547.57619001
scalar OsgEarthNet.uav[13] utilizationEnergyMission 2509.7259521484
scalar OsgEarthNet.uav[13] utilizationEnergyMaintenance 2010.9968490601
scalar OsgEarthNet.uav[13] utilizationEnergyCharge 4596.2626953125
scalar OsgEarthNet.uav[13] utilizationEnergyOverdrawMission 0
scalar OsgEarthNet.uav[13] utilizationEnergyOverdrawMaintenance 0
scalar OsgEarthNet.uav[13] utilizationCountMissions 1
scalar OsgEarthNet.uav[13] utilizationCountManeuversMission 9
scalar OsgEarthNet.uav[13] utilizationCountManeuversMaintenance 2
scalar OsgEarthNet.uav[13] utilizationCountChargeState 1
scalar OsgEarthNet.uav[13] utilizationCountOverdrawnAfterMission 0
scalar OsgEarthNet.uav[13] utilizationCountIdleState 2
scalar OsgEarthNet.uav[13] utilizationFail 0
scalar OsgEarthNet.uav[13] simulationTime 259200
scalar OsgEarthNet.uav[14] utilizationSecMission 26761.00276105
scalar OsgEarthNet.uav[14] utilizationSecMaintenance 13240.629860878
scalar OsgEarthNet.uav[14] utilizationSecCharge 146741.61728829
scalar OsgEarthNet.uav[14] utilizationSecIdle 72456.749089777
scalar OsgEarthNet.uav[14] utilizationEnergyMission 123786.14165115
scalar OsgEarthNet.uav[14] utilizationEnergyMaintenance 61642.742584229
scalar OsgEarthNet.uav[14] utilizationEnergyCharge 184629.41259766
scalar OsgEarthNet.uav[14] utilizationEnergyOverdrawMission 0
scalar OsgEarthNet.uav[14] utilizationEnergyOverdrawMaintenance 0
scalar OsgEarthNet.uav[14] utilizationCountMissions 40
scalar OsgEarthNet.uav[14] utilizationCountManeuversMission 448
scalar OsgEarthNet.uav[14] utilizationCountManeuversMaintenance 80
scalar OsgEarthNet.uav[14] utilizationCountChargeState 40
scalar OsgEarthNet.uav[14] utilizationCountOverdrawnAfterMission 0
scalar OsgEarthNet.uav[14] utilizationCountIdleState 40
scalar OsgEarthNet.uav[14] utilizationFail 0
scalar OsgEarthNet.uav[14] simulationTime 259200
scalar OsgEarthNet.uav[15] utilizationSecMission 30026.240750384
scalar OsgEarthNet.uav[15] utilizationSecMaintenance 15379.26030844
scalar OsgEarthNet.uav[15] utilizationSecCharge 161980
scalar OsgEarthNet.uav[15] utilizationSecIdle 51814.497941176
scalar OsgEarthNet.uav[15] utilizationEnergyMission 137617.77820587
scalar OsgEarthNet.uav[15] utilizationEnergyMaintenance 70922.603132837
scalar OsgEarthNet.uav[15] utilizationEnergyCharge 204165.08984375
scalar OsgEarthNet.uav[15] utilizationEnergyOverdrawMission 0
scalar OsgEarthNet.uav[15] utilizationEnergyOverdrawMaintenance 0
scalar OsgEarthNet.uav[15] utilizationCountMissions 44
scalar OsgEarthNet.uav[15] utilizationCountManeuversMission 485
scalar OsgEarthNet.uav[15] utilizationCountManeuversMaintenance 88
scalar OsgEarthNet.uav[15] utilizationCountChargeState 43
scalar OsgEarthNet.uav[15] utilizationCountOverdrawnAfterMission 0
scalar OsgEarthNet.uav[15] utilizationCountIdleState 44
scalar OsgEarthNet.uav[15] utilizationFail 0
scalar OsgEarthNet.uav[15] simulationTime 259200
scalar OsgEarthNet.uav[16] utilizationSecMission 760.62515258028
scalar OsgEarthNet.uav[16] utilizationSecMaintenance 223.6438949726
scalar OsgEarthNet.uav[16] utilizationSecCharge 3800
scalar OsgEarthNet.uav[16] utilizationSecIdle 254415.72995245
scalar OsgEarthNet.uav[16] utilizationEnergyMission 3668.3865966797
scalar OsgEarthNet.uav[16] utilizationEnergyMaintenance 1149.9426078796
scalar OsgEarthNet.uav[16] utilizationEnergyCharge 4818.3310546875
scalar OsgEarthNet.uav[16] utilizationEnergyOverdrawMission 0
scalar OsgEarthNet.uav[16] utilizationEnergyOverdrawMaintenance 0
scalar OsgEarthNet.uav[16] utilizationCountMissions 1
scalar OsgEarthNet.uav[16] utilizationCountManeuversMission 12
scalar OsgEarthNet.uav[16] utilizationCountManeuversMaintenance 2
scalar OsgEarthNet.uav[16] utilizationCountChargeState 1
scalar OsgEarthNet.uav[16] utilizationCountOverdrawnAfterMission 0
scalar OsgEarthNet.uav[16] utilizationCountIdleState 2
scalar OsgEarthNet.uav[16] utilizationFail 0
scalar OsgEarthNet.uav[16] simulationTime 259200
scalar OsgEarthNet.uav[17] utilizationSecMission 28882.232419002
scalar OsgEarthNet.uav[17] utilizationSecMaintenance 13294.17961523
scalar OsgEarthNet.uav[17] utilizationSecCharge 154783.37318853
scalar OsgEarthNet.uav[17] utilizationSecIdle 62240.213777235
scalar OsgEarthNet.uav[17] utilizationEnergyMission 133499.98770905
scalar OsgEarthNet.uav[17] utilizationEnergyMaintenance 62903.879508972
scalar OsgEarthNet.uav[17] utilizationEnergyCharge 195208.59350586
scalar OsgEarthNet.uav[17] utilizationEnergyOverdrawMission 0
scalar OsgEarthNet.uav[17] utilizationEnergyOverdrawMaintenance 0
scalar OsgEarthNet.uav[17] utilizationCountMissions 42
scalar OsgEarthNet.uav[17] utilizationCountManeuversMission 465
scalar OsgEarthNet.uav[17] utilizationCountManeuversMaintenance 84
scalar OsgEarthNet.uav[17] utilizationCountChargeState 42
scalar OsgEarthNet.uav[17] utilizationCountOverdrawnAfterMission 0
scalar OsgEarthNet.uav[17] utilizationCountIdleState 42
scalar OsgEarthNet.uav[17] utilizationFail 0
scalar OsgEarthNet.uav[17] simulationTime 259200
scalar OsgEarthNet.uav[18] utilizationSecMission 887.1741082606
scalar OsgEarthNet.uav[18] utilizationSecMaintenance 181.20511066264
scalar OsgEarthNet.uav[18] utilizationSecCharge 3940
scalar OsgEarthNet.uav[18] utilizationSecIdle 254191.61978108
scalar OsgEarthNet.uav[18] utilizationEnergyMission 4224.420501709
scalar OsgEarthNet.uav[18] utilizationEnergyMaintenance 906.08988571167
scalar OsgEarthNet.uav[18] utilizationEnergyCharge 4996.0288085938
scalar OsgEarthNet.uav[18] utilizationEnergyOverdrawMission 0
scalar OsgEarthNet.uav[18] utilizationEnergyOverdrawMaintenance 0
scalar OsgEarthNet.uav[18] utilizationCountMissions 1
scalar OsgEarthNet.uav[18] utilizationCountManeuversMission 14
scalar OsgEarthNet.uav[18] utilizationCountManeuversMaintenance 2
scalar OsgEarthNet.uav[18] utilizationCountChargeState 1
scalar OsgEarthNet.uav[18] utilizationCountOverdrawnAfterMission 0
scalar OsgEarthNet.uav[18] utilizationCountIdleState 2
scalar OsgEarthNet.uav[18] utilizationFail 0
scalar OsgEarthNet.uav[18] simulationTime 259200
scalar OsgEarthNet.uav[19] utilizationSecMission 836.77707522227
scalar OsgEarthNet.uav[19] utilizationSecMaintenance 217.0347828456
scalar OsgEarthNet.uav[19] utilizationSecCharge 3910
scalar OsgEarthNet.uav[19] utilizationSecIdle 254236.18714193
scalar OsgEarthNet.uav[19] utilizationEnergyMission 4016.9219589233
scalar OsgEarthNet.uav[19] utilizationEnergyMaintenance 1034.9321403503
scalar OsgEarthNet.uav[19] utilizationEnergyCharge 4994.5244140625
scalar OsgEarthNet.uav[19] utilizationEnergyOverdrawMission 0
scalar OsgEarthNet.uav[19] utilizationEnergyOverdrawMaintenance 0
scalar OsgEarthNet.uav[19] utilizationCountMissions 1
scalar OsgEarthNet.uav[19] utilizationCountManeuversMission 13
scalar OsgEarthNet.uav[19] utilizationCountManeuversMaintenance 2
scalar OsgEarthNet.uav[19] utilizationCountChargeState 1
scalar OsgEarthNet.uav[19] utilizationCountOverdrawnAfterMission 0
scalar OsgEarthNet.uav[19] utilizationCountIdleState 2
scalar OsgEarthNet.uav[19] utilizationFail 0
scalar OsgEarthNet.uav[19] simulationTime 259200
scalar OsgEarthNet.uav[20] utilizationSecMission 684.4732299383
scalar OsgEarthNet.uav[20] utilizationSecMaintenance 298.56834692969
scalar OsgEarthNet.uav[20] utilizationSecCharge 3800
scalar OsgEarthNet.uav[20] utilizationSecIdle 254416.95742313
scalar OsgEarthNet.uav[20] utilizationEnergyMission 3355.5007781982
scalar OsgEarthNet.uav[20] utilizationEnergyMaintenance 1440.1296615601
scalar OsgEarthNet.uav[20] utilizationEnergyCharge 4795.6293945312
scalar OsgEarthNet.uav[20] utilizationEnergyOverdrawMission 0
scalar OsgEarthNet.uav[20] utilizationEnergyOverdrawMaintenance 0
scalar OsgEarthNet.uav[20] utilizationCountMissions 1
scalar OsgEarthNet.uav[20] utilizationCountManeuversMission 11
scalar OsgEarthNet.uav[20] utilizationCountManeuversMaintenance 2
scalar OsgEarthNet.uav[20] utilizationCountChargeState 1
scalar OsgEarthNet.uav[20] utilizationCountOverdrawnAfterMission 0
scalar OsgEarthNet.uav[20] utilizationCountIdleState 2
scalar OsgEarthNet.uav[20] utilizationFail 0
scalar OsgEarthNet.uav[20] simulationTime 259200
scalar OsgEarthNet.uav[21] utilizationSecMission 27720.613523224
scalar OsgEarthNet.uav[21] utilizationSecMaintenance 11806.985181454
scalar OsgEarthNet.uav[21] utilizationSecCharge 145060.31682281
scalar OsgEarthNet.uav[21] utilizationSecIdle 74612.083472513
scalar OsgEarthNet.uav[21] utilizationEnergyMission 126914.3428421
scalar OsgEarthNet.uav[21] utilizationEnergyMaintenance 55569.790512085
scalar OsgEarthNet.uav[21] utilizationEnergyCharge 182205.14501953
scalar OsgEarthNet.uav[21] utilizationEnergyOverdrawMission 0
scalar OsgEarthNet.uav[21] utilizationEnergyOverdrawMaintenance 0
scalar OsgEarthNet.uav[21] utilizationCountMissions 39
scalar OsgEarthNet.uav[21] utilizationCountManeuversMission 449
scalar OsgEarthNet.uav[21] utilizationCountManeuversMaintenance 78
scalar OsgEarthNet.uav[21] utilizationCountChargeState 39
scalar OsgEarthNet.uav[21] utilizationCountOverdrawnAfterMission 0
scalar OsgEarthNet.uav[21] utilizationCountIdleState 39
scalar OsgEarthNet.uav[21] utilizationFail 0
scalar OsgEarthNet.uav[21] simulationTime 259200
scalar OsgEarthNet.uav[22] utilizationSecMission 750.20472747826
scalar OsgEarthNet.uav[22] utilizationSecMaintenance 280.95484451848
scalar OsgEarthNet.uav[22] utilizationSecCharge 3840
scalar OsgEarthNet.uav[22] utilizationSecIdle 254328.839428
scalar OsgEarthNet.uav[22] utilizationEnergyMission 3635.7825927734
scalar OsgEarthNet.uav[22] utilizationEnergyMaintenance 1220.5111503601
scalar OsgEarthNet.uav[22] utilizationEnergyCharge 4856.296875
scalar OsgEarthNet.uav[22] utilizationEnergyOverdrawMission 0
scalar OsgEarthNet.uav[22] utilizationEnergyOverdrawMaintenance 0
scalar OsgEarthNet.uav[22] utilizationCountMissions 1
scalar OsgEarthNet.uav[22] utilizationCountManeuversMission 11
scalar OsgEarthNet.uav[22] utilizationCountManeuversMaintenance 2
scalar OsgEarthNet.uav[22] utilizationCountChargeState 1
scalar OsgEarthNet.uav[22] utilizationCountOverdrawnAfterMission 0
scalar OsgEarthNet.uav[22] utilizationCountIdleState 2
scalar OsgEarthNet.uav[22] utilizationFail 0
scalar OsgEarthNet.uav[22] simulationTime 259200
scalar OsgEarthNet.uav[23] utilizationSecMission 623.68863475643
scalar OsgEarthNet.uav[23] utilizationSecMaintenance 394.94199877579
scalar OsgEarthNet.uav[23] utilizationSecCharge 3760
scalar OsgEarthNet.uav[23] utilizationSecIdle 254421.36836647
scalar OsgEarthNet.uav[23] utilizationEnergyMission 2809.6785888672
scalar OsgEarthNet.uav[23] utilizationEnergyMaintenance 1721.9565658569
scalar OsgEarthNet.uav[23] utilizationEnergyCharge 4702.1997070312
scalar OsgEarthNet.uav[23] utilizationEnergyOverdrawMission 0
scalar OsgEarthNet.uav[23] utilizationEnergyOverdrawMaintenance 0
scalar OsgEarthNet.uav[23] utilizationCountMissions 1
scalar OsgEarthNet.uav[23] utilizationCountManeuversMission 10
scalar OsgEarthNet.uav[23] utilizationCountManeuversMaintenance 2
scalar OsgEarthNet.uav[23] utilizationCountChargeState 1
scalar OsgEarthNet.uav[23] utilizationCountOverdrawnAfterMission 0
scalar OsgEarthNet.uav[23] utilizationCountIdleState 2
scalar OsgEarthNet.uav[23] utilizationFail 0
scalar OsgEarthNet.uav[23] simulationTime 259200
scalar OsgEarthNet.uav[24] utilizationSecMission 29254.551938691
scalar OsgEarthNet.uav[24] utilizationSecMaintenance 14568.193635299
scalar OsgEarthNet.uav[24] utilizationSecCharge 161453.24614476
scalar OsgEarthNet.uav[24] utilizationSecIdle 53924.007281252
scalar OsgEarthNet.uav[24] utilizationEnergyMission 135821.45657349
scalar OsgEarthNet.uav[24] utilizationEnergyMaintenance 68781.174983978
scalar OsgEarthNet.uav[24] utilizationEnergyCharge 203336.72070312
scalar OsgEarthNet.uav[24] utilizationEnergyOverdrawMission 0
scalar OsgEarthNet.uav[24] utilizationEnergyOverdrawMaintenance 0
scalar OsgEarthNet.uav[24] utilizationCountMissions 44
scalar OsgEarthNet.uav[24] utilizationCountManeuversMission 488
scalar OsgEarthNet.uav[24] utilizationCountManeuversMaintenance 88
scalar OsgEarthNet.uav[24] utilizationCountChargeState 44
scalar OsgEarthNet.uav[24] utilizationCountOverdrawnAfterMission 0
scalar OsgEarthNet.uav[24] utilizationCountIdleState 44
scalar OsgEarthNet.uav[24] utilizationFail 0
scalar OsgEarthNet.uav[24] simulationTime 259200
scalar OsgEarthNet.uav[25] utilizationSecMission 17052.25405357
scalar OsgEarthNet.uav[25] utilizationSecMaintenance 6152.3048675115
scalar OsgEarthNet.uav[25] utilizationSecCharge 85480
scalar OsgEarthNet.uav[25] utilizationSecIdle 150515.44007892
scalar OsgEarthNet.uav[25] utilizationEnergyMission 78897.859291077
scalar OsgEarthNet.uav[25] utilizationEnergyMaintenance 28986.246021271
scalar OsgEarthNet.uav[25] utilizationEnergyCharge 107087.97998047
scalar OsgEarthNet.uav[25] utilizationEnergyOverdrawMission 0
scalar OsgEarthNet.uav[25] utilizationEnergyOverdrawMaintenance 0
scalar OsgEarthNet.uav[25] utilizationCountMissions 23
scalar OsgEarthNet.uav[25] utilizationCountManeuversMission 269
scalar OsgEarthNet.uav[25] utilizationCountManeuversMaintenance 46
scalar OsgEarthNet.uav[25] utilizationCountChargeState 23
scalar OsgEarthNet.uav[25] utilizationCountOverdrawnAfterMission 0
scalar OsgEarthNet.uav[25] utilizationCountIdleState 24
scalar OsgEarthNet.uav[25] utilizationFail 0
scalar OsgEarthNet.uav[25] simulationTime 259200
scalar OsgEarthNet.uav[26] utilizationSecMission 760.62515258028
scalar OsgEarthNet.uav[26] utilizationSecMaintenance 223.6438949726
scalar OsgEarthNet.uav[26] utilizationSecCharge 3730
scalar OsgEarthNet.uav[26] utilizationSecIdle 254485.72995245
scalar OsgEarthNet.uav[26] utilizationEnergyMission 3623.5982666016
scalar OsgEarthNet.uav[26] utilizationEnergyMaintenance 1087.2629508972
scalar OsgEarthNet.uav[26] utilizationEnergyCharge 4710.8623046875
scalar OsgEarthNet.uav[26] utilizationEnergyOverdrawMission 0
scalar OsgEarthNet.uav[26] utilizationEnergyOverdrawMaintenance 0
scalar OsgEarthNet.uav[26] utilizationCountMissions 1
scalar OsgEarthNet.uav[26] utilizationCountManeuversMission 12
scalar OsgEarthNet.uav[26] utilizationCountManeuversMaintenance 2
scalar OsgEarthNet.uav[26] utilizationCountChargeState 1
scalar OsgEarthNet.uav[26] utilizationCountOverdrawnAfterMission 0
scalar OsgEarthNet.uav[26] utilizationCountIdleState 2
scalar OsgEarthNet.uav[26] utilizationFail 0
scalar OsgEarthNet.uav[26] simulationTime 259200
scalar OsgEarthNet.uav[27] utilizationSecMission 507.8647069725
scalar OsgEarthNet.uav[27] utilizationSecMaintenance 432.03860364029
scalar OsgEarthNet.uav[27] utilizationSecCharge 3700
scalar OsgEarthNet.uav[27] utilizationSecIdle 254560.09568939
scalar OsgEarthNet.uav[27] utilizationEnergyMission 2518.9556121826
scalar OsgEarthNet.uav[27] utilizationEnergyMaintenance 2102.7807731628
scalar OsgEarthNet.uav[27] utilizationEnergyCharge 4582.1923828125
scalar OsgEarthNet.uav[27] utilizationEnergyOverdrawMission 0
scalar OsgEarthNet.uav[27] utilizationEnergyOverdrawMaintenance 0
scalar OsgEarthNet.uav[27] utilizationCountMissions 1
scalar OsgEarthNet.uav[27] utilizationCountManeuversMission 8
scalar OsgEarthNet.uav[27] utilizationCountManeuversMaintenance 2
scalar OsgEarthNet.uav[27] utilizationCountChargeState 1
scalar OsgEarthNet.uav[27] utilizationCountOverdrawnAfterMission 0
scalar OsgEarthNet.uav[27] utilizationCountIdleState 2
scalar OsgEarthNet.uav[27] utilizationFail 0
scalar OsgEarthNet.uav[27] simulationTime 259200
scalar OsgEarthNet.uav[28] utilizationSecMission 844.68187799363
scalar OsgEarthNet.uav[28] utilizationSecMaintenance 168.94893785192
scalar OsgEarthNet.uav[28] utilizationSecCharge 3880
scalar OsgEarthNet.uav[28] utilizationSecIdle 254306.36818415
scalar OsgEarthNet.uav[28] utilizationEnergyMission 4007.4198608399
scalar OsgEarthNet.uav[28] utilizationEnergyMaintenance 794.90534591675
scalar OsgEarthNet.uav[28] utilizationEnergyCharge 4902.84375
scalar OsgEarthNet.uav[28] utilizationEnergyOverdrawMission 0
scalar OsgEarthNet.uav[28] utilizationEnergyOverdrawMaintenance 0
scalar OsgEarthNet.uav[28] utilizationCountMissions 1
scalar OsgEarthNet.uav[28] utilizationCountManeuversMission 13
scalar OsgEarthNet.uav[28] utilizationCountManeuversMaintenance 2
scalar OsgEarthNet.uav[28] utilizationCountChargeState 1
scalar OsgEarthNet.uav[28] utilizationCountOverdrawnAfterMission 0
scalar OsgEarthNet.uav[28] utilizationCountIdleState 2
scalar OsgEarthNet.uav[28] utilizationFail 0
scalar OsgEarthNet.uav[28] simulationTime 259200
scalar OsgEarthNet.uav[29] utilizationSecMission 510.19019122229
scalar OsgEarthNet.uav[29] utilizationSecMaintenance 438.84287141926
scalar OsgEarthNet.uav[29] utilizationSecCharge 3590
scalar OsgEarthNet.uav[29] utilizationSecIdle 254660.96593736
scalar OsgEarthNet.uav[29] utilizationEnergyMission 2238.9792480469
scalar OsgEarthNet.uav[29] utilizationEnergyMaintenance 2026.3707389832
scalar OsgEarthNet.uav[29] utilizationEnergyCharge 4422.5571289062
scalar OsgEarthNet.uav[29] utilizationEnergyOverdrawMission 0
scalar OsgEarthNet.uav[29] utilizationEnergyOverdrawMaintenance 0
scalar OsgEarthNet.uav[29] utilizationCountMissions 1
scalar OsgEarthNet.uav[29] utilizationCountManeuversMission 8
scalar OsgEarthNet.uav[29] utilizationCountManeuversMaintenance 2
scalar OsgEarthNet.uav[29] utilizationCountChargeState 1
scalar OsgEarthNet.uav[29] utilizationCountOverdrawnAfterMission 0
scalar OsgEarthNet.uav[29] utilizationCountIdleState 2
scalar OsgEarthNet.uav[29] utilizationFail 0
scalar OsgEarthNet.uav[29] simulationTime 259200
scalar OsgEarthNet.uav[30] utilizationSecMission 507.8647069725
scalar OsgEarthNet.uav[30] utilizationSecMaintenance 484.98978100409
scalar OsgEarthNet.uav[30] utilizationSecCharge 3880
scalar OsgEarthNet.uav[30] utilizationSecIdle 254327.14451202
scalar OsgEarthNet.uav[30] utilizationEnergyMission 2457.2545776367
scalar OsgEarthNet.uav[30] utilizationEnergyMaintenance 2418.88123703
scalar OsgEarthNet.uav[30] utilizationEnergyCharge 4942.9443359375
scalar OsgEarthNet.uav[30] utilizationEnergyOverdrawMission 0
scalar OsgEarthNet.uav[30] utilizationEnergyOverdrawMaintenance 0
scalar OsgEarthNet.uav[30] utilizationCountMissions 1
scalar OsgEarthNet.uav[30] utilizationCountManeuversMission 8
scalar OsgEarthNet.uav[30] utilizationCountManeuversMaintenance 2
scalar OsgEarthNet.uav[30] utilizationCountChargeState 1
scalar OsgEarthNet.uav[30] utilizationCountOverdrawnAfterMission 0
scalar OsgEarthNet.uav[30] utilizationCountIdleState 2
scalar OsgEarthNet.uav[30] utilizationFail 0
scalar OsgEarthNet.uav[30] simulationTime 259200
scalar OsgEarthNet.uav[31] utilizationSecMission 31511.34601538
scalar OsgEarthNet.uav[31] utilizationSecMaintenance 14225.688483701
scalar OsgEarthNet.uav[31] utilizationSecCharge 165230.96399354
scalar OsgEarthNet.uav[31] utilizationSecIdle 48232.000507383
scalar OsgEarthNet.uav[31] utilizationEnergyMission 145912.95355988
scalar OsgEarthNet.uav[31] utilizationEnergyMaintenance 66090.843162537
scalar OsgEarthNet.uav[31] utilizationEnergyCharge 208104.85205078
scalar OsgEarthNet.uav[31] utilizationEnergyOverdrawMission 0
scalar OsgEarthNet.uav[31] utilizationEnergyOverdrawMaintenance 0
scalar OsgEarthNet.uav[31] utilizationCountMissions 45
scalar OsgEarthNet.uav[31] utilizationCountManeuversMission 511
scalar OsgEarthNet.uav[31] utilizationCountManeuversMaintenance 90
scalar OsgEarthNet.uav[31] utilizationCountChargeState 45
scalar OsgEarthNet.uav[31] utilizationCountOverdrawnAfterMission 0
scalar OsgEarthNet.uav[31] utilizationCountIdleState 45
scalar OsgEarthNet.uav[31] utilizationFail 0
scalar OsgEarthNet.uav[31] simulationTime 259200
scalar OsgEarthNet.uav[32] utilizationSecMission 29384.540763304
scalar OsgEarthNet.uav[32] utilizationSecMaintenance 11716.146105122
scalar OsgEarthNet.uav[32] utilizationSecCharge 150710
scalar OsgEarthNet.uav[32] utilizationSecIdle 67389.312131575
scalar OsgEarthNet.uav[32] utilizationEnergyMission 136086.14570618
scalar OsgEarthNet.uav[32] utilizationEnergyMaintenance 53542.318767548
scalar OsgEarthNet.uav[32] utilizationEnergyCharge 189712.24902344
scalar OsgEarthNet.uav[32] utilizationEnergyOverdrawMission 0
scalar OsgEarthNet.uav[32] utilizationEnergyOverdrawMaintenance 0
scalar OsgEarthNet.uav[32] utilizationCountMissions 40
scalar OsgEarthNet.uav[32] utilizationCountManeuversMission 466
scalar OsgEarthNet.uav[32] utilizationCountManeuversMaintenance 80
scalar OsgEarthNet.uav[32] utilizationCountChargeState 40
scalar OsgEarthNet.uav[32] utilizationCountOverdrawnAfterMission 0
scalar OsgEarthNet.uav[32] utilizationCountIdleState 41
scalar OsgEarthNet.uav[32] utilizationFail 0
scalar OsgEarthNet.uav[32] simulationTime 259200
scalar OsgEarthNet.uav[33] utilizationSecMission 760.62515258028
scalar OsgEarthNet.uav[33] utilizationSecMaintenance 291.95923480269
scalar OsgEarthNet.uav[33] utilizationSecCharge 3790
scalar OsgEarthNet.uav[33] utilizationSecIdle 254357.41461262
scalar OsgEarthNet.uav[33] utilizationEnergyMission 3486.2401733399
scalar OsgEarthNet.uav[33] utilizationEnergyMaintenance 1306.6105880737
scalar OsgEarthNet.uav[33] utilizationEnergyCharge 4792.853515625
scalar OsgEarthNet.uav[33] utilizationEnergyOverdrawMission 0
scalar OsgEarthNet.uav[33] utilizationEnergyOverdrawMaintenance 0
scalar OsgEarthNet.uav[33] utilizationCountMissions 1
scalar OsgEarthNet.uav[33] utilizationCountManeuversMission 12
scalar OsgEarthNet.uav[33] utilizationCountManeuversMaintenance 2
scalar OsgEarthNet.uav[33] utilizationCountChargeState 1
scalar OsgEarthNet.uav[33] utilizationCountOverdrawnAfterMission 0
scalar OsgEarthNet.uav[33] utilizationCountIdleState 2
scalar OsgEarthNet.uav[33] utilizationFail 0
scalar OsgEarthNet.uav[33] simulationTime 259200
scalar OsgEarthNet.uav[34] utilizationSecMission 28124.685032704
scalar OsgEarthNet.uav[34] utilizationSecMaintenance 16334.373587784
scalar OsgEarthNet.uav[34] utilizationSecCharge 164820
scalar OsgEarthNet.uav[34] utilizationSecIdle 49920.940379512
scalar OsgEarthNet.uav[34] utilizationEnergyMission 130632.22937012
scalar OsgEarthNet.uav[34] utilizationEnergyMaintenance 76504.692913055
scalar OsgEarthNet.uav[34] utilizationEnergyCharge 207299.39306641
scalar OsgEarthNet.uav[34] utilizationEnergyOverdrawMission 0
scalar OsgEarthNet.uav[34] utilizationEnergyOverdrawMaintenance 0
scalar OsgEarthNet.uav[34] utilizationCountMissions 44
scalar OsgEarthNet.uav[34] utilizationCountManeuversMission 457
scalar OsgEarthNet.uav[34] utilizationCountManeuversMaintenance 88
scalar OsgEarthNet.uav[34] utilizationCountChargeState 44
scalar OsgEarthNet.uav[34] utilizationCountOverdrawnAfterMission 0
scalar OsgEarthNet.uav[34] utilizationCountIdleState 45
scalar OsgEarthNet.uav[34] utilizationFail 0
scalar OsgEarthNet.uav[34] simulationTime 259200
scalar OsgEarthNet.uav[35] utilizationSecMission 694.00169469977
scalar OsgEarthNet.uav[35] utilizationSecMaintenance 282.18572599206
scalar OsgEarthNet.uav[35] utilizationSecCharge 3720
scalar OsgEarthNet.uav[35] utilizationSecIdle 254503.81157931
scalar OsgEarthNet.uav[35] utilizationEnergyMission 3391.4563827515
scalar OsgEarthNet.uav[35] utilizationEnergyMaintenance 1237.5180892944
scalar OsgEarthNet.uav[35] utilizationEnergyCharge 4628.97265625
scalar OsgEarthNet.uav[35] utilizationEnergyOverdrawMission 0
scalar OsgEarthNet.uav[35] utilizationEnergyOverdrawMaintenance 0
scalar OsgEarthNet.uav[35] utilizationCountMissions 1
scalar OsgEarthNet.uav[35] utilizationCountManeuversMission 13
scalar OsgEarthNet.uav[35] utilizationCountManeuversMaintenance 2
scalar OsgEarthNet.uav[35] utilizationCountChargeState 1
scalar OsgEarthNet.uav[35] utilizationCountOverdrawnAfterMission 0
scalar OsgEarthNet.uav[35] utilizationCountIdleState 2
scalar OsgEarthNet.uav[35] utilizationFail 0
scalar OsgEarthNet.uav[35] simulationTime 259200
scalar OsgEarthNet.uav[36] utilizationSecMission 750.20472747826
scalar OsgEarthNet.uav[36] utilizationSecMaintenance 335.16822070369
scalar OsgEarthNet.uav[36] utilizationSecCharge 3820
scalar OsgEarthNet.uav[36] utilizationSecIdle 254294.62605182
scalar OsgEarthNet.uav[36] utilizationEnergyMission 3279.703414917
scalar OsgEarthNet.uav[36] utilizationEnergyMaintenance 1592.7307853699
scalar OsgEarthNet.uav[36] utilizationEnergyCharge 4872.4321289062
scalar OsgEarthNet.uav[36] utilizationEnergyOverdrawMission 0
scalar OsgEarthNet.uav[36] utilizationEnergyOverdrawMaintenance 0
scalar OsgEarthNet.uav[36] utilizationCountMissions 1
scalar OsgEarthNet.uav[36] utilizationCountManeuversMission 11
scalar OsgEarthNet.uav[36] utilizationCountManeuversMaintenance 2
scalar OsgEarthNet.uav[36] utilizationCountChargeState 1
scalar OsgEarthNet.uav[36] utilizationCountOverdrawnAfterMission 0
scalar OsgEarthNet.uav[36] utilizationCountIdleState 2
scalar OsgEarthNet.uav[36] utilizationFail 0
scalar OsgEarthNet.uav[36] simulationTime 259200
scalar OsgEarthNet.uav[37] utilizationSecMission 29318.905672666
scalar OsgEarthNet.uav[37] utilizationSecMaintenance 15416.793267948
scalar OsgEarthNet.uav[37] utilizationSecCharge 161623.36249847
scalar OsgEarthNet.uav[37] utilizationSecIdle 52840.93756092
scalar OsgEarthNet.uav[37] utilizationEnergyMission 134213.87623596
scalar OsgEarthNet.uav[37] utilizationEnergyMaintenance 71672.709789276
scalar OsgEarthNet.uav[37] utilizationEnergyCharge 203743.4987793
scalar OsgEarthNet.uav[37] utilizationEnergyOverdrawMission 0
scalar OsgEarthNet.uav[37] utilizationEnergyOverdrawMaintenance 0
scalar OsgEarthNet.uav[37] utilizationCountMissions 44
scalar OsgEarthNet.uav[37] utilizationCountManeuversMission 495
scalar OsgEarthNet.uav[37] utilizationCountManeuversMaintenance 88
scalar OsgEarthNet.uav[37] utilizationCountChargeState 44
scalar OsgEarthNet.uav[37] utilizationCountOverdrawnAfterMission 0
scalar OsgEarthNet.uav[37] utilizationCountIdleState 44
scalar OsgEarthNet.uav[37] utilizationFail 0
scalar OsgEarthNet.uav[37] simulationTime 259200
scalar OsgEarthNet.uav[38] utilizationSecMission 694.00169469977
scalar OsgEarthNet.uav[38] utilizationSecMaintenance 282.18572599206
scalar OsgEarthNet.uav[38] utilizationSecCharge 3740
scalar OsgEarthNet.uav[38] utilizationSecIdle 254483.81157931
scalar OsgEarthNet.uav[38] utilizationEnergyMission 3270.2722549438
scalar OsgEarthNet.uav[38] utilizationEnergyMaintenance 1390.0033798218
scalar OsgEarthNet.uav[38] utilizationEnergyCharge 4660.2749023438
scalar OsgEarthNet.uav[38] utilizationEnergyOverdrawMission 0
scalar OsgEarthNet.uav[38] utilizationEnergyOverdrawMaintenance 0
scalar OsgEarthNet.uav[38] utilizationCountMissions 1
scalar OsgEarthNet.uav[38] utilizationCountManeuversMission 13
scalar OsgEarthNet.uav[38] utilizationCountManeuversMaintenance 2
scalar OsgEarthNet.uav[38] utilizationCountChargeState 1
scalar OsgEarthNet.uav[38] utilizationCountOverdrawnAfterMission 0
scalar OsgEarthNet.uav[38] utilizationCountIdleState 2
scalar OsgEarthNet.uav[38] utilizationFail 0
scalar OsgEarthNet.uav[38] simulationTime 259200
scalar OsgEarthNet.uav[39] utilizationSecMission 684.4732299383
scalar OsgEarthNet.uav[39] utilizationSecMaintenance 298.56834692969
scalar OsgEarthNet.uav[39] utilizationSecCharge 3840
scalar OsgEarthNet.uav[39] utilizationSecIdle 254376.95742313
scalar OsgEarthNet.uav[39] utilizationEnergyMission 3343.6216201782
scalar OsgEarthNet.uav[39] utilizationEnergyMaintenance 1528.472618103
scalar OsgEarthNet.uav[39] utilizationEnergyCharge 4872.0922851562
scalar OsgEarthNet.uav[39] utilizationEnergyOverdrawMission 0
scalar OsgEarthNet.uav[39] utilizationEnergyOverdrawMaintenance 0
scalar OsgEarthNet.uav[39] utilizationCountMissions 1
scalar OsgEarthNet.uav[39] utilizationCountManeuversMission 11
scalar OsgEarthNet.uav[39] utilizationCountManeuversMaintenance 2
scalar OsgEarthNet.uav[39] utilizationCountChargeState 1
scalar OsgEarthNet.uav[39] utilizationCountOverdrawnAfterMission 0
scalar OsgEarthNet.uav[39] utilizationCountIdleState 2
scalar OsgEarthNet.uav[39] utilizationFail 0
scalar OsgEarthNet.uav[39] simulationTime 259200
scalar OsgEarthNet.uav[40] utilizationSecMission 28197.23993024
scalar OsgEarthNet.uav[40] utilizationSecMaintenance 15146.499449742
scalar OsgEarthNet.uav[40] utilizationSecCharge 159630
scalar OsgEarthNet.uav[40] utilizationSecIdle 56226.259620017
scalar OsgEarthNet.uav[40] utilizationEnergyMission 130074.40278625
scalar OsgEarthNet.uav[40] utilizationEnergyMaintenance 70718.02456665
scalar OsgEarthNet.uav[40] utilizationEnergyCharge 199771.69970703
scalar OsgEarthNet.uav[40] utilizationEnergyOverdrawMission 0
scalar OsgEarthNet.uav[40] utilizationEnergyOverdrawMaintenance 0
scalar OsgEarthNet.uav[40] utilizationCountMissions 43
scalar OsgEarthNet.uav[40] utilizationCountManeuversMission 447
scalar OsgEarthNet.uav[40] utilizationCountManeuversMaintenance 86
scalar OsgEarthNet.uav[40] utilizationCountChargeState 43
scalar OsgEarthNet.uav[40] utilizationCountOverdrawnAfterMission 0
scalar OsgEarthNet.uav[40] utilizationCountIdleState 44
scalar OsgEarthNet.uav[40] utilizationFail 0
scalar OsgEarthNet.uav[40] simulationTime 259200
scalar OsgEarthNet.uav[41] utilizationSecMission 28319.679041379
scalar OsgEarthNet.uav[41] utilizationSecMaintenance 14683.156910351
scalar OsgEarthNet.uav[41] utilizationSecCharge 159990
scalar OsgEarthNet.uav[41] utilizationSecIdle 56207.16304827
scalar OsgEarthNet.uav[41] utilizationEnergyMission 131980.01532745
scalar OsgEarthNet.uav[41] utilizationEnergyMaintenance 68572.587341309
scalar OsgEarthNet.uav[41] utilizationEnergyCharge 200524.42431641
scalar OsgEarthNet.uav[41] utilizationEnergyOverdrawMission 0
scalar OsgEarthNet.uav[41] utilizationEnergyOverdrawMaintenance 0
scalar OsgEarthNet.uav[41] utilizationCountMissions 43
scalar OsgEarthNet.uav[41] utilizationCountManeuversMission 477
scalar OsgEarthNet.uav[41] utilizationCountManeuversMaintenance 86
scalar OsgEarthNet.uav[41] utilizationCountChargeState 43
scalar OsgEarthNet.uav[41] utilizationCountOverdrawnAfterMission 0
scalar OsgEarthNet.uav[41] utilizationCountIdleState 44
scalar OsgEarthNet.uav[41] utilizationFail 0
scalar OsgEarthNet.uav[41] simulationTime 259200
scalar OsgEarthNet.uav[42] utilizationSecMission 766.82734763767
scalar OsgEarthNet.uav[42] utilizationSecMaintenance 306.92101052153
scalar OsgEarthNet.uav[42] utilizationSecCharge 3890
scalar OsgEarthNet.uav[42] utilizationSecIdle 254236.25064184
scalar OsgEarthNet.uav[42] utilizationEnergyMission 3577.8729934692
scalar OsgEarthNet.uav[42] utilizationEnergyMaintenance 1432.5461349487
scalar OsgEarthNet.uav[42] utilizationEnergyCharge 4935.0170898438
scalar OsgEarthNet.uav[42] utilizationEnergyOverdrawMission 0
scalar OsgEarthNet.uav[42] utilizationEnergyOverdrawMaintenance 0
scalar OsgEarthNet.uav[42] utilizationCountMissions 1
scalar OsgEarthNet.uav[42] utilizationCountManeuversMission 14
scalar OsgEarthNet.uav[42] utilizationCountManeuversMaintenance 2
scalar OsgEarthNet.uav[42] utilizationCountChargeState 1
scalar OsgEarthNet.uav[42] utilizationCountOverdrawnAfterMission 0
scalar OsgEarthNet.uav[42] utilizationCountIdleState 2
scalar OsgEarthNet.uav[42] utilizationFail 0
scalar OsgEarthNet.uav[42] simulationTime 259200
scalar OsgEarthNet.uav[43] utilizationSecMission 760.62515258028
scalar OsgEarthNet.uav[43] utilizationSecMaintenance 291.95923480269
scalar OsgEarthNet.uav[43] utilizationSecCharge 3830
scalar OsgEarthNet.uav[43] utilizationSecIdle 254317.41461262
scalar OsgEarthNet.uav[43] utilizationEnergyMission 3374.3545379639
scalar OsgEarthNet.uav[43] utilizationEnergyMaintenance 1483.3484115601
scalar OsgEarthNet.uav[43] utilizationEnergyCharge 4857.703125
scalar OsgEarthNet.uav[43] utilizationEnergyOverdrawMission 0
scalar OsgEarthNet.uav[43] utilizationEnergyOverdrawMaintenance 0
scalar OsgEarthNet.uav[43] utilizationCountMissions 1
scalar OsgEarthNet.uav[43] utilizationCountManeuversMission 12
scalar OsgEarthNet.uav[43] utilizationCountManeuversMaintenance 2
scalar OsgEarthNet.uav[43] utilizationCountChargeState 1
scalar OsgEarthNet.uav[43] utilizationCountOverdrawnAfterMission 0
scalar OsgEarthNet.uav[43] utilizationCountIdleState 2
scalar OsgEarthNet.uav[43] utilizationFail 0
scalar OsgEarthNet.uav[43] simulationTime 259200
scalar OsgEarthNet.uav[44] utilizationSecMission 23572.716309965
scalar OsgEarthNet.uav[44] utilizationSecMaintenance 12739.348130774
scalar OsgEarthNet.uav[44] utilizationSecCharge 130238.40640531
scalar OsgEarthNet.uav[44] utilizationSecIdle 92649.528153953
scalar OsgEarthNet.uav[44] utilizationEnergyMission 107807.92492294
scalar OsgEarthNet.uav[44] utilizationEnergyMaintenance 59857.698623657
scalar OsgEarthNet.uav[44] utilizationEnergyCharge 163262.04748535
scalar OsgEarthNet.uav[44] utilizationEnergyOverdrawMission 0
scalar OsgEarthNet.uav[44] utilizationEnergyOverdrawMaintenance 0
scalar OsgEarthNet.uav[44] utilizationCountMissions 36
scalar OsgEarthNet.uav[44] utilizationCountManeuversMission 402
scalar OsgEarthNet.uav[44] utilizationCountManeuversMaintenance 72
scalar OsgEarthNet.uav[44] utilizationCountChargeState 36
scalar OsgEarthNet.uav[44] utilizationCountOverdrawnAfterMission 0
scalar OsgEarthNet.uav[44] utilizationCountIdleState 36
scalar OsgEarthNet.uav[44] utilizationFail 0
scalar OsgEarthNet.uav[44] simulationTime 259200
scalar OsgEarthNet.uav[45] utilizationSecMission 694.00169469977
scalar OsgEarthNet.uav[45] utilizationSecMaintenance 282.18572599206
scalar OsgEarthNet.uav[45] utilizationSecCharge 3670
scalar OsgEarthNet.uav[45] utilizationSecIdle 254553.81157931
scalar OsgEarthNet.uav[45] utilizationEnergyMission 3307.4499664307
scalar OsgEarthNet.uav[45] utilizationEnergyMaintenance 1226.9746932983
scalar OsgEarthNet.uav[45] utilizationEnergyCharge 4534.4248046875
scalar OsgEarthNet.uav[45] utilizationEnergyOverdrawMission 0
scalar OsgEarthNet.uav[45] utilizationEnergyOverdrawMaintenance 0
scalar OsgEarthNet.uav[45] utilizationCountMissions 1
scalar OsgEarthNet.uav[45] utilizationCountManeuversMission 13
scalar OsgEarthNet.uav[45] utilizationCountManeuversMaintenance 2
scalar OsgEarthNet.uav[45] utilizationCountChargeState 1
scalar OsgEarthNet.uav[45] utilizationCountOverdrawnAfterMission 0
scalar OsgEarthNet.uav[45] utilizationCountIdleState 2
scalar OsgEarthNet.uav[45] utilizationFail 0
scalar OsgEarthNet.uav[45] simulationTime 259200
scalar OsgEarthNet.uav[46] utilizationSecMission 31559.98557004
scalar OsgEarthNet.uav[46] utilizationSecMaintenance 10899.922617172
scalar OsgEarthNet.uav[46] utilizationSecCharge 156230
scalar OsgEarthNet.uav[46] utilizationSecIdle 60510.090812788
scalar OsgEarthNet.uav[46] utilizationEnergyMission 145346.12319943
scalar OsgEarthNet.uav[46] utilizationEnergyMaintenance 50639.262275696
scalar OsgEarthNet.uav[46] utilizationEnergyCharge 195753.66796875
scalar OsgEarthNet.uav[46] utilizationEnergyOverdrawMission 0
scalar OsgEarthNet.uav[46] utilizationEnergyOverdrawMaintenance 0
scalar OsgEarthNet.uav[46] utilizationCountMissions 42
scalar OsgEarthNet.uav[46] utilizationCountManeuversMission 497
scalar OsgEarthNet.uav[46] utilizationCountManeuversMaintenance 83
scalar OsgEarthNet.uav[46] utilizationCountChargeState 42
scalar OsgEarthNet.uav[46] utilizationCountOverdrawnAfterMission 0
scalar OsgEarthNet.uav[46] utilizationCountIdleState 43
scalar OsgEarthNet.uav[46] utilizationFail 0
scalar OsgEarthNet.uav[46] simulationTime 259200
scalar OsgEarthNet.uav[47] utilizationSecMission 475.70932794513
scalar OsgEarthNet.uav[47] utilizationSecMaintenance 483.17663078829
scalar OsgEarthNet.uav[47] utilizationSecCharge 3690
scalar OsgEarthNet.uav[47] utilizationSecIdle 254551.11304127
scalar OsgEarthNet.uav[47] utilizationEnergyMission 2366.7241973877
scalar OsgEarthNet.uav[47] utilizationEnergyMaintenance 2264.7947616577
scalar OsgEarthNet.uav[47] utilizationEnergyCharge 4631.5209960938
scalar OsgEarthNet.uav[47] utilizationEnergyOverdrawMission 0
scalar OsgEarthNet.uav[47] utilizationEnergyOverdrawMaintenance 0
scalar OsgEarthNet.uav[47] utilizationCountMissions 1
scalar OsgEarthNet.uav[47] utilizationCountManeuversMission 9
scalar OsgEarthNet.uav[47] utilizationCountManeuversMaintenance 2
scalar OsgEarthNet.uav[47] utilizationCountChargeState 1
scalar OsgEarthNet.uav[47] utilizationCountOverdrawnAfterMission 0
scalar OsgEarthNet.uav[47] utilizationCountIdleState 2
scalar OsgEarthNet.uav[47] utilizationFail 0
scalar OsgEarthNet.uav[47] simulationTime 259200
scalar OsgEarthNet.uav[48] utilizationSecMission 30275.396299812
scalar OsgEarthNet.uav[48] utilizationSecMaintenance 13612.994045189
scalar OsgEarthNet.uav[48] utilizationSecCharge 160269.608655
scalar OsgEarthNet.uav[48] utilizationSecIdle 55042
scalar OsgEarthNet.uav[48] utilizationEnergyMission 139606.83374585
scalar OsgEarthNet.uav[48] utilizationEnergyMaintenance 64139.048339844
scalar OsgEarthNet.uav[48] utilizationEnergyCharge 201264.5637207
scalar OsgEarthNet.uav[48] utilizationEnergyOverdrawMission 0
scalar OsgEarthNet.uav[48] utilizationEnergyOverdrawMaintenance 0
scalar OsgEarthNet.uav[48] utilizationCountMissions 44
scalar OsgEarthNet.uav[48] utilizationCountManeuversMission 485
scalar OsgEarthNet.uav[48] utilizationCountManeuversMaintenance 87
scalar OsgEarthNet.uav[48] utilizationCountChargeState 44
scalar OsgEarthNet.uav[48] utilizationCountOverdrawnAfterMission 0
scalar OsgEarthNet.uav[48] utilizationCountIdleState 44
scalar OsgEarthNet.uav[48] utilizationFail 0
scalar OsgEarthNet.uav[48] simulationTime 259200
scalar OsgEarthNet.uav[49] utilizationSecMission 21303.24572912
scalar OsgEarthNet.uav[49] utilizationSecMaintenance 9373.5798414158
scalar OsgEarthNet.uav[49] utilizationSecCharge 112753.23016076
scalar OsgEarthNet.uav[49] utilizationSecIdle 115769.9432687
scalar OsgEarthNet.uav[49] utilizationEnergyMission 99638.942726135
scalar OsgEarthNet.uav[49] utilizationEnergyMaintenance 44640.402256012
scalar OsgEarthNet.uav[49] utilizationEnergyCharge 141958.32373047
scalar OsgEarthNet.uav[49] utilizationEnergyOverdrawMission 0
scalar OsgEarthNet.uav[49] utilizationEnergyOverdrawMaintenance 0
scalar OsgEarthNet.uav[49] utilizationCountMissions 31
scalar OsgEarthNet.uav[49] utilizationCountManeuversMission 350
scalar OsgEarthNet.uav[49] utilizationCountManeuversMaintenance 62
scalar OsgEarthNet.uav[49] utilizationCountChargeState 31
scalar OsgEarthNet.uav[49] utilizationCountOverdrawnAfterMission 0
scalar OsgEarthNet.uav[49] utilizationCountIdleState 31
scalar OsgEarthNet.uav[49] utilizationFail 0
scalar OsgEarthNet.uav[49] simulationTime 259200
scalar OsgEarthNet.uav[50] utilizationSecMission 760.62515258028
scalar OsgEarthNet.uav[50] utilizationSecMaintenance 291.95923480269
scalar OsgEarthNet.uav[50] utilizationSecCharge 3840
scalar OsgEarthNet.uav[50] utilizationSecIdle 254307.41461262
scalar OsgEarthNet.uav[50] utilizationEnergyMission 3439.7910766602
scalar OsgEarthNet.uav[50] utilizationEnergyMaintenance 1397.8352890015
scalar OsgEarthNet.uav[50] utilizationEnergyCharge 4837.623046875
scalar OsgEarthNet.uav[50] utilizationEnergyOverdrawMission 0
scalar OsgEarthNet.uav[50] utilizationEnergyOverdrawMaintenance 0
scalar OsgEarthNet.uav[50] utilizationCountMissions 1
scalar OsgEarthNet.uav[50] utilizationCountManeuversMission 12
scalar OsgEarthNet.uav[50] utilizationCountManeuversMaintenance 2
scalar OsgEarthNet.uav[50] utilizationCountChargeState 1
scalar OsgEarthNet.uav[50] utilizationCountOverdrawnAfterMission 0
scalar OsgEarthNet.uav[50] utilizationCountIdleState 2
scalar OsgEarthNet.uav[50] utilizationFail 0
scalar OsgEarthNet.uav[50] simulationTime 259200
scalar OsgEarthNet.uav[51] utilizationSecMission 32587.567767542
scalar OsgEarthNet.uav[51] utilizationSecMaintenance 11920.431232458
scalar OsgEarthNet.uav[51] utilizationSecCharge 160580
scalar OsgEarthNet.uav[51] utilizationSecIdle 54112
scalar OsgEarthNet.uav[51] utilizationEnergyMission 149767.77540984
scalar OsgEarthNet.uav[51] utilizationEnergyMaintenance 55284.287540436
scalar OsgEarthNet.uav[51] utilizationEnergyCharge 201475.78759766
scalar OsgEarthNet.uav[51] utilizationEnergyOverdrawMission 0
scalar OsgEarthNet.uav[51] utilizationEnergyOverdrawMaintenance 0
scalar OsgEarthNet.uav[51] utilizationCountMissions 43
scalar OsgEarthNet.uav[51] utilizationCountManeuversMission 519
scalar OsgEarthNet.uav[51] utilizationCountManeuversMaintenance 86
scalar OsgEarthNet.uav[51] utilizationCountChargeState 43
scalar OsgEarthNet.uav[51] utilizationCountOverdrawnAfterMission 0
scalar OsgEarthNet.uav[51] utilizationCountIdleState 44
scalar OsgEarthNet.uav[51] utilizationFail 0
scalar OsgEarthNet.uav[51] simulationTime 259200
scalar OsgEarthNet.uav[52] utilizationSecMission 32228.724643949
scalar OsgEarthNet.uav[52] utilizationSecMaintenance 12831.26081776
scalar OsgEarthNet.uav[52] utilizationSecCharge 167318.01353829
scalar OsgEarthNet.uav[52] utilizationSecIdle 46822
scalar OsgEarthNet.uav[52] utilizationEnergyMission 150638.83375628
scalar OsgEarthNet.uav[52] utilizationEnergyMaintenance 60755.745780945
scalar OsgEarthNet.uav[52] utilizationEnergyCharge 211128.90332031
scalar OsgEarthNet.uav[52] utilizationEnergyOverdrawMission 0
scalar OsgEarthNet.uav[52] utilizationEnergyOverdrawMaintenance 0
scalar OsgEarthNet.uav[52] utilizationCountMissions 45
scalar OsgEarthNet.uav[52] utilizationCountManeuversMission 521
scalar OsgEarthNet.uav[52] utilizationCountManeuversMaintenance 89
scalar OsgEarthNet.uav[52] utilizationCountChargeState 45
scalar OsgEarthNet.uav[52] utilizationCountOverdrawnAfterMission 0
scalar OsgEarthNet.uav[52] utilizationCountIdleState 45
scalar OsgEarthNet.uav[52] utilizationFail 0
scalar OsgEarthNet.uav[52] simulationTime 259200
scalar OsgEarthNet.uav[53] utilizationSecMission 684.4732299383
scalar OsgEarthNet.uav[53] utilizationSecMaintenance 298.56834692969
scalar OsgEarthNet.uav[53] utilizationSecCharge 3700
scalar OsgEarthNet.uav[53] utilizationSecIdle 254516.95742313
scalar OsgEarthNet.uav[53] utilizationEnergyMission 3228.1756896973
scalar OsgEarthNet.uav[53] utilizationEnergyMaintenance 1412.1930160522
scalar OsgEarthNet.uav[53] utilizationEnergyCharge 4640.365234375
scalar OsgEarthNet.uav[53] utilizationEnergyOverdrawMission 0
scalar OsgEarthNet.uav[53] utilizationEnergyOverdrawMaintenance 0
scalar OsgEarthNet.uav[53] utilizationCountMissions 1
scalar OsgEarthNet.uav[53] utilizationCountManeuversMission 11
scalar OsgEarthNet.uav[53] utilizationCountManeuversMaintenance 2
scalar OsgEarthNet.uav[53] utilizationCountChargeState 1
scalar OsgEarthNet.uav[53] utilizationCountOverdrawnAfterMission 0
scalar OsgEarthNet.uav[53] utilizationCountIdleState 2
scalar OsgEarthNet.uav[53] utilizationFail 0
scalar OsgEarthNet.uav[53] simulationTime 259200
scalar OsgEarthNet.uav[54] utilizationSecMission 28295.523204666
scalar OsgEarthNet.uav[54] utilizationSecMaintenance 14211.729407267
scalar OsgEarthNet.uav[54] utilizationSecCharge 156450
scalar OsgEarthNet.uav[54] utilizationSecIdle 60242.746388067
scalar OsgEarthNet.uav[54] utilizationEnergyMission 129910.50464541
scalar OsgEarthNet.uav[54] utilizationEnergyMaintenance 66909.650657654
scalar OsgEarthNet.uav[54] utilizationEnergyCharge 196112.81982422
scalar OsgEarthNet.uav[54] utilizationEnergyOverdrawMission 0
scalar OsgEarthNet.uav[54] utilizationEnergyOverdrawMaintenance 0
scalar OsgEarthNet.uav[54] utilizationCountMissions 42
scalar OsgEarthNet.uav[54] utilizationCountManeuversMission 457
scalar OsgEarthNet.uav[54] utilizationCountManeuversMaintenance 85
scalar OsgEarthNet.uav[54] utilizationCountChargeState 42
scalar OsgEarthNet.uav[54] utilizationCountOverdrawnAfterMission 0
scalar OsgEarthNet.uav[54] utilizationCountIdleState 43
scalar OsgEarthNet.uav[54] utilizationFail 0
scalar OsgEarthNet.uav[54] simulationTime 259200
scalar OsgEarthNet.uav[55] utilizationSecMission 27104.219474828
scalar OsgEarthNet.uav[55] utilizationSecMaintenance 13637.845985186
scalar OsgEarthNet.uav[55] utilizationSecCharge 148912.08518953
scalar OsgEarthNet.uav[55] utilizationSecIdle 69545.848350453
scalar OsgEarthNet.uav[55] utilizationEnergyMission 124734.55265808
scalar OsgEarthNet.uav[55] utilizationEnergyMaintenance 64512.378871918
scalar OsgEarthNet.uav[55] utilizationEnergyCharge 186849.23510742
scalar OsgEarthNet.uav[55] utilizationEnergyOverdrawMission 0
scalar OsgEarthNet.uav[55] utilizationEnergyOverdrawMaintenance 0
scalar OsgEarthNet.uav[55] utilizationCountMissions 41
scalar OsgEarthNet.uav[55] utilizationCountManeuversMission 440
scalar OsgEarthNet.uav[55] utilizationCountManeuversMaintenance 82
scalar OsgEarthNet.uav[55] utilizationCountChargeState 41
scalar OsgEarthNet.uav[55] utilizationCountOverdrawnAfterMission 0
scalar OsgEarthNet.uav[55] utilizationCountIdleState 41
scalar OsgEarthNet.uav[55] utilizationFail 0
scalar OsgEarthNet.uav[55] simulationTime 259200
scalar OsgEarthNet.uav[56] utilizationSecMission 702.6942798579
scalar OsgEarthNet.uav[56] utilizationSecMaintenance 282.29565405678
scalar OsgEarthNet.uav[56] utilizationSecCharge 3780
scalar OsgEarthNet.uav[56] utilizationSecIdle 254435.00906609
scalar OsgEarthNet.uav[56] utilizationEnergyMission 3409.9690246582
scalar OsgEarthNet.uav[56] utilizationEnergyMaintenance 1391.7493400574
scalar OsgEarthNet.uav[56] utilizationEnergyCharge 4801.7172851562
scalar OsgEarthNet.uav[56] utilizationEnergyOverdrawMission 0
scalar OsgEarthNet.uav[56] utilizationEnergyOverdrawMaintenance 0
scalar OsgEarthNet.uav[56] utilizationCountMissions 1
scalar OsgEarthNet.uav[56] utilizationCountManeuversMission 10
scalar OsgEarthNet.uav[56] utilizationCountManeuversMaintenance 2
scalar OsgEarthNet.uav[56] utilizationCountChargeState 1
scalar OsgEarthNet.uav[56] utilizationCountOverdrawnAfterMission 0
scalar OsgEarthNet.uav[56] utilizationCountIdleState 2
scalar OsgEarthNet.uav[56] utilizationFail 0
scalar OsgEarthNet.uav[56] simulationTime 259200
scalar OsgEarthNet.uav[57] utilizationSecMission 26591.495907772
scalar OsgEarthNet.uav[57] utilizationSecMaintenance 14448.671130059
scalar OsgEarthNet.uav[57] utilizationSecCharge 151857.03419681
scalar OsgEarthNet.uav[57] utilizationSecIdle 66302.797765356
scalar OsgEarthNet.uav[57] utilizationEnergyMission 122410.44757462
scalar OsgEarthNet.uav[57] utilizationEnergyMaintenance 67768.547340393
scalar OsgEarthNet.uav[57] utilizationEnergyCharge 190723.71386719
scalar OsgEarthNet.uav[57] utilizationEnergyOverdrawMission 0
scalar OsgEarthNet.uav[57] utilizationEnergyOverdrawMaintenance 0
scalar OsgEarthNet.uav[57] utilizationCountMissions 41
scalar OsgEarthNet.uav[57] utilizationCountManeuversMission 449
scalar OsgEarthNet.uav[57] utilizationCountManeuversMaintenance 82
scalar OsgEarthNet.uav[57] utilizationCountChargeState 41
scalar OsgEarthNet.uav[57] utilizationCountOverdrawnAfterMission 0
scalar OsgEarthNet.uav[57] utilizationCountIdleState 41
scalar OsgEarthNet.uav[57] utilizationFail 0
scalar OsgEarthNet.uav[57] simulationTime 259200
scalar OsgEarthNet.uav[58] utilizationSecMission 929.66633852757
scalar OsgEarthNet.uav[58] utilizationSecMaintenance 183.39004742748
scalar OsgEarthNet.uav[58] utilizationSecCharge 3850
scalar OsgEarthNet.uav[58] utilizationSecIdle 254236.94261404
scalar OsgEarthNet.uav[58] utilizationEnergyMission 4109.5955505371
scalar OsgEarthNet.uav[58] utilizationEnergyMaintenance 823.65850067139
scalar OsgEarthNet.uav[58] utilizationEnergyCharge 4881.8569335938
scalar OsgEarthNet.uav[58] utilizationEnergyOverdrawMission 0
scalar OsgEarthNet.uav[58] utilizationEnergyOverdrawMaintenance 0
scalar OsgEarthNet.uav[58] utilizationCountMissions 1
scalar OsgEarthNet.uav[58] utilizationCountManeuversMission 15
scalar OsgEarthNet.uav[58] utilizationCountManeuversMaintenance 2
scalar OsgEarthNet.uav[58] utilizationCountChargeState 1
scalar OsgEarthNet.uav[58] utilizationCountOverdrawnAfterMission 0
scalar OsgEarthNet.uav[58] utilizationCountIdleState 2
scalar OsgEarthNet.uav[58] utilizationFail 0
scalar OsgEarthNet.uav[58] simulationTime 259200
scalar OsgEarthNet.uav[59] utilizationSecMission 836.77707522227
scalar OsgEarthNet.uav[59] utilizationSecMaintenance 217.0347828456
scalar OsgEarthNet.uav[59] utilizationSecCharge 3910
scalar OsgEarthNet.uav[59] utilizationSecIdle 254236.18714193
scalar OsgEarthNet.uav[59] utilizationEnergyMission 3922.2167205811
scalar OsgEarthNet.uav[59] utilizationEnergyMaintenance 1071.1438713074
scalar OsgEarthNet.uav[59] utilizationEnergyCharge 4993.3588867188
scalar OsgEarthNet.uav[59] utilizationEnergyOverdrawMission 0
scalar OsgEarthNet.uav[59] utilizationEnergyOverdrawMaintenance 0
scalar OsgEarthNet.uav[59] utilizationCountMissions 1
scalar OsgEarthNet.uav[59] utilizationCountManeuversMission 13
scalar OsgEarthNet.uav[59] utilizationCountManeuversMaintenance 2
scalar OsgEarthNet.uav[59] utilizationCountChargeState 1
scalar OsgEarthNet.uav[59] utilizationCountOverdrawnAfterMission 0
scalar OsgEarthNet.uav[59] utilizationCountIdleState 2
scalar OsgEarthNet.uav[59] utilizationFail 0
scalar OsgEarthNet.uav[59] simulationTime 259200
scalar OsgEarthNet.uav[60] utilizationSecMission 760.62515258028
scalar OsgEarthNet.uav[60] utilizationSecMaintenance 223.6438949726
scalar OsgEarthNet.uav[60] utilizationSecCharge 3680
scalar OsgEarthNet.uav[60] utilizationSecIdle 254535.72995245
scalar OsgEarthNet.uav[60] utilizationEnergyMission 3565.2386169434
scalar OsgEarthNet.uav[60] utilizationEnergyMaintenance 1075.2118339539
scalar OsgEarthNet.uav[60] utilizationEnergyCharge 4640.4487304688
scalar OsgEarthNet.uav[60] utilizationEnergyOverdrawMission 0
scalar OsgEarthNet.uav[60] utilizationEnergyOverdrawMaintenance 0
scalar OsgEarthNet.uav[60] utilizationCountMissions 1
scalar OsgEarthNet.uav[60] utilizationCountManeuversMission 12
scalar OsgEarthNet.uav[60] utilizationCountManeuversMaintenance 2
scalar OsgEarthNet.uav[60] utilizationCountChargeState 1
scalar OsgEarthNet.uav[60] utilizationCountOverdrawnAfterMission 0
scalar OsgEarthNet.uav[60] utilizationCountIdleState 2
scalar OsgEarthNet.uav[60] utilizationFail 0
scalar OsgEarthNet.uav[60] simulationTime 259200
scalar OsgEarthNet.uav[61] utilizationSecMission 23196.471588756
scalar OsgEarthNet.uav[61] utilizationSecMaintenance 10249.279074154
scalar OsgEarthNet.uav[61] utilizationSecCharge 120939.49384389
scalar OsgEarthNet.uav[61] utilizationSecIdle 104814.7544932
scalar OsgEarthNet.uav[61] utilizationEnergyMission 107673.54020691
scalar OsgEarthNet.uav[61] utilizationEnergyMaintenance 47805.476680756
scalar OsgEarthNet.uav[61] utilizationEnergyCharge 152544.83056641
scalar OsgEarthNet.uav[61] utilizationEnergyOverdrawMission 0
scalar OsgEarthNet.uav[61] utilizationEnergyOverdrawMaintenance 0
scalar OsgEarthNet.uav[61] utilizationCountMissions 33
scalar OsgEarthNet.uav[61] utilizationCountManeuversMission 381
scalar OsgEarthNet.uav[61] utilizationCountManeuversMaintenance 66
scalar OsgEarthNet.uav[61] utilizationCountChargeState 33
scalar OsgEarthNet.uav[61] utilizationCountOverdrawnAfterMission 0
scalar OsgEarthNet.uav[61] utilizationCountIdleState 33
scalar OsgEarthNet.uav[61] utilizationFail 0
scalar OsgEarthNet.uav[61] simulationTime 259200
scalar OsgEarthNet.uav[62] utilizationSecMission 16601.483386669
scalar OsgEarthNet.uav[62] utilizationSecMaintenance 6729.4821582916
scalar OsgEarthNet.uav[62] utilizationSecCharge 85910.185297449
scalar OsgEarthNet.uav[62] utilizationSecIdle 149958.84815759
scalar OsgEarthNet.uav[62] utilizationEnergyMission 76576.866752625
scalar OsgEarthNet.uav[62] utilizationEnergyMaintenance 31598.376556396
scalar OsgEarthNet.uav[62] utilizationEnergyCharge 108953.70800781
scalar OsgEarthNet.uav[62] utilizationEnergyOverdrawMission 0
scalar OsgEarthNet.uav[62] utilizationEnergyOverdrawMaintenance 0
scalar OsgEarthNet.uav[62] utilizationCountMissions 23
scalar OsgEarthNet.uav[62] utilizationCountManeuversMission 270
scalar OsgEarthNet.uav[62] utilizationCountManeuversMaintenance 46
scalar OsgEarthNet.uav[62] utilizationCountChargeState 23
scalar OsgEarthNet.uav[62] utilizationCountOverdrawnAfterMission 0
scalar OsgEarthNet.uav[62] utilizationCountIdleState 23
scalar OsgEarthNet.uav[62] utilizationFail 0
scalar OsgEarthNet.uav[62] simulationTime 259200
scalar OsgEarthNet.uav[63] utilizationSecMission 760.62515258028
scalar OsgEarthNet.uav[63] utilizationSecMaintenance 223.6438949726
scalar OsgEarthNet.uav[63] utilizationSecCharge 3870
scalar OsgEarthNet.uav[63] utilizationSecIdle 254345.72995245
scalar OsgEarthNet.uav[63] utilizationEnergyMission 3881.2743377686
scalar OsgEarthNet.uav[63] utilizationEnergyMaintenance 1029.422618866
scalar OsgEarthNet.uav[63] utilizationEnergyCharge 4910.6987304688
scalar OsgEarthNet.uav[63] utilizationEnergyOverdrawMission 0
scalar OsgEarthNet.uav[63] utilizationEnergyOverdrawMaintenance 0
scalar OsgEarthNet.uav[63] utilizationCountMissions 1
scalar OsgEarthNet.uav[63] utilizationCountManeuversMission 12
scalar OsgEarthNet.uav[63] utilizationCountManeuversMaintenance 2
scalar OsgEarthNet.uav[63] utilizationCountChargeState 1
scalar OsgEarthNet.uav[63] utilizationCountOverdrawnAfterMission 0
scalar OsgEarthNet.uav[63] utilizationCountIdleState 2
scalar OsgEarthNet.uav[63] utilizationFail 0
scalar OsgEarthNet.uav[63] simulationTime 259200
scalar OsgEarthNet.uav[64] utilizationSecMission 27142.782844637
scalar OsgEarthNet.uav[64] utilizationSecMaintenance 15402.895330813
scalar OsgEarthNet.uav[64] utilizationSecCharge 156460
scalar OsgEarthNet.uav[64] utilizationSecIdle 60194.320824549
scalar OsgEarthNet.uav[64] utilizationEnergyMission 124243.03565979
scalar OsgEarthNet.uav[64] utilizationEnergyMaintenance 71888.631401062
scalar OsgEarthNet.uav[64] utilizationEnergyCharge 196547.90185547
scalar OsgEarthNet.uav[64] utilizationEnergyOverdrawMission 0
scalar OsgEarthNet.uav[64] utilizationEnergyOverdrawMaintenance 0
scalar OsgEarthNet.uav[64] utilizationCountMissions 42
scalar OsgEarthNet.uav[64] utilizationCountManeuversMission 450
scalar OsgEarthNet.uav[64] utilizationCountManeuversMaintenance 84
scalar OsgEarthNet.uav[64] utilizationCountChargeState 42
scalar OsgEarthNet.uav[64] utilizationCountOverdrawnAfterMission 0
scalar OsgEarthNet.uav[64] utilizationCountIdleState 43
scalar OsgEarthNet.uav[64] utilizationFail 0
scalar OsgEarthNet.uav[64] simulationTime 259200
scalar OsgEarthNet.uav[65] utilizationSecMission 31034.11409766
scalar OsgEarthNet.uav[65] utilizationSecMaintenance 12789.160308754
scalar OsgEarthNet.uav[65] utilizationSecCharge 163210.68849482
scalar OsgEarthNet.uav[65] utilizationSecIdle 52166.036098769
scalar OsgEarthNet.uav[65] utilizationEnergyMission 144211.85032654
scalar OsgEarthNet.uav[65] utilizationEnergyMaintenance 60995.534072876
[...]
scalar OsgEarthNet.uav[82] utilizationSecIdle 254366.36818415
scalar OsgEarthNet.uav[82] utilizationEnergyMission 3986.9337615967
scalar OsgEarthNet.uav[82] utilizationEnergyMaintenance 744.65986251831
scalar OsgEarthNet.uav[82] utilizationEnergyCharge 4810.681640625
scalar OsgEarthNet.uav[82] utilizationEnergyOverdrawMission 0
scalar OsgEarthNet.uav[82] utilizationEnergyOverdrawMaintenance 0
scalar OsgEarthNet.uav[82] utilizationCountMissions 1
scalar OsgEarthNet.uav[82] utilizationCountManeuversMission 13
scalar OsgEarthNet.uav[82] utilizationCountManeuversMaintenance 2
scalar OsgEarthNet.uav[82] utilizationCountChargeState 1
scalar OsgEarthNet.uav[82] utilizationCountOverdrawnAfterMission 0
scalar OsgEarthNet.uav[82] utilizationCountIdleState 2
scalar OsgEarthNet.uav[82] utilizationFail 0
scalar OsgEarthNet.uav[82] simulationTime 259200
scalar OsgEarthNet.uav[83] utilizationSecMission 760.62515258028
scalar OsgEarthNet.uav[83] utilizationSecMaintenance 291.95923480269
scalar OsgEarthNet.uav[83] utilizationSecCharge 3780
scalar OsgEarthNet.uav[83] utilizationSecIdle 254367.41461262
scalar OsgEarthNet.uav[83] utilizationEnergyMission 3347.3190460205
scalar OsgEarthNet.uav[83] utilizationEnergyMaintenance 1397.2482528687
scalar OsgEarthNet.uav[83] utilizationEnergyCharge 4744.5708007812
scalar OsgEarthNet.uav[83] utilizationEnergyOverdrawMission 0
scalar OsgEarthNet.uav[83] utilizationEnergyOverdrawMaintenance 0
scalar OsgEarthNet.uav[83] utilizationCountMissions 1
scalar OsgEarthNet.uav[83] utilizationCountManeuversMission 12
scalar OsgEarthNet.uav[83] utilizationCountManeuversMaintenance 2
scalar OsgEarthNet.uav[83] utilizationCountChargeState 1
scalar OsgEarthNet.uav[83] utilizationCountOverdrawnAfterMission 0
scalar OsgEarthNet.uav[83] utilizationCountIdleState 2
scalar OsgEarthNet.uav[83] utilizationFail 0
scalar OsgEarthNet.uav[83] simulationTime 259200
scalar OsgEarthNet.uav[84] utilizationSecMission 12782.306334466
scalar OsgEarthNet.uav[84] utilizationSecMaintenance 7315.5936153595
scalar OsgEarthNet.uav[84] utilizationSecCharge 74570
scalar OsgEarthNet.uav[84] utilizationSecIdle 164532.09905017
scalar OsgEarthNet.uav[84] utilizationEnergyMission 59357.658378601
scalar OsgEarthNet.uav[84] utilizationEnergyMaintenance 34801.087067384
scalar OsgEarthNet.uav[84] utilizationEnergyCharge 93703.458984375
scalar OsgEarthNet.uav[84] utilizationEnergyOverdrawMission 0
scalar OsgEarthNet.uav[84] utilizationEnergyOverdrawMaintenance 0
scalar OsgEarthNet.uav[84] utilizationCountMissions 20
scalar OsgEarthNet.uav[84] utilizationCountManeuversMission 217
scalar OsgEarthNet.uav[84] utilizationCountManeuversMaintenance 41
scalar OsgEarthNet.uav[84] utilizationCountChargeState 20
scalar OsgEarthNet.uav[84] utilizationCountOverdrawnAfterMission 0
scalar OsgEarthNet.uav[84] utilizationCountIdleState 21
scalar OsgEarthNet.uav[84] utilizationFail 0
scalar OsgEarthNet.uav[84] simulationTime 259200
scalar OsgEarthNet.uav[85] utilizationSecMission 27512.202305382
scalar OsgEarthNet.uav[85] utilizationSecMaintenance 11632.341041214
scalar OsgEarthNet.uav[85] utilizationSecCharge 142050
scalar OsgEarthNet.uav[85] utilizationSecIdle 78005.455653403
scalar OsgEarthNet.uav[85] utilizationEnergyMission 127055.3300397
scalar OsgEarthNet.uav[85] utilizationEnergyMaintenance 54920.002883911
scalar OsgEarthNet.uav[85] utilizationEnergyCharge 178461.87939453
scalar OsgEarthNet.uav[85] utilizationEnergyOverdrawMission 0
scalar OsgEarthNet.uav[85] utilizationEnergyOverdrawMaintenance 0
scalar OsgEarthNet.uav[85] utilizationCountMissions 38
scalar OsgEarthNet.uav[85] utilizationCountManeuversMission 437
scalar OsgEarthNet.uav[85] utilizationCountManeuversMaintenance 77
scalar OsgEarthNet.uav[85] utilizationCountChargeState 38
scalar OsgEarthNet.uav[85] utilizationCountOverdrawnAfterMission 0
scalar OsgEarthNet.uav[85] utilizationCountIdleState 39
scalar OsgEarthNet.uav[85] utilizationFail 0
scalar OsgEarthNet.uav[85] simulationTime 259200
scalar OsgEarthNet.uav[86] utilizationSecMission 750.20472747826
scalar OsgEarthNet.uav[86] utilizationSecMaintenance 335.16822070369
scalar OsgEarthNet.uav[86] utilizationSecCharge 3880
scalar OsgEarthNet.uav[86] utilizationSecIdle 254234.62605182
scalar OsgEarthNet.uav[86] utilizationEnergyMission 3353.8058776855
scalar OsgEarthNet.uav[86] utilizationEnergyMaintenance 1542.4524040222
scalar OsgEarthNet.uav[86] utilizationEnergyCharge 4896.2578125
scalar OsgEarthNet.uav[86] utilizationEnergyOverdrawMission 0
scalar OsgEarthNet.uav[86] utilizationEnergyOverdrawMaintenance 0
scalar OsgEarthNet.uav[86] utilizationCountMissions 1
scalar OsgEarthNet.uav[86] utilizationCountManeuversMission 11
scalar OsgEarthNet.uav[86] utilizationCountManeuversMaintenance 2
scalar OsgEarthNet.uav[86] utilizationCountChargeState 1
scalar OsgEarthNet.uav[86] utilizationCountOverdrawnAfterMission 0
scalar OsgEarthNet.uav[86] utilizationCountIdleState 2
scalar OsgEarthNet.uav[86] utilizationFail 0
scalar OsgEarthNet.uav[86] simulationTime 259200
scalar OsgEarthNet.uav[87] utilizationSecMission 2198.941054483
scalar OsgEarthNet.uav[87] utilizationSecMaintenance 873.82818315809
scalar OsgEarthNet.uav[87] utilizationSecCharge 11290
scalar OsgEarthNet.uav[87] utilizationSecIdle 244837.22976236
scalar OsgEarthNet.uav[87] utilizationEnergyMission 9718.0193481445
scalar OsgEarthNet.uav[87] utilizationEnergyMaintenance 4463.3101043701
scalar OsgEarthNet.uav[87] utilizationEnergyCharge 14181.327148438
scalar OsgEarthNet.uav[87] utilizationEnergyOverdrawMission 0
scalar OsgEarthNet.uav[87] utilizationEnergyOverdrawMaintenance 0
scalar OsgEarthNet.uav[87] utilizationCountMissions 3
scalar OsgEarthNet.uav[87] utilizationCountManeuversMission 36
scalar OsgEarthNet.uav[87] utilizationCountManeuversMaintenance 6
scalar OsgEarthNet.uav[87] utilizationCountChargeState 3
scalar OsgEarthNet.uav[87] utilizationCountOverdrawnAfterMission 0
scalar OsgEarthNet.uav[87] utilizationCountIdleState 4
scalar OsgEarthNet.uav[87] utilizationFail 0
scalar OsgEarthNet.uav[87] simulationTime 259200
scalar OsgEarthNet.uav[88] utilizationSecMission 3901.5608606679
scalar OsgEarthNet.uav[88] utilizationSecMaintenance 2135.7389376963
scalar OsgEarthNet.uav[88] utilizationSecCharge 22390
scalar OsgEarthNet.uav[88] utilizationSecIdle 230772.69920164
scalar OsgEarthNet.uav[88] utilizationEnergyMission 18371.726074219
scalar OsgEarthNet.uav[88] utilizationEnergyMaintenance 9801.0794296265
scalar OsgEarthNet.uav[88] utilizationEnergyCharge 28132.170898438
scalar OsgEarthNet.uav[88] utilizationEnergyOverdrawMission 0
scalar OsgEarthNet.uav[88] utilizationEnergyOverdrawMaintenance 0
scalar OsgEarthNet.uav[88] utilizationCountMissions 6
scalar OsgEarthNet.uav[88] utilizationCountManeuversMission 64
scalar OsgEarthNet.uav[88] utilizationCountManeuversMaintenance 12
scalar OsgEarthNet.uav[88] utilizationCountChargeState 6
scalar OsgEarthNet.uav[88] utilizationCountOverdrawnAfterMission 0
scalar OsgEarthNet.uav[88] utilizationCountIdleState 7
scalar OsgEarthNet.uav[88] utilizationFail 0
scalar OsgEarthNet.uav[88] simulationTime 259200
scalar OsgEarthNet.uav[89] utilizationSecMission 760.62515258028
scalar OsgEarthNet.uav[89] utilizationSecMaintenance 291.95923480269
scalar OsgEarthNet.uav[89] utilizationSecCharge 3770
scalar OsgEarthNet.uav[89] utilizationSecIdle 254377.41461262
scalar OsgEarthNet.uav[89] utilizationEnergyMission 3422.6010284424
scalar OsgEarthNet.uav[89] utilizationEnergyMaintenance 1352.3180770874
scalar OsgEarthNet.uav[89] utilizationEnergyCharge 4774.9145507812
scalar OsgEarthNet.uav[89] utilizationEnergyOverdrawMission 0
scalar OsgEarthNet.uav[89] utilizationEnergyOverdrawMaintenance 0
scalar OsgEarthNet.uav[89] utilizationCountMissions 1
scalar OsgEarthNet.uav[89] utilizationCountManeuversMission 12
scalar OsgEarthNet.uav[89] utilizationCountManeuversMaintenance 2
scalar OsgEarthNet.uav[89] utilizationCountChargeState 1
scalar OsgEarthNet.uav[89] utilizationCountOverdrawnAfterMission 0
scalar OsgEarthNet.uav[89] utilizationCountIdleState 2
scalar OsgEarthNet.uav[89] utilizationFail 0
scalar OsgEarthNet.uav[89] simulationTime 259200
scalar OsgEarthNet.uav[90] utilizationSecMission 25338.015879881
scalar OsgEarthNet.uav[90] utilizationSecMaintenance 13737.341451677
scalar OsgEarthNet.uav[90] utilizationSecCharge 143375.32455495
scalar OsgEarthNet.uav[90] utilizationSecIdle 76749.317113489
scalar OsgEarthNet.uav[90] utilizationEnergyMission 117651.93466187
scalar OsgEarthNet.uav[90] utilizationEnergyMaintenance 63816.341098785
scalar OsgEarthNet.uav[90] utilizationEnergyCharge 180576.30517578
scalar OsgEarthNet.uav[90] utilizationEnergyOverdrawMission 0
scalar OsgEarthNet.uav[90] utilizationEnergyOverdrawMaintenance 0
scalar OsgEarthNet.uav[90] utilizationCountMissions 39
scalar OsgEarthNet.uav[90] utilizationCountManeuversMission 416
scalar OsgEarthNet.uav[90] utilizationCountManeuversMaintenance 78
scalar OsgEarthNet.uav[90] utilizationCountChargeState 39
scalar OsgEarthNet.uav[90] utilizationCountOverdrawnAfterMission 0
scalar OsgEarthNet.uav[90] utilizationCountIdleState 39
scalar OsgEarthNet.uav[90] utilizationFail 0
scalar OsgEarthNet.uav[90] simulationTime 259200
scalar OsgEarthNet.uav[91] utilizationSecMission 25907.785588478
scalar OsgEarthNet.uav[91] utilizationSecMaintenance 10683.685576767
scalar OsgEarthNet.uav[91] utilizationSecCharge 135030
scalar OsgEarthNet.uav[91] utilizationSecIdle 87578.527834755
scalar OsgEarthNet.uav[91] utilizationEnergyMission 119508.26857758
scalar OsgEarthNet.uav[91] utilizationEnergyMaintenance 50604.872951508
scalar OsgEarthNet.uav[91] utilizationEnergyCharge 170149.671875
scalar OsgEarthNet.uav[91] utilizationEnergyOverdrawMission 0
scalar OsgEarthNet.uav[91] utilizationEnergyOverdrawMaintenance 0
scalar OsgEarthNet.uav[91] utilizationCountMissions 36
scalar OsgEarthNet.uav[91] utilizationCountManeuversMission 399
scalar OsgEarthNet.uav[91] utilizationCountManeuversMaintenance 72
scalar OsgEarthNet.uav[91] utilizationCountChargeState 36
scalar OsgEarthNet.uav[91] utilizationCountOverdrawnAfterMission 0
scalar OsgEarthNet.uav[91] utilizationCountIdleState 37
scalar OsgEarthNet.uav[91] utilizationFail 0
scalar OsgEarthNet.uav[91] simulationTime 259200
scalar OsgEarthNet.uav[92] utilizationSecMission 25609.017106233
scalar OsgEarthNet.uav[92] utilizationSecMaintenance 15759.528935049
scalar OsgEarthNet.uav[92] utilizationSecCharge 152240
scalar OsgEarthNet.uav[92] utilizationSecIdle 65591.452958717
scalar OsgEarthNet.uav[92] utilizationEnergyMission 118871.05302429
scalar OsgEarthNet.uav[92] utilizationEnergyMaintenance 72724.098827203
scalar OsgEarthNet.uav[92] utilizationEnergyCharge 190971.53979492
scalar OsgEarthNet.uav[92] utilizationEnergyOverdrawMission 0
scalar OsgEarthNet.uav[92] utilizationEnergyOverdrawMaintenance 0
scalar OsgEarthNet.uav[92] utilizationCountMissions 41
scalar OsgEarthNet.uav[92] utilizationCountManeuversMission 417
scalar OsgEarthNet.uav[92] utilizationCountManeuversMaintenance 83
scalar OsgEarthNet.uav[92] utilizationCountChargeState 41
scalar OsgEarthNet.uav[92] utilizationCountOverdrawnAfterMission 0
scalar OsgEarthNet.uav[92] utilizationCountIdleState 42
scalar OsgEarthNet.uav[92] utilizationFail 0
scalar OsgEarthNet.uav[92] simulationTime 259200
scalar OsgEarthNet.uav[93] utilizationSecMission 2869.5515970309
scalar OsgEarthNet.uav[93] utilizationSecMaintenance 2171.1882246113
scalar OsgEarthNet.uav[93] utilizationSecCharge 18580
scalar OsgEarthNet.uav[93] utilizationSecIdle 235579.25917836
scalar OsgEarthNet.uav[93] utilizationEnergyMission 13453.343330383
scalar OsgEarthNet.uav[93] utilizationEnergyMaintenance 9971.640045166
scalar OsgEarthNet.uav[93] utilizationEnergyCharge 23363.716796875
scalar OsgEarthNet.uav[93] utilizationEnergyOverdrawMission 0
scalar OsgEarthNet.uav[93] utilizationEnergyOverdrawMaintenance 0
scalar OsgEarthNet.uav[93] utilizationCountMissions 5
scalar OsgEarthNet.uav[93] utilizationCountManeuversMission 47
scalar OsgEarthNet.uav[93] utilizationCountManeuversMaintenance 10
scalar OsgEarthNet.uav[93] utilizationCountChargeState 5
scalar OsgEarthNet.uav[93] utilizationCountOverdrawnAfterMission 0
scalar OsgEarthNet.uav[93] utilizationCountIdleState 6
scalar OsgEarthNet.uav[93] utilizationFail 0
scalar OsgEarthNet.uav[93] simulationTime 259200
scalar OsgEarthNet.uav[94] utilizationSecMission 14691.204484219
scalar OsgEarthNet.uav[94] utilizationSecMaintenance 7624.1488039521
scalar OsgEarthNet.uav[94] utilizationSecCharge 82180
scalar OsgEarthNet.uav[94] utilizationSecIdle 154704.64571183
scalar OsgEarthNet.uav[94] utilizationEnergyMission 67336.223625183
scalar OsgEarthNet.uav[94] utilizationEnergyMaintenance 35695.735786438
scalar OsgEarthNet.uav[94] utilizationEnergyCharge 103091.90966797
scalar OsgEarthNet.uav[94] utilizationEnergyOverdrawMission 0
scalar OsgEarthNet.uav[94] utilizationEnergyOverdrawMaintenance 0
scalar OsgEarthNet.uav[94] utilizationCountMissions 22
scalar OsgEarthNet.uav[94] utilizationCountManeuversMission 243
scalar OsgEarthNet.uav[94] utilizationCountManeuversMaintenance 44
scalar OsgEarthNet.uav[94] utilizationCountChargeState 22
scalar OsgEarthNet.uav[94] utilizationCountOverdrawnAfterMission 0
scalar OsgEarthNet.uav[94] utilizationCountIdleState 23
scalar OsgEarthNet.uav[94] utilizationFail 0
scalar OsgEarthNet.uav[94] simulationTime 259200
scalar OsgEarthNet.uav[95] utilizationSecMission 25507.876923454
scalar OsgEarthNet.uav[95] utilizationSecMaintenance 14952.246153116
scalar OsgEarthNet.uav[95] utilizationSecCharge 150690.45057266
scalar OsgEarthNet.uav[95] utilizationSecIdle 68049.425350767
scalar OsgEarthNet.uav[95] utilizationEnergyMission 118843.77174759
scalar OsgEarthNet.uav[95] utilizationEnergyMaintenance 71022.623332977
scalar OsgEarthNet.uav[95] utilizationEnergyCharge 189828.33862305
scalar OsgEarthNet.uav[95] utilizationEnergyOverdrawMission 0
scalar OsgEarthNet.uav[95] utilizationEnergyOverdrawMaintenance 0
scalar OsgEarthNet.uav[95] utilizationCountMissions 41
scalar OsgEarthNet.uav[95] utilizationCountManeuversMission 435
scalar OsgEarthNet.uav[95] utilizationCountManeuversMaintenance 82
scalar OsgEarthNet.uav[95] utilizationCountChargeState 41
scalar OsgEarthNet.uav[95] utilizationCountOverdrawnAfterMission 0
scalar OsgEarthNet.uav[95] utilizationCountIdleState 41
scalar OsgEarthNet.uav[95] utilizationFail 0
scalar OsgEarthNet.uav[95] simulationTime 259200
scalar OsgEarthNet.uav[96] utilizationSecMission 7845.9727796044
scalar OsgEarthNet.uav[96] utilizationSecMaintenance 4509.3600448858
scalar OsgEarthNet.uav[96] utilizationSecCharge 44930
scalar OsgEarthNet.uav[96] utilizationSecIdle 201914.66617551
scalar OsgEarthNet.uav[96] utilizationEnergyMission 35770.817993164
scalar OsgEarthNet.uav[96] utilizationEnergyMaintenance 20519.282455444
scalar OsgEarthNet.uav[96] utilizationEnergyCharge 56558.387207031
scalar OsgEarthNet.uav[96] utilizationEnergyOverdrawMission 0
scalar OsgEarthNet.uav[96] utilizationEnergyOverdrawMaintenance 0
scalar OsgEarthNet.uav[96] utilizationCountMissions 12
scalar OsgEarthNet.uav[96] utilizationCountManeuversMission 125
scalar OsgEarthNet.uav[96] utilizationCountManeuversMaintenance 24
scalar OsgEarthNet.uav[96] utilizationCountChargeState 12
scalar OsgEarthNet.uav[96] utilizationCountOverdrawnAfterMission 0
scalar OsgEarthNet.uav[96] utilizationCountIdleState 13
scalar OsgEarthNet.uav[96] utilizationFail 0
scalar OsgEarthNet.uav[96] simulationTime 259200
scalar OsgEarthNet.uav[97] utilizationSecMission 29087.090985779
scalar OsgEarthNet.uav[97] utilizationSecMaintenance 13198.167029574
scalar OsgEarthNet.uav[97] utilizationSecCharge 154600
scalar OsgEarthNet.uav[97] utilizationSecIdle 62314.740984647
scalar OsgEarthNet.uav[97] utilizationEnergyMission 133909.55797626
scalar OsgEarthNet.uav[97] utilizationEnergyMaintenance 62118.591590881
scalar OsgEarthNet.uav[97] utilizationEnergyCharge 193233.07666016
scalar OsgEarthNet.uav[97] utilizationEnergyOverdrawMission 0
scalar OsgEarthNet.uav[97] utilizationEnergyOverdrawMaintenance 0
scalar OsgEarthNet.uav[97] utilizationCountMissions 42
scalar OsgEarthNet.uav[97] utilizationCountManeuversMission 478
scalar OsgEarthNet.uav[97] utilizationCountManeuversMaintenance 85
scalar OsgEarthNet.uav[97] utilizationCountChargeState 42
scalar OsgEarthNet.uav[97] utilizationCountOverdrawnAfterMission 0
scalar OsgEarthNet.uav[97] utilizationCountIdleState 42
scalar OsgEarthNet.uav[97] utilizationFail 0
scalar OsgEarthNet.uav[97] simulationTime 259200
scalar OsgEarthNet.uav[98] utilizationSecMission 22263.752784987
scalar OsgEarthNet.uav[98] utilizationSecMaintenance 15107.306344816
scalar OsgEarthNet.uav[98] utilizationSecCharge 138330
scalar OsgEarthNet.uav[98] utilizationSecIdle 83498.939870198
scalar OsgEarthNet.uav[98] utilizationEnergyMission 103447.01128769
scalar OsgEarthNet.uav[98] utilizationEnergyMaintenance 70303.302822113
scalar OsgEarthNet.uav[98] utilizationEnergyCharge 173698.30761719
scalar OsgEarthNet.uav[98] utilizationEnergyOverdrawMission 0
scalar OsgEarthNet.uav[98] utilizationEnergyOverdrawMaintenance 0
scalar OsgEarthNet.uav[98] utilizationCountMissions 37
scalar OsgEarthNet.uav[98] utilizationCountManeuversMission 377
scalar OsgEarthNet.uav[98] utilizationCountManeuversMaintenance 74
scalar OsgEarthNet.uav[98] utilizationCountChargeState 37
scalar OsgEarthNet.uav[98] utilizationCountOverdrawnAfterMission 0
scalar OsgEarthNet.uav[98] utilizationCountIdleState 38
scalar OsgEarthNet.uav[98] utilizationFail 0
scalar OsgEarthNet.uav[98] simulationTime 259200
scalar OsgEarthNet.uav[99] utilizationSecMission 29743.232889824
scalar OsgEarthNet.uav[99] utilizationSecMaintenance 12633.090768359
scalar OsgEarthNet.uav[99] utilizationSecCharge 153650
scalar OsgEarthNet.uav[99] utilizationSecIdle 63173.675341817
scalar OsgEarthNet.uav[99] utilizationEnergyMission 138539.56022263
scalar OsgEarthNet.uav[99] utilizationEnergyMaintenance 59481.405223556
scalar OsgEarthNet.uav[99] utilizationEnergyCharge 193375.92944336
scalar OsgEarthNet.uav[99] utilizationEnergyOverdrawMission 0
scalar OsgEarthNet.uav[99] utilizationEnergyOverdrawMaintenance 0
scalar OsgEarthNet.uav[99] utilizationCountMissions 41
scalar OsgEarthNet.uav[99] utilizationCountManeuversMission 470
scalar OsgEarthNet.uav[99] utilizationCountManeuversMaintenance 83
scalar OsgEarthNet.uav[99] utilizationCountChargeState 41
scalar OsgEarthNet.uav[99] utilizationCountOverdrawnAfterMission 0
scalar OsgEarthNet.uav[99] utilizationCountIdleState 42
scalar OsgEarthNet.uav[99] utilizationFail 0
scalar OsgEarthNet.uav[99] simulationTime 259200
scalar OsgEarthNet.cs[0] usedPower 562588.69786653
scalar OsgEarthNet.cs[0] chargedPower 562588.69786653
scalar OsgEarthNet.cs[0] chargedMobileNodes 118
scalar OsgEarthNet.cs[0] reservations 122
scalar OsgEarthNet.cs[1] usedPower 1112238.6397666
scalar OsgEarthNet.cs[1] chargedPower 1112238.6397666
scalar OsgEarthNet.cs[1] chargedMobileNodes 235
scalar OsgEarthNet.cs[1] reservations 238
scalar OsgEarthNet.cs[2] usedPower 2604379.3719294
scalar OsgEarthNet.cs[2] chargedPower 2604379.3719294
scalar OsgEarthNet.cs[2] chargedMobileNodes 548
scalar OsgEarthNet.cs[2] reservations 558
scalar OsgEarthNet.cs[3] usedPower 874738.47520846
scalar OsgEarthNet.cs[3] chargedPower 874738.47520846
scalar OsgEarthNet.cs[3] chargedMobileNodes 190
scalar OsgEarthNet.cs[3] reservations 190
scalar OsgEarthNet.cs[4] usedPower 747357.95395237
scalar OsgEarthNet.cs[4] chargedPower 747357.95395237
scalar OsgEarthNet.cs[4] chargedMobileNodes 160
scalar OsgEarthNet.cs[4] reservations 162
scalar OsgEarthNet.cs[5] usedPower 439339.1465015
scalar OsgEarthNet.cs[5] chargedPower 439339.1465015
scalar OsgEarthNet.cs[5] chargedMobileNodes 92
scalar OsgEarthNet.cs[5] reservations 93
scalar OsgEarthNet.cs[6] usedPower 2462844.6475449
scalar OsgEarthNet.cs[6] chargedPower 2462844.6475449
scalar OsgEarthNet.cs[6] chargedMobileNodes 523
scalar OsgEarthNet.cs[6] reservations 530

