version 2
run Szenario_Hotel_Gabelbach-48-20180709-14:42:36-9264
attr configname Szenario_Hotel_Gabelbach
attr datetime 20180709-14:42:36
attr experiment Szenario_Hotel_Gabelbach
attr inifile omnetpp.ini
attr iterationvars "$replM=2, $biWeight=0.6"
attr iterationvarsf replM=2,biWeight=0.6-
attr measurement "$replM=2, $biWeight=0.6"
attr network OsgEarthNet
attr processid 9264
attr repetition 0
attr replication #0
attr resultdir results
attr runnumber 48
attr seedset 48
itervar biWeight 0.6
itervar replM 2
param *.osgEarthScene.scene "\"Szenario_Hotel_Gabelbach.earth\""
param *.playgroundLatitude 50.6830269
param *.playgroundLongitude 10.8538055
param *.playgroundWidth 3500m
param *.playgroundHeight 3500m
param *.numUAVs 100
param *.cs[0].posX 3537m
param *.cs[0].posY 965m
param *.cs[0].posZ 538m
param *.cs[1].posX 312m
param *.cs[1].posY 1262m
param *.cs[1].posZ 539m
param *.cs[2].posX 2185m
param *.cs[2].posY 3026m
param *.cs[2].posZ 777m
param *.cs[3].posX 10m
param *.cs[3].posY 2200m
param *.cs[3].posZ 560m
param *.cs[4].posX 750m
param *.cs[4].posY 200m
param *.cs[4].posZ 540m
param *.cs[5].posX 2450m
param *.cs[5].posY 180m
param *.cs[5].posZ 524m
param *.cs[6].posX 3140m
param *.cs[6].posY 1790m
param *.cs[6].posZ 606m
param *.numCSs 7
param *.uav[*].replacementMethod 2
param *.uav[*].weightedSumWeight 0.6
param *.*.timeStep 10s
param *.uav[*].commandPreviewCommandCount 20
param *.missionControl.missionFiles "\"missions\\\\Szenario_WB_Hotel_Gabelbach_Mission_Hotel.waypoints,missions\\\\Szenario_WB_Hotel_Gabelbach_Mission_Kickelhahn.waypoints,missions\\\\Szenario_WB_Hotel_Gabelbach_Mission_Ilmenau_Sportplatz.waypoints,missions\\\\Szenario_WB_Hotel_Gabelbach_Mission_Manebach_Mitte.waypoints,missions\\\\Szenario_WB_Hotel_Gabelbach_Mission_Manebach_Sued.waypoints\""
param *.missionControl.missionFiles "\"missions\\\\Szenario_WB_Hotel_Gabelbach_Mission_Hotel.waypoints,missions\\\\Szenario_WB_Hotel_Gabelbach_Mission_Kickelhahn.waypoints,missions\\\\Szenario_WB_Hotel_Gabelbach_Mission_Ilmenau_Sportplatz.waypoints,missions\\\\Szenario_WB_Hotel_Gabelbach_Mission_Manebach_Mitte.waypoints,missions\\\\Szenario_WB_Hotel_Gabelbach_Mission_Manebach_Sued.waypoints,missions\\\\Szenario_WB_Hotel_Gabelbach_Hover_HoheSchlaufe.waypoints,missions\\\\Szenario_WB_Hotel_Gabelbach_Hover_Kickelhahn.waypoints,missions\\\\Szenario_WB_Hotel_Gabelbach_Hover_Gabelbachskopf.waypoints,missions\\\\Szenario_WB_Hotel_Gabelbach_Hover_Dachskopf.waypoints\""
param *.uav[0].startX 3537m
param *.uav[0].startY 965m
param *.uav[0].startZ 539m
param *.uav[1].startX 312m
param *.uav[1].startY 1262m
param *.uav[1].startZ 540m
param *.uav[2].startX 2185m
param *.uav[2].startY 3026m
param *.uav[2].startZ 778m
param *.uav[3].startX 3537m
param *.uav[3].startY 965m
param *.uav[3].startZ 539m
param *.uav[4].startX 312m
param *.uav[4].startY 1262m
param *.uav[4].startZ 540m
param *.uav[5].startX 2185m
param *.uav[5].startY 3026m
param *.uav[5].startZ 778m
param *.uav[6].startX 3537m
param *.uav[6].startY 965m
param *.uav[6].startZ 539m
param *.uav[7].startX 312m
param *.uav[7].startY 1262m
param *.uav[7].startZ 540m
param *.uav[8].startX 2185m
param *.uav[8].startY 3026m
param *.uav[8].startZ 778m
param *.uav[9].startX 3537m
param *.uav[9].startY 965m
param *.uav[9].startZ 539m
param *.uav[10].startX 3537m
param *.uav[10].startY 965m
param *.uav[10].startZ 539m
param *.uav[11].startX 312m
param *.uav[11].startY 1262m
param *.uav[11].startZ 540m
param *.uav[12].startX 2185m
param *.uav[12].startY 3026m
param *.uav[12].startZ 778m
param *.uav[13].startX 3537m
param *.uav[13].startY 965m
param *.uav[13].startZ 539m
param *.uav[14].startX 312m
param *.uav[14].startY 1262m
param *.uav[14].startZ 540m
param *.uav[15].startX 2185m
param *.uav[15].startY 3026m
param *.uav[15].startZ 778m
param *.uav[16].startX 3537m
param *.uav[16].startY 965m
param *.uav[16].startZ 539m
param *.uav[17].startX 312m
param *.uav[17].startY 1262m
param *.uav[17].startZ 540m
param *.uav[18].startX 2185m
param *.uav[18].startY 3026m
param *.uav[18].startZ 778m
param *.uav[19].startX 3537m
param *.uav[19].startY 965m
param *.uav[19].startZ 539m
param *.uav[20].startX 3537m
param *.uav[20].startY 965m
param *.uav[20].startZ 539m
param *.uav[21].startX 312m
param *.uav[21].startY 1262m
param *.uav[21].startZ 540m
param *.uav[22].startX 2185m
param *.uav[22].startY 3026m
param *.uav[22].startZ 778m
param *.uav[23].startX 3537m
param *.uav[23].startY 965m
param *.uav[23].startZ 539m
param *.uav[24].startX 312m
param *.uav[24].startY 1262m
param *.uav[24].startZ 540m
param *.uav[25].startX 2185m
param *.uav[25].startY 3026m
param *.uav[25].startZ 778m
param *.uav[26].startX 3537m
param *.uav[26].startY 965m
param *.uav[26].startZ 539m
param *.uav[27].startX 312m
param *.uav[27].startY 1262m
param *.uav[27].startZ 540m
param *.uav[28].startX 2185m
param *.uav[28].startY 3026m
param *.uav[28].startZ 778m
param *.uav[29].startX 3537m
param *.uav[29].startY 965m
param *.uav[29].startZ 539m
param *.uav[30].startX 3537m
param *.uav[30].startY 965m
param *.uav[30].startZ 539m
param *.uav[31].startX 312m
param *.uav[31].startY 1262m
param *.uav[31].startZ 540m
param *.uav[32].startX 2185m
param *.uav[32].startY 3026m
param *.uav[32].startZ 778m
param *.uav[33].startX 3537m
param *.uav[33].startY 965m
param *.uav[33].startZ 539m
param *.uav[34].startX 312m
param *.uav[34].startY 1262m
param *.uav[34].startZ 540m
param *.uav[35].startX 2185m
param *.uav[35].startY 3026m
param *.uav[35].startZ 778m
param *.uav[36].startX 3537m
param *.uav[36].startY 965m
param *.uav[36].startZ 539m
param *.uav[37].startX 312m
param *.uav[37].startY 1262m
param *.uav[37].startZ 540m
param *.uav[38].startX 2185m
param *.uav[38].startY 3026m
param *.uav[38].startZ 778m
param *.uav[39].startX 3537m
param *.uav[39].startY 965m
param *.uav[39].startZ 539m
param *.uav[40].startX 3537m
param *.uav[40].startY 965m
param *.uav[40].startZ 539m
param *.uav[41].startX 312m
param *.uav[41].startY 1262m
param *.uav[41].startZ 540m
param *.uav[42].startX 2185m
param *.uav[42].startY 3026m
param *.uav[42].startZ 778m
param *.uav[43].startX 3537m
param *.uav[43].startY 965m
param *.uav[43].startZ 539m
param *.uav[44].startX 312m
param *.uav[44].startY 1262m
param *.uav[44].startZ 540m
param *.uav[45].startX 2185m
param *.uav[45].startY 3026m
param *.uav[45].startZ 778m
param *.uav[46].startX 3537m
param *.uav[46].startY 965m
param *.uav[46].startZ 539m
param *.uav[47].startX 312m
param *.uav[47].startY 1262m
param *.uav[47].startZ 540m
param *.uav[48].startX 2185m
param *.uav[48].startY 3026m
param *.uav[48].startZ 778m
param *.uav[49].startX 3537m
param *.uav[49].startY 965m
param *.uav[49].startZ 539m
param *.uav[50].startX 3537m
param *.uav[50].startY 965m
param *.uav[50].startZ 539m
param *.uav[51].startX 312m
param *.uav[51].startY 1262m
param *.uav[51].startZ 540m
param *.uav[52].startX 2185m
param *.uav[52].startY 3026m
param *.uav[52].startZ 778m
param *.uav[53].startX 3537m
param *.uav[53].startY 965m
param *.uav[53].startZ 539m
param *.uav[54].startX 312m
param *.uav[54].startY 1262m
param *.uav[54].startZ 540m
param *.uav[55].startX 2185m
param *.uav[55].startY 3026m
param *.uav[55].startZ 778m
param *.uav[56].startX 3537m
param *.uav[56].startY 965m
param *.uav[56].startZ 539m
param *.uav[57].startX 312m
param *.uav[57].startY 1262m
param *.uav[57].startZ 540m
param *.uav[58].startX 2185m
param *.uav[58].startY 3026m
param *.uav[58].startZ 778m
param *.uav[59].startX 3537m
param *.uav[59].startY 965m
param *.uav[59].startZ 539m
param *.uav[60].startX 3537m
param *.uav[60].startY 965m
param *.uav[60].startZ 539m
param *.uav[61].startX 312m
param *.uav[61].startY 1262m
param *.uav[61].startZ 540m
param *.uav[62].startX 2185m
param *.uav[62].startY 3026m
param *.uav[62].startZ 778m
param *.uav[63].startX 3537m
param *.uav[63].startY 965m
param *.uav[63].startZ 539m
param *.uav[64].startX 312m
param *.uav[64].startY 1262m
param *.uav[64].startZ 540m
param *.uav[65].startX 2185m
param *.uav[65].startY 3026m
param *.uav[65].startZ 778m
param *.uav[66].startX 3537m
param *.uav[66].startY 965m
param *.uav[66].startZ 539m
param *.uav[67].startX 312m
param *.uav[67].startY 1262m
param *.uav[67].startZ 540m
param *.uav[68].startX 2185m
param *.uav[68].startY 3026m
param *.uav[68].startZ 778m
param *.uav[69].startX 3537m
param *.uav[69].startY 965m
param *.uav[69].startZ 539m
param *.uav[70].startX 3537m
param *.uav[70].startY 965m
param *.uav[70].startZ 539m
param *.uav[71].startX 312m
param *.uav[71].startY 1262m
param *.uav[71].startZ 540m
param *.uav[72].startX 2185m
param *.uav[72].startY 3026m
param *.uav[72].startZ 778m
param *.uav[73].startX 3537m
param *.uav[73].startY 965m
param *.uav[73].startZ 539m
param *.uav[74].startX 312m
param *.uav[74].startY 1262m
param *.uav[74].startZ 540m
param *.uav[75].startX 2185m
param *.uav[75].startY 3026m
param *.uav[75].startZ 778m
param *.uav[76].startX 3537m
param *.uav[76].startY 965m
param *.uav[76].startZ 539m
param *.uav[77].startX 312m
param *.uav[77].startY 1262m
param *.uav[77].startZ 540m
param *.uav[78].startX 2185m
param *.uav[78].startY 3026m
param *.uav[78].startZ 778m
param *.uav[79].startX 3537m
param *.uav[79].startY 965m
param *.uav[79].startZ 539m
param *.uav[80].startX 3537m
param *.uav[80].startY 965m
param *.uav[80].startZ 539m
param *.uav[81].startX 312m
param *.uav[81].startY 1262m
param *.uav[81].startZ 540m
param *.uav[82].startX 2185m
param *.uav[82].startY 3026m
param *.uav[82].startZ 778m
param *.uav[83].startX 3537m
param *.uav[83].startY 965m
param *.uav[83].startZ 539m
param *.uav[84].startX 312m
param *.uav[84].startY 1262m
param *.uav[84].startZ 540m
param *.uav[85].startX 2185m
param *.uav[85].startY 3026m
param *.uav[85].startZ 778m
param *.uav[86].startX 3537m
param *.uav[86].startY 965m
param *.uav[86].startZ 539m
param *.uav[87].startX 312m
param *.uav[87].startY 1262m
param *.uav[87].startZ 540m
param *.uav[88].startX 2185m
param *.uav[88].startY 3026m
param *.uav[88].startZ 778m
param *.uav[89].startX 3537m
param *.uav[89].startY 965m
param *.uav[89].startZ 539m
param *.uav[90].startX 3537m
param *.uav[90].startY 965m
param *.uav[90].startZ 539m
param *.uav[91].startX 312m
param *.uav[91].startY 1262m
param *.uav[91].startZ 540m
param *.uav[92].startX 2185m
param *.uav[92].startY 3026m
param *.uav[92].startZ 778m
param *.uav[93].startX 3537m
param *.uav[93].startY 965m
param *.uav[93].startZ 539m
param *.uav[94].startX 312m
param *.uav[94].startY 1262m
param *.uav[94].startZ 540m
param *.uav[95].startX 2185m
param *.uav[95].startY 3026m
param *.uav[95].startZ 778m
param *.uav[96].startX 3537m
param *.uav[96].startY 965m
param *.uav[96].startZ 539m
param *.uav[97].startX 312m
param *.uav[97].startY 1262m
param *.uav[97].startZ 540m
param *.uav[98].startX 2185m
param *.uav[98].startY 3026m
param *.uav[98].startZ 778m
param *.uav[99].startX 3537m
param *.uav[99].startY 965m
param *.uav[99].startZ 539m
param *.osgEarthScene.scene "\"boston.earth\""
param *.playgroundLatitude 42.3558
param *.playgroundLongitude -71.0677
param *.playgroundWidth 400m
param *.playgroundHeight 200m
param *.channelController.connectionColor "\"#0000FF40\""
param *.channelController.showConnections false
param *.uav[*].modelURL "\"quadrocopter.small.obj.15.scale.0,0,90.rot\""
param *.uav[*].labelColor "\"#FF7C00CC\""
param *.uav[*].label2Color "\"#FF7C00EE\""
param *.uav[*].batteryCapacity 5200mAh
param *.uav[*].batteryRemaining uav[index].batteryCapacity
param *.uav[*].predictionQuantile 0.95
param *.uav[*].replacementMethod 2
param *.uav[*].weightedSumWeight 0.5
param *.cs[*].modelURL "\"chargingstation_v1.osgt.2.scale.0,0,0.rot.0,0,-15e-1.trans\""
param *.cs[*].spotsWaiting 999
param *.cs[*].spotsCharging 999
param *.cs[*].chargeEffectivenessPercentage 100
param *.cs[*].nonLinearPhaseStartPercentage 85
param *.cs[*].chargeCurrent 6.0A
param *.cs[*].prioritizeFastCharge true
param *.missionControl.replacementSearchMethod 0
param *.*.timeStep 9s

scalar OsgEarthNet.uav[0] utilizationSecMission 22387.893058161
scalar OsgEarthNet.uav[0] utilizationSecMaintenance 9884.2822307908
scalar OsgEarthNet.uav[0] utilizationSecCharge 115243.17925734
scalar OsgEarthNet.uav[0] utilizationSecIdle 111684.64445371
scalar OsgEarthNet.uav[0] utilizationEnergyMission 102291.69800949
scalar OsgEarthNet.uav[0] utilizationEnergyMaintenance 46229.308727264
scalar OsgEarthNet.uav[0] utilizationEnergyCharge 144274.54711914
scalar OsgEarthNet.uav[0] utilizationEnergyOverdrawMission 0
scalar OsgEarthNet.uav[0] utilizationEnergyOverdrawMaintenance 0
scalar OsgEarthNet.uav[0] utilizationCountMissions 32
scalar OsgEarthNet.uav[0] utilizationCountManeuversMission 372
scalar OsgEarthNet.uav[0] utilizationCountManeuversMaintenance 64
scalar OsgEarthNet.uav[0] utilizationCountChargeState 32
scalar OsgEarthNet.uav[0] utilizationCountOverdrawnAfterMission 0
scalar OsgEarthNet.uav[0] utilizationCountIdleState 32
scalar OsgEarthNet.uav[0] utilizationFail 0
scalar OsgEarthNet.uav[0] simulationTime 259200
scalar OsgEarthNet.uav[1] utilizationSecMission 1928.4646959109
scalar OsgEarthNet.uav[1] utilizationSecMaintenance 988.99851360923
scalar OsgEarthNet.uav[1] utilizationSecCharge 10940
scalar OsgEarthNet.uav[1] utilizationSecIdle 245342.53579048
scalar OsgEarthNet.uav[1] utilizationEnergyMission 8890.1427536011
scalar OsgEarthNet.uav[1] utilizationEnergyMaintenance 4727.0890235901
scalar OsgEarthNet.uav[1] utilizationEnergyCharge 13631.696289062
scalar OsgEarthNet.uav[1] utilizationEnergyOverdrawMission 0
scalar OsgEarthNet.uav[1] utilizationEnergyOverdrawMaintenance 0
scalar OsgEarthNet.uav[1] utilizationCountMissions 3
scalar OsgEarthNet.uav[1] utilizationCountManeuversMission 36
scalar OsgEarthNet.uav[1] utilizationCountManeuversMaintenance 6
scalar OsgEarthNet.uav[1] utilizationCountChargeState 3
scalar OsgEarthNet.uav[1] utilizationCountOverdrawnAfterMission 0
scalar OsgEarthNet.uav[1] utilizationCountIdleState 4
scalar OsgEarthNet.uav[1] utilizationFail 0
scalar OsgEarthNet.uav[1] simulationTime 259200
scalar OsgEarthNet.uav[2] utilizationSecMission 27805.108158311
scalar OsgEarthNet.uav[2] utilizationSecMaintenance 13484.352453538
scalar OsgEarthNet.uav[2] utilizationSecCharge 150719.08542943
scalar OsgEarthNet.uav[2] utilizationSecIdle 67191.452958717
scalar OsgEarthNet.uav[2] utilizationEnergyMission 127582.5140152
scalar OsgEarthNet.uav[2] utilizationEnergyMaintenance 63004.98714447
scalar OsgEarthNet.uav[2] utilizationEnergyCharge 189568.43334961
scalar OsgEarthNet.uav[2] utilizationEnergyOverdrawMission 0
scalar OsgEarthNet.uav[2] utilizationEnergyOverdrawMaintenance 0
scalar OsgEarthNet.uav[2] utilizationCountMissions 41
scalar OsgEarthNet.uav[2] utilizationCountManeuversMission 459
scalar OsgEarthNet.uav[2] utilizationCountManeuversMaintenance 82
scalar OsgEarthNet.uav[2] utilizationCountChargeState 41
scalar OsgEarthNet.uav[2] utilizationCountOverdrawnAfterMission 0
scalar OsgEarthNet.uav[2] utilizationCountIdleState 41
scalar OsgEarthNet.uav[2] utilizationFail 0
scalar OsgEarthNet.uav[2] simulationTime 259200
scalar OsgEarthNet.uav[3] utilizationSecMission 750.20472747826
scalar OsgEarthNet.uav[3] utilizationSecMaintenance 261.68051383311
scalar OsgEarthNet.uav[3] utilizationSecCharge 3820
scalar OsgEarthNet.uav[3] utilizationSecIdle 254368.11375869
scalar OsgEarthNet.uav[3] utilizationEnergyMission 3417.7889862061
scalar OsgEarthNet.uav[3] utilizationEnergyMaintenance 1407.0791130066
scalar OsgEarthNet.uav[3] utilizationEnergyCharge 4824.873046875
scalar OsgEarthNet.uav[3] utilizationEnergyOverdrawMission 0
scalar OsgEarthNet.uav[3] utilizationEnergyOverdrawMaintenance 0
scalar OsgEarthNet.uav[3] utilizationCountMissions 1
scalar OsgEarthNet.uav[3] utilizationCountManeuversMission 11
scalar OsgEarthNet.uav[3] utilizationCountManeuversMaintenance 2
scalar OsgEarthNet.uav[3] utilizationCountChargeState 1
scalar OsgEarthNet.uav[3] utilizationCountOverdrawnAfterMission 0
scalar OsgEarthNet.uav[3] utilizationCountIdleState 2
scalar OsgEarthNet.uav[3] utilizationFail 0
scalar OsgEarthNet.uav[3] simulationTime 259200
scalar OsgEarthNet.uav[4] utilizationSecMission 528.55000878666
scalar OsgEarthNet.uav[4] utilizationSecMaintenance 478.92797493542
scalar OsgEarthNet.uav[4] utilizationSecCharge 3620
scalar OsgEarthNet.uav[4] utilizationSecIdle 254572.52101628
scalar OsgEarthNet.uav[4] utilizationEnergyMission 2298.8863372803
scalar OsgEarthNet.uav[4] utilizationEnergyMaintenance 2232.0672225952
scalar OsgEarthNet.uav[4] utilizationEnergyCharge 4530.9497070312
scalar OsgEarthNet.uav[4] utilizationEnergyOverdrawMission 0
scalar OsgEarthNet.uav[4] utilizationEnergyOverdrawMaintenance 0
scalar OsgEarthNet.uav[4] utilizationCountMissions 1
scalar OsgEarthNet.uav[4] utilizationCountManeuversMission 10
scalar OsgEarthNet.uav[4] utilizationCountManeuversMaintenance 2
scalar OsgEarthNet.uav[4] utilizationCountChargeState 1
scalar OsgEarthNet.uav[4] utilizationCountOverdrawnAfterMission 0
scalar OsgEarthNet.uav[4] utilizationCountIdleState 2
scalar OsgEarthNet.uav[4] utilizationFail 0
scalar OsgEarthNet.uav[4] simulationTime 259200
scalar OsgEarthNet.uav[5] utilizationSecMission 30085.435133456
scalar OsgEarthNet.uav[5] utilizationSecMaintenance 12697.330587431
scalar OsgEarthNet.uav[5] utilizationSecCharge 157540.78571237
scalar OsgEarthNet.uav[5] utilizationSecIdle 58876.447566746
scalar OsgEarthNet.uav[5] utilizationEnergyMission 138954.36819458
scalar OsgEarthNet.uav[5] utilizationEnergyMaintenance 59782.862922668
scalar OsgEarthNet.uav[5] utilizationEnergyCharge 198556.36376953
scalar OsgEarthNet.uav[5] utilizationEnergyOverdrawMission 0
scalar OsgEarthNet.uav[5] utilizationEnergyOverdrawMaintenance 0
scalar OsgEarthNet.uav[5] utilizationCountMissions 42
scalar OsgEarthNet.uav[5] utilizationCountManeuversMission 487
scalar OsgEarthNet.uav[5] utilizationCountManeuversMaintenance 84
scalar OsgEarthNet.uav[5] utilizationCountChargeState 42
scalar OsgEarthNet.uav[5] utilizationCountOverdrawnAfterMission 0
scalar OsgEarthNet.uav[5] utilizationCountIdleState 42
scalar OsgEarthNet.uav[5] utilizationFail 0
scalar OsgEarthNet.uav[5] simulationTime 259200
scalar OsgEarthNet.uav[6] utilizationSecMission 760.62515258028
scalar OsgEarthNet.uav[6] utilizationSecMaintenance 291.95923480269
scalar OsgEarthNet.uav[6] utilizationSecCharge 3750
scalar OsgEarthNet.uav[6] utilizationSecIdle 254397.41461262
scalar OsgEarthNet.uav[6] utilizationEnergyMission 3330.5775146484
scalar OsgEarthNet.uav[6] utilizationEnergyMaintenance 1353.470664978
scalar OsgEarthNet.uav[6] utilizationEnergyCharge 4684.0458984375
scalar OsgEarthNet.uav[6] utilizationEnergyOverdrawMission 0
scalar OsgEarthNet.uav[6] utilizationEnergyOverdrawMaintenance 0
scalar OsgEarthNet.uav[6] utilizationCountMissions 1
scalar OsgEarthNet.uav[6] utilizationCountManeuversMission 12
scalar OsgEarthNet.uav[6] utilizationCountManeuversMaintenance 2
scalar OsgEarthNet.uav[6] utilizationCountChargeState 1
scalar OsgEarthNet.uav[6] utilizationCountOverdrawnAfterMission 0
scalar OsgEarthNet.uav[6] utilizationCountIdleState 2
scalar OsgEarthNet.uav[6] utilizationFail 0
scalar OsgEarthNet.uav[6] simulationTime 259200
scalar OsgEarthNet.uav[7] utilizationSecMission 26374.193871103
scalar OsgEarthNet.uav[7] utilizationSecMaintenance 12828.698179599
scalar OsgEarthNet.uav[7] utilizationSecCharge 145470
scalar OsgEarthNet.uav[7] utilizationSecIdle 74527.106949298
scalar OsgEarthNet.uav[7] utilizationEnergyMission 122215.98309326
scalar OsgEarthNet.uav[7] utilizationEnergyMaintenance 60143.908573151
scalar OsgEarthNet.uav[7] utilizationEnergyCharge 182351.73388672
scalar OsgEarthNet.uav[7] utilizationEnergyOverdrawMission 0
scalar OsgEarthNet.uav[7] utilizationEnergyOverdrawMaintenance 0
scalar OsgEarthNet.uav[7] utilizationCountMissions 39
scalar OsgEarthNet.uav[7] utilizationCountManeuversMission 423
scalar OsgEarthNet.uav[7] utilizationCountManeuversMaintenance 78
scalar OsgEarthNet.uav[7] utilizationCountChargeState 39
scalar OsgEarthNet.uav[7] utilizationCountOverdrawnAfterMission 0
scalar OsgEarthNet.uav[7] utilizationCountIdleState 40
scalar OsgEarthNet.uav[7] utilizationFail 0
scalar OsgEarthNet.uav[7] simulationTime 259200
scalar OsgEarthNet.uav[8] utilizationSecMission 29159.977346326
scalar OsgEarthNet.uav[8] utilizationSecMaintenance 15409.457342127
scalar OsgEarthNet.uav[8] utilizationSecCharge 163088.56431155
scalar OsgEarthNet.uav[8] utilizationSecIdle 51542
scalar OsgEarthNet.uav[8] utilizationEnergyMission 134275.95050083
scalar OsgEarthNet.uav[8] utilizationEnergyMaintenance 71806.769851685
scalar OsgEarthNet.uav[8] utilizationEnergyCharge 205181.10009766
scalar OsgEarthNet.uav[8] utilizationEnergyOverdrawMission 0
scalar OsgEarthNet.uav[8] utilizationEnergyOverdrawMaintenance 0
scalar OsgEarthNet.uav[8] utilizationCountMissions 44
scalar OsgEarthNet.uav[8] utilizationCountManeuversMission 474
scalar OsgEarthNet.uav[8] utilizationCountManeuversMaintenance 87
scalar OsgEarthNet.uav[8] utilizationCountChargeState 44
scalar OsgEarthNet.uav[8] utilizationCountOverdrawnAfterMission 0
scalar OsgEarthNet.uav[8] utilizationCountIdleState 44
scalar OsgEarthNet.uav[8] utilizationFail 0
scalar OsgEarthNet.uav[8] simulationTime 259200
scalar OsgEarthNet.uav[9] utilizationSecMission 760.62515258028
scalar OsgEarthNet.uav[9] utilizationSecMaintenance 291.95923480269
scalar OsgEarthNet.uav[9] utilizationSecCharge 3830
scalar OsgEarthNet.uav[9] utilizationSecIdle 254317.41461262
scalar OsgEarthNet.uav[9] utilizationEnergyMission 3339.504737854
scalar OsgEarthNet.uav[9] utilizationEnergyMaintenance 1513.1928634644
scalar OsgEarthNet.uav[9] utilizationEnergyCharge 4852.7016601562
scalar OsgEarthNet.uav[9] utilizationEnergyOverdrawMission 0
scalar OsgEarthNet.uav[9] utilizationEnergyOverdrawMaintenance 0
scalar OsgEarthNet.uav[9] utilizationCountMissions 1
scalar OsgEarthNet.uav[9] utilizationCountManeuversMission 12
scalar OsgEarthNet.uav[9] utilizationCountManeuversMaintenance 2
scalar OsgEarthNet.uav[9] utilizationCountChargeState 1
scalar OsgEarthNet.uav[9] utilizationCountOverdrawnAfterMission 0
scalar OsgEarthNet.uav[9] utilizationCountIdleState 2
scalar OsgEarthNet.uav[9] utilizationFail 0
scalar OsgEarthNet.uav[9] simulationTime 259200
scalar OsgEarthNet.uav[10] utilizationSecMission 29953.409903788
scalar OsgEarthNet.uav[10] utilizationSecMaintenance 13915.986453361
scalar OsgEarthNet.uav[10] utilizationSecCharge 163270
scalar OsgEarthNet.uav[10] utilizationSecIdle 52060.602642851
scalar OsgEarthNet.uav[10] utilizationEnergyMission 138896.87057495
scalar OsgEarthNet.uav[10] utilizationEnergyMaintenance 65299.397293091
scalar OsgEarthNet.uav[10] utilizationEnergyCharge 204371.44775391
scalar OsgEarthNet.uav[10] utilizationEnergyOverdrawMission 0
scalar OsgEarthNet.uav[10] utilizationEnergyOverdrawMaintenance 0
scalar OsgEarthNet.uav[10] utilizationCountMissions 44
scalar OsgEarthNet.uav[10] utilizationCountManeuversMission 495
scalar OsgEarthNet.uav[10] utilizationCountManeuversMaintenance 88
scalar OsgEarthNet.uav[10] utilizationCountChargeState 44
scalar OsgEarthNet.uav[10] utilizationCountOverdrawnAfterMission 0
scalar OsgEarthNet.uav[10] utilizationCountIdleState 45
scalar OsgEarthNet.uav[10] utilizationFail 0
scalar OsgEarthNet.uav[10] simulationTime 259200
scalar OsgEarthNet.uav[11] utilizationSecMission 24852.794131442
scalar OsgEarthNet.uav[11] utilizationSecMaintenance 13202.220183278
scalar OsgEarthNet.uav[11] utilizationSecCharge 137820
scalar OsgEarthNet.uav[11] utilizationSecIdle 83324.98468528
scalar OsgEarthNet.uav[11] utilizationEnergyMission 115424.25292969
scalar OsgEarthNet.uav[11] utilizationEnergyMaintenance 61609.896150336
scalar OsgEarthNet.uav[11] utilizationEnergyCharge 172729.640625
scalar OsgEarthNet.uav[11] utilizationEnergyOverdrawMission 0
scalar OsgEarthNet.uav[11] utilizationEnergyOverdrawMaintenance 0
scalar OsgEarthNet.uav[11] utilizationCountMissions 38
scalar OsgEarthNet.uav[11] utilizationCountManeuversMission 414
scalar OsgEarthNet.uav[11] utilizationCountManeuversMaintenance 76
scalar OsgEarthNet.uav[11] utilizationCountChargeState 37
scalar OsgEarthNet.uav[11] utilizationCountOverdrawnAfterMission 0
scalar OsgEarthNet.uav[11] utilizationCountIdleState 38
scalar OsgEarthNet.uav[11] utilizationFail 0
scalar OsgEarthNet.uav[11] simulationTime 259200
scalar OsgEarthNet.uav[12] utilizationSecMission 30269.466766968
scalar OsgEarthNet.uav[12] utilizationSecMaintenance 8825.6638238803
scalar OsgEarthNet.uav[12] utilizationSecCharge 140503.19535977
scalar OsgEarthNet.uav[12] utilizationSecIdle 79601.673049383
scalar OsgEarthNet.uav[12] utilizationEnergyMission 139964.1168251
scalar OsgEarthNet.uav[12] utilizationEnergyMaintenance 40564.802570343
scalar OsgEarthNet.uav[12] utilizationEnergyCharge 177087.68603516
scalar OsgEarthNet.uav[12] utilizationEnergyOverdrawMission 0
scalar OsgEarthNet.uav[12] utilizationEnergyOverdrawMaintenance 0
scalar OsgEarthNet.uav[12] utilizationCountMissions 38
scalar OsgEarthNet.uav[12] utilizationCountManeuversMission 505
scalar OsgEarthNet.uav[12] utilizationCountManeuversMaintenance 76
scalar OsgEarthNet.uav[12] utilizationCountChargeState 38
scalar OsgEarthNet.uav[12] utilizationCountOverdrawnAfterMission 0
scalar OsgEarthNet.uav[12] utilizationCountIdleState 38
scalar OsgEarthNet.uav[12] utilizationFail 0
scalar OsgEarthNet.uav[12] simulationTime 259200
scalar OsgEarthNet.uav[13] utilizationSecMission 702.6942798579
scalar OsgEarthNet.uav[13] utilizationSecMaintenance 282.29565405678
scalar OsgEarthNet.uav[13] utilizationSecCharge 3760
scalar OsgEarthNet.uav[13] utilizationSecIdle 254455.00906609
scalar OsgEarthNet.uav[13] utilizationEnergyMission 3389.0416107178
scalar OsgEarthNet.uav[13] utilizationEnergyMaintenance 1331.3891410828
scalar OsgEarthNet.uav[13] utilizationEnergyCharge 4720.4291992188
scalar OsgEarthNet.uav[13] utilizationEnergyOverdrawMission 0
scalar OsgEarthNet.uav[13] utilizationEnergyOverdrawMaintenance 0
scalar OsgEarthNet.uav[13] utilizationCountMissions 1
scalar OsgEarthNet.uav[13] utilizationCountManeuversMission 10
scalar OsgEarthNet.uav[13] utilizationCountManeuversMaintenance 2
scalar OsgEarthNet.uav[13] utilizationCountChargeState 1
scalar OsgEarthNet.uav[13] utilizationCountOverdrawnAfterMission 0
scalar OsgEarthNet.uav[13] utilizationCountIdleState 2
scalar OsgEarthNet.uav[13] utilizationFail 0
scalar OsgEarthNet.uav[13] simulationTime 259200
scalar OsgEarthNet.uav[14] utilizationSecMission 26863.177593547
scalar OsgEarthNet.uav[14] utilizationSecMaintenance 11269.844358278
scalar OsgEarthNet.uav[14] utilizationSecCharge 140196.95876526
scalar OsgEarthNet.uav[14] utilizationSecIdle 80870.018282913
scalar OsgEarthNet.uav[14] utilizationEnergyMission 123109.19351959
scalar OsgEarthNet.uav[14] utilizationEnergyMaintenance 53247.79567337
scalar OsgEarthNet.uav[14] utilizationEnergyCharge 176482.75390625
scalar OsgEarthNet.uav[14] utilizationEnergyOverdrawMission 0
scalar OsgEarthNet.uav[14] utilizationEnergyOverdrawMaintenance 0
scalar OsgEarthNet.uav[14] utilizationCountMissions 38
scalar OsgEarthNet.uav[14] utilizationCountManeuversMission 426
scalar OsgEarthNet.uav[14] utilizationCountManeuversMaintenance 76
scalar OsgEarthNet.uav[14] utilizationCountChargeState 38
scalar OsgEarthNet.uav[14] utilizationCountOverdrawnAfterMission 0
scalar OsgEarthNet.uav[14] utilizationCountIdleState 38
scalar OsgEarthNet.uav[14] utilizationFail 0
scalar OsgEarthNet.uav[14] simulationTime 259200
scalar OsgEarthNet.uav[15] utilizationSecMission 26826.204342002
scalar OsgEarthNet.uav[15] utilizationSecMaintenance 12513.546365552
scalar OsgEarthNet.uav[15] utilizationSecCharge 142770
scalar OsgEarthNet.uav[15] utilizationSecIdle 77090.248292447
scalar OsgEarthNet.uav[15] utilizationEnergyMission 124071.15185528
scalar OsgEarthNet.uav[15] utilizationEnergyMaintenance 58592.445426941
scalar OsgEarthNet.uav[15] utilizationEnergyCharge 179170.98828125
scalar OsgEarthNet.uav[15] utilizationEnergyOverdrawMission 0
scalar OsgEarthNet.uav[15] utilizationEnergyOverdrawMaintenance 0
scalar OsgEarthNet.uav[15] utilizationCountMissions 38
scalar OsgEarthNet.uav[15] utilizationCountManeuversMission 422
scalar OsgEarthNet.uav[15] utilizationCountManeuversMaintenance 77
scalar OsgEarthNet.uav[15] utilizationCountChargeState 38
scalar OsgEarthNet.uav[15] utilizationCountOverdrawnAfterMission 0
scalar OsgEarthNet.uav[15] utilizationCountIdleState 39
scalar OsgEarthNet.uav[15] utilizationFail 0
scalar OsgEarthNet.uav[15] simulationTime 259200
scalar OsgEarthNet.uav[16] utilizationSecMission 760.62515258028
scalar OsgEarthNet.uav[16] utilizationSecMaintenance 291.95923480269
scalar OsgEarthNet.uav[16] utilizationSecCharge 3790
scalar OsgEarthNet.uav[16] utilizationSecIdle 254357.41461262
scalar OsgEarthNet.uav[16] utilizationEnergyMission 3377.0697784424
scalar OsgEarthNet.uav[16] utilizationEnergyMaintenance 1433.4443588257
scalar OsgEarthNet.uav[16] utilizationEnergyCharge 4810.5151367188
scalar OsgEarthNet.uav[16] utilizationEnergyOverdrawMission 0
scalar OsgEarthNet.uav[16] utilizationEnergyOverdrawMaintenance 0
scalar OsgEarthNet.uav[16] utilizationCountMissions 1
scalar OsgEarthNet.uav[16] utilizationCountManeuversMission 12
scalar OsgEarthNet.uav[16] utilizationCountManeuversMaintenance 2
scalar OsgEarthNet.uav[16] utilizationCountChargeState 1
scalar OsgEarthNet.uav[16] utilizationCountOverdrawnAfterMission 0
scalar OsgEarthNet.uav[16] utilizationCountIdleState 2
scalar OsgEarthNet.uav[16] utilizationFail 0
scalar OsgEarthNet.uav[16] simulationTime 259200
scalar OsgEarthNet.uav[17] utilizationSecMission 28290.421007829
scalar OsgEarthNet.uav[17] utilizationSecMaintenance 14389.898871968
scalar OsgEarthNet.uav[17] utilizationSecCharge 156500
scalar OsgEarthNet.uav[17] utilizationSecIdle 60019.679120204
scalar OsgEarthNet.uav[17] utilizationEnergyMission 131854.69949861
scalar OsgEarthNet.uav[17] utilizationEnergyMaintenance 67509.332324982
scalar OsgEarthNet.uav[17] utilizationEnergyCharge 196016.66894531
scalar OsgEarthNet.uav[17] utilizationEnergyOverdrawMission 0
scalar OsgEarthNet.uav[17] utilizationEnergyOverdrawMaintenance 0
scalar OsgEarthNet.uav[17] utilizationCountMissions 42
scalar OsgEarthNet.uav[17] utilizationCountManeuversMission 458
scalar OsgEarthNet.uav[17] utilizationCountManeuversMaintenance 85
scalar OsgEarthNet.uav[17] utilizationCountChargeState 42
scalar OsgEarthNet.uav[17] utilizationCountOverdrawnAfterMission 0
scalar OsgEarthNet.uav[17] utilizationCountIdleState 43
scalar OsgEarthNet.uav[17] utilizationFail 0
scalar OsgEarthNet.uav[17] simulationTime 259200
scalar OsgEarthNet.uav[18] utilizationSecMission 621.17604176187
scalar OsgEarthNet.uav[18] utilizationSecMaintenance 313.76167006775
scalar OsgEarthNet.uav[18] utilizationSecCharge 3610
scalar OsgEarthNet.uav[18] utilizationSecIdle 254655.06128817
scalar OsgEarthNet.uav[18] utilizationEnergyMission 3152.7966003418
scalar OsgEarthNet.uav[18] utilizationEnergyMaintenance 1349.1967887878
scalar OsgEarthNet.uav[18] utilizationEnergyCharge 4501.994140625
scalar OsgEarthNet.uav[18] utilizationEnergyOverdrawMission 0
scalar OsgEarthNet.uav[18] utilizationEnergyOverdrawMaintenance 0
scalar OsgEarthNet.uav[18] utilizationCountMissions 1
scalar OsgEarthNet.uav[18] utilizationCountManeuversMission 12
scalar OsgEarthNet.uav[18] utilizationCountManeuversMaintenance 2
scalar OsgEarthNet.uav[18] utilizationCountChargeState 1
scalar OsgEarthNet.uav[18] utilizationCountOverdrawnAfterMission 0
scalar OsgEarthNet.uav[18] utilizationCountIdleState 2
scalar OsgEarthNet.uav[18] utilizationFail 0
scalar OsgEarthNet.uav[18] simulationTime 259200
scalar OsgEarthNet.uav[19] utilizationSecMission 760.62515258028
scalar OsgEarthNet.uav[19] utilizationSecMaintenance 291.95923480269
scalar OsgEarthNet.uav[19] utilizationSecCharge 3830
scalar OsgEarthNet.uav[19] utilizationSecIdle 254317.41461262
scalar OsgEarthNet.uav[19] utilizationEnergyMission 3381.3599395752
scalar OsgEarthNet.uav[19] utilizationEnergyMaintenance 1464.6585922241
scalar OsgEarthNet.uav[19] utilizationEnergyCharge 4846.01953125
scalar OsgEarthNet.uav[19] utilizationEnergyOverdrawMission 0
scalar OsgEarthNet.uav[19] utilizationEnergyOverdrawMaintenance 0
scalar OsgEarthNet.uav[19] utilizationCountMissions 1
scalar OsgEarthNet.uav[19] utilizationCountManeuversMission 12
scalar OsgEarthNet.uav[19] utilizationCountManeuversMaintenance 2
scalar OsgEarthNet.uav[19] utilizationCountChargeState 1
scalar OsgEarthNet.uav[19] utilizationCountOverdrawnAfterMission 0
scalar OsgEarthNet.uav[19] utilizationCountIdleState 2
scalar OsgEarthNet.uav[19] utilizationFail 0
scalar OsgEarthNet.uav[19] simulationTime 259200
scalar OsgEarthNet.uav[20] utilizationSecMission 760.62515258028
scalar OsgEarthNet.uav[20] utilizationSecMaintenance 291.95923480269
scalar OsgEarthNet.uav[20] utilizationSecCharge 3890
scalar OsgEarthNet.uav[20] utilizationSecIdle 254257.41461262
scalar OsgEarthNet.uav[20] utilizationEnergyMission 3390.6999969482
scalar OsgEarthNet.uav[20] utilizationEnergyMaintenance 1526.5767440796
scalar OsgEarthNet.uav[20] utilizationEnergyCharge 4917.2744140625
scalar OsgEarthNet.uav[20] utilizationEnergyOverdrawMission 0
scalar OsgEarthNet.uav[20] utilizationEnergyOverdrawMaintenance 0
scalar OsgEarthNet.uav[20] utilizationCountMissions 1
scalar OsgEarthNet.uav[20] utilizationCountManeuversMission 12
scalar OsgEarthNet.uav[20] utilizationCountManeuversMaintenance 2
scalar OsgEarthNet.uav[20] utilizationCountChargeState 1
scalar OsgEarthNet.uav[20] utilizationCountOverdrawnAfterMission 0
scalar OsgEarthNet.uav[20] utilizationCountIdleState 2
scalar OsgEarthNet.uav[20] utilizationFail 0
scalar OsgEarthNet.uav[20] simulationTime 259200
scalar OsgEarthNet.uav[21] utilizationSecMission 28673.694088375
scalar OsgEarthNet.uav[21] utilizationSecMaintenance 13330.455604828
scalar OsgEarthNet.uav[21] utilizationSecCharge 154619.16849891
scalar OsgEarthNet.uav[21] utilizationSecIdle 62576.680807888
scalar OsgEarthNet.uav[21] utilizationEnergyMission 132553.98423004
scalar OsgEarthNet.uav[21] utilizationEnergyMaintenance 63441.188194275
scalar OsgEarthNet.uav[21] utilizationEnergyCharge 194911.86816406
scalar OsgEarthNet.uav[21] utilizationEnergyOverdrawMission 0
scalar OsgEarthNet.uav[21] utilizationEnergyOverdrawMaintenance 0
scalar OsgEarthNet.uav[21] utilizationCountMissions 42
scalar OsgEarthNet.uav[21] utilizationCountManeuversMission 460
scalar OsgEarthNet.uav[21] utilizationCountManeuversMaintenance 84
scalar OsgEarthNet.uav[21] utilizationCountChargeState 42
scalar OsgEarthNet.uav[21] utilizationCountOverdrawnAfterMission 0
scalar OsgEarthNet.uav[21] utilizationCountIdleState 42
scalar OsgEarthNet.uav[21] utilizationFail 0
scalar OsgEarthNet.uav[21] simulationTime 259200
scalar OsgEarthNet.uav[22] utilizationSecMission 31193.157925241
scalar OsgEarthNet.uav[22] utilizationSecMaintenance 13675.760523949
scalar OsgEarthNet.uav[22] utilizationSecCharge 162884.83872092
scalar OsgEarthNet.uav[22] utilizationSecIdle 51446.241829895
scalar OsgEarthNet.uav[22] utilizationEnergyMission 143643.81004333
scalar OsgEarthNet.uav[22] utilizationEnergyMaintenance 63019.042190552
scalar OsgEarthNet.uav[22] utilizationEnergyCharge 205544.87182617
scalar OsgEarthNet.uav[22] utilizationEnergyOverdrawMission 0
scalar OsgEarthNet.uav[22] utilizationEnergyOverdrawMaintenance 0
scalar OsgEarthNet.uav[22] utilizationCountMissions 44
scalar OsgEarthNet.uav[22] utilizationCountManeuversMission 497
scalar OsgEarthNet.uav[22] utilizationCountManeuversMaintenance 88
scalar OsgEarthNet.uav[22] utilizationCountChargeState 44
scalar OsgEarthNet.uav[22] utilizationCountOverdrawnAfterMission 0
scalar OsgEarthNet.uav[22] utilizationCountIdleState 44
scalar OsgEarthNet.uav[22] utilizationFail 0
scalar OsgEarthNet.uav[22] simulationTime 259200
scalar OsgEarthNet.uav[23] utilizationSecMission 30243.27459967
scalar OsgEarthNet.uav[23] utilizationSecMaintenance 12235.034690638
scalar OsgEarthNet.uav[23] utilizationSecCharge 155663.2358235
scalar OsgEarthNet.uav[23] utilizationSecIdle 61058.453886187
scalar OsgEarthNet.uav[23] utilizationEnergyMission 140015.35702515
scalar OsgEarthNet.uav[23] utilizationEnergyMaintenance 56693.179172516
scalar OsgEarthNet.uav[23] utilizationEnergyCharge 196297.42529297
scalar OsgEarthNet.uav[23] utilizationEnergyOverdrawMission 0
scalar OsgEarthNet.uav[23] utilizationEnergyOverdrawMaintenance 0
scalar OsgEarthNet.uav[23] utilizationCountMissions 42
scalar OsgEarthNet.uav[23] utilizationCountManeuversMission 475
scalar OsgEarthNet.uav[23] utilizationCountManeuversMaintenance 84
scalar OsgEarthNet.uav[23] utilizationCountChargeState 42
scalar OsgEarthNet.uav[23] utilizationCountOverdrawnAfterMission 0
scalar OsgEarthNet.uav[23] utilizationCountIdleState 42
scalar OsgEarthNet.uav[23] utilizationFail 0
scalar OsgEarthNet.uav[23] simulationTime 259200
scalar OsgEarthNet.uav[24] utilizationSecMission 28662.94952585
scalar OsgEarthNet.uav[24] utilizationSecMaintenance 13882.437584634
scalar OsgEarthNet.uav[24] utilizationSecCharge 155840
scalar OsgEarthNet.uav[24] utilizationSecIdle 60814.611889516
scalar OsgEarthNet.uav[24] utilizationEnergyMission 132644.29363017
scalar OsgEarthNet.uav[24] utilizationEnergyMaintenance 64226.425289154
scalar OsgEarthNet.uav[24] utilizationEnergyCharge 194929.12451172
scalar OsgEarthNet.uav[24] utilizationEnergyOverdrawMission 0
scalar OsgEarthNet.uav[24] utilizationEnergyOverdrawMaintenance 0
scalar OsgEarthNet.uav[24] utilizationCountMissions 42
scalar OsgEarthNet.uav[24] utilizationCountManeuversMission 480
scalar OsgEarthNet.uav[24] utilizationCountManeuversMaintenance 85
scalar OsgEarthNet.uav[24] utilizationCountChargeState 42
scalar OsgEarthNet.uav[24] utilizationCountOverdrawnAfterMission 0
scalar OsgEarthNet.uav[24] utilizationCountIdleState 43
scalar OsgEarthNet.uav[24] utilizationFail 0
scalar OsgEarthNet.uav[24] simulationTime 259200
scalar OsgEarthNet.uav[25] utilizationSecMission 766.82734763767
scalar OsgEarthNet.uav[25] utilizationSecMaintenance 306.92101052153
scalar OsgEarthNet.uav[25] utilizationSecCharge 3600
scalar OsgEarthNet.uav[25] utilizationSecIdle 254526.25064184
scalar OsgEarthNet.uav[25] utilizationEnergyMission 3432.0560455322
scalar OsgEarthNet.uav[25] utilizationEnergyMaintenance 1157.689414978
scalar OsgEarthNet.uav[25] utilizationEnergyCharge 4492.1616210938
scalar OsgEarthNet.uav[25] utilizationEnergyOverdrawMission 0
scalar OsgEarthNet.uav[25] utilizationEnergyOverdrawMaintenance 0
scalar OsgEarthNet.uav[25] utilizationCountMissions 1
scalar OsgEarthNet.uav[25] utilizationCountManeuversMission 14
scalar OsgEarthNet.uav[25] utilizationCountManeuversMaintenance 2
scalar OsgEarthNet.uav[25] utilizationCountChargeState 1
scalar OsgEarthNet.uav[25] utilizationCountOverdrawnAfterMission 0
scalar OsgEarthNet.uav[25] utilizationCountIdleState 2
scalar OsgEarthNet.uav[25] utilizationFail 0
scalar OsgEarthNet.uav[25] simulationTime 259200
scalar OsgEarthNet.uav[26] utilizationSecMission 684.4732299383
scalar OsgEarthNet.uav[26] utilizationSecMaintenance 298.56834692969
scalar OsgEarthNet.uav[26] utilizationSecCharge 3820
scalar OsgEarthNet.uav[26] utilizationSecIdle 254396.95742313
scalar OsgEarthNet.uav[26] utilizationEnergyMission 3349.2074890137
scalar OsgEarthNet.uav[26] utilizationEnergyMaintenance 1468.0431137085
scalar OsgEarthNet.uav[26] utilizationEnergyCharge 4817.2495117188
scalar OsgEarthNet.uav[26] utilizationEnergyOverdrawMission 0
scalar OsgEarthNet.uav[26] utilizationEnergyOverdrawMaintenance 0
scalar OsgEarthNet.uav[26] utilizationCountMissions 1
scalar OsgEarthNet.uav[26] utilizationCountManeuversMission 11
scalar OsgEarthNet.uav[26] utilizationCountManeuversMaintenance 2
scalar OsgEarthNet.uav[26] utilizationCountChargeState 1
scalar OsgEarthNet.uav[26] utilizationCountOverdrawnAfterMission 0
scalar OsgEarthNet.uav[26] utilizationCountIdleState 2
scalar OsgEarthNet.uav[26] utilizationFail 0
scalar OsgEarthNet.uav[26] simulationTime 259200
scalar OsgEarthNet.uav[27] utilizationSecMission 28903.332794348
scalar OsgEarthNet.uav[27] utilizationSecMaintenance 16240.693291757
scalar OsgEarthNet.uav[27] utilizationSecCharge 165993.97291389
scalar OsgEarthNet.uav[27] utilizationSecIdle 48062
scalar OsgEarthNet.uav[27] utilizationEnergyMission 134175.43747711
scalar OsgEarthNet.uav[27] utilizationEnergyMaintenance 75095.860687256
scalar OsgEarthNet.uav[27] utilizationEnergyCharge 208379.00195312
scalar OsgEarthNet.uav[27] utilizationEnergyOverdrawMission 0
scalar OsgEarthNet.uav[27] utilizationEnergyOverdrawMaintenance 0
scalar OsgEarthNet.uav[27] utilizationCountMissions 45
scalar OsgEarthNet.uav[27] utilizationCountManeuversMission 483
scalar OsgEarthNet.uav[27] utilizationCountManeuversMaintenance 89
scalar OsgEarthNet.uav[27] utilizationCountChargeState 45
scalar OsgEarthNet.uav[27] utilizationCountOverdrawnAfterMission 0
scalar OsgEarthNet.uav[27] utilizationCountIdleState 45
scalar OsgEarthNet.uav[27] utilizationFail 0
scalar OsgEarthNet.uav[27] simulationTime 259200
scalar OsgEarthNet.uav[28] utilizationSecMission 11209.897561522
scalar OsgEarthNet.uav[28] utilizationSecMaintenance 6032.830927803
scalar OsgEarthNet.uav[28] utilizationSecCharge 62420
scalar OsgEarthNet.uav[28] utilizationSecIdle 179537.27051067
scalar OsgEarthNet.uav[28] utilizationEnergyMission 51198.074859619
scalar OsgEarthNet.uav[28] utilizationEnergyMaintenance 28184.424718317
scalar OsgEarthNet.uav[28] utilizationEnergyCharge 78019.653320312
scalar OsgEarthNet.uav[28] utilizationEnergyOverdrawMission 0
scalar OsgEarthNet.uav[28] utilizationEnergyOverdrawMaintenance 0
scalar OsgEarthNet.uav[28] utilizationCountMissions 17
scalar OsgEarthNet.uav[28] utilizationCountManeuversMission 186
scalar OsgEarthNet.uav[28] utilizationCountManeuversMaintenance 35
scalar OsgEarthNet.uav[28] utilizationCountChargeState 17
scalar OsgEarthNet.uav[28] utilizationCountOverdrawnAfterMission 0
scalar OsgEarthNet.uav[28] utilizationCountIdleState 18
scalar OsgEarthNet.uav[28] utilizationFail 0
scalar OsgEarthNet.uav[28] simulationTime 259200
scalar OsgEarthNet.uav[29] utilizationSecMission 836.77707522227
scalar OsgEarthNet.uav[29] utilizationSecMaintenance 217.0347828456
scalar OsgEarthNet.uav[29] utilizationSecCharge 3820
scalar OsgEarthNet.uav[29] utilizationSecIdle 254326.18714193
scalar OsgEarthNet.uav[29] utilizationEnergyMission 3834.3931427002
scalar OsgEarthNet.uav[29] utilizationEnergyMaintenance 1012.0604057312
scalar OsgEarthNet.uav[29] utilizationEnergyCharge 4846.4560546875
scalar OsgEarthNet.uav[29] utilizationEnergyOverdrawMission 0
scalar OsgEarthNet.uav[29] utilizationEnergyOverdrawMaintenance 0
scalar OsgEarthNet.uav[29] utilizationCountMissions 1
scalar OsgEarthNet.uav[29] utilizationCountManeuversMission 13
scalar OsgEarthNet.uav[29] utilizationCountManeuversMaintenance 2
scalar OsgEarthNet.uav[29] utilizationCountChargeState 1
scalar OsgEarthNet.uav[29] utilizationCountOverdrawnAfterMission 0
scalar OsgEarthNet.uav[29] utilizationCountIdleState 2
scalar OsgEarthNet.uav[29] utilizationFail 0
scalar OsgEarthNet.uav[29] simulationTime 259200
scalar OsgEarthNet.uav[30] utilizationSecMission 702.6942798579
scalar OsgEarthNet.uav[30] utilizationSecMaintenance 282.29565405678
scalar OsgEarthNet.uav[30] utilizationSecCharge 3670
scalar OsgEarthNet.uav[30] utilizationSecIdle 254545.00906609
scalar OsgEarthNet.uav[30] utilizationEnergyMission 3375.8198242188
scalar OsgEarthNet.uav[30] utilizationEnergyMaintenance 1181.2455863953
scalar OsgEarthNet.uav[30] utilizationEnergyCharge 4557.0654296875
scalar OsgEarthNet.uav[30] utilizationEnergyOverdrawMission 0
scalar OsgEarthNet.uav[30] utilizationEnergyOverdrawMaintenance 0
scalar OsgEarthNet.uav[30] utilizationCountMissions 1
scalar OsgEarthNet.uav[30] utilizationCountManeuversMission 10
scalar OsgEarthNet.uav[30] utilizationCountManeuversMaintenance 2
scalar OsgEarthNet.uav[30] utilizationCountChargeState 1
scalar OsgEarthNet.uav[30] utilizationCountOverdrawnAfterMission 0
scalar OsgEarthNet.uav[30] utilizationCountIdleState 2
scalar OsgEarthNet.uav[30] utilizationFail 0
scalar OsgEarthNet.uav[30] simulationTime 259200
scalar OsgEarthNet.uav[31] utilizationSecMission 16940.797171039
scalar OsgEarthNet.uav[31] utilizationSecMaintenance 9814.8236207727
scalar OsgEarthNet.uav[31] utilizationSecCharge 99670
scalar OsgEarthNet.uav[31] utilizationSecIdle 132774.37820819
scalar OsgEarthNet.uav[31] utilizationEnergyMission 79167.843078613
scalar OsgEarthNet.uav[31] utilizationEnergyMaintenance 45733.456119537
scalar OsgEarthNet.uav[31] utilizationEnergyCharge 124875.12109375
scalar OsgEarthNet.uav[31] utilizationEnergyOverdrawMission 0
scalar OsgEarthNet.uav[31] utilizationEnergyOverdrawMaintenance 0
scalar OsgEarthNet.uav[31] utilizationCountMissions 27
scalar OsgEarthNet.uav[31] utilizationCountManeuversMission 279
scalar OsgEarthNet.uav[31] utilizationCountManeuversMaintenance 54
scalar OsgEarthNet.uav[31] utilizationCountChargeState 27
scalar OsgEarthNet.uav[31] utilizationCountOverdrawnAfterMission 0
scalar OsgEarthNet.uav[31] utilizationCountIdleState 28
scalar OsgEarthNet.uav[31] utilizationFail 0
scalar OsgEarthNet.uav[31] simulationTime 259200
scalar OsgEarthNet.uav[32] utilizationSecMission 694.00169469977
scalar OsgEarthNet.uav[32] utilizationSecMaintenance 282.18572599206
scalar OsgEarthNet.uav[32] utilizationSecCharge 3810
scalar OsgEarthNet.uav[32] utilizationSecIdle 254413.81157931
scalar OsgEarthNet.uav[32] utilizationEnergyMission 3312.3916244507
scalar OsgEarthNet.uav[32] utilizationEnergyMaintenance 1515.6075057983
scalar OsgEarthNet.uav[32] utilizationEnergyCharge 4827.9970703125
scalar OsgEarthNet.uav[32] utilizationEnergyOverdrawMission 0
scalar OsgEarthNet.uav[32] utilizationEnergyOverdrawMaintenance 0
scalar OsgEarthNet.uav[32] utilizationCountMissions 1
scalar OsgEarthNet.uav[32] utilizationCountManeuversMission 13
scalar OsgEarthNet.uav[32] utilizationCountManeuversMaintenance 2
scalar OsgEarthNet.uav[32] utilizationCountChargeState 1
scalar OsgEarthNet.uav[32] utilizationCountOverdrawnAfterMission 0
scalar OsgEarthNet.uav[32] utilizationCountIdleState 2
scalar OsgEarthNet.uav[32] utilizationFail 0
scalar OsgEarthNet.uav[32] simulationTime 259200
scalar OsgEarthNet.uav[33] utilizationSecMission 760.62515258028
scalar OsgEarthNet.uav[33] utilizationSecMaintenance 291.95923480269
scalar OsgEarthNet.uav[33] utilizationSecCharge 3730
scalar OsgEarthNet.uav[33] utilizationSecIdle 254417.41461262
scalar OsgEarthNet.uav[33] utilizationEnergyMission 3308.5478439331
scalar OsgEarthNet.uav[33] utilizationEnergyMaintenance 1385.5551376343
scalar OsgEarthNet.uav[33] utilizationEnergyCharge 4694.1040039062
scalar OsgEarthNet.uav[33] utilizationEnergyOverdrawMission 0
scalar OsgEarthNet.uav[33] utilizationEnergyOverdrawMaintenance 0
scalar OsgEarthNet.uav[33] utilizationCountMissions 1
scalar OsgEarthNet.uav[33] utilizationCountManeuversMission 12
scalar OsgEarthNet.uav[33] utilizationCountManeuversMaintenance 2
scalar OsgEarthNet.uav[33] utilizationCountChargeState 1
scalar OsgEarthNet.uav[33] utilizationCountOverdrawnAfterMission 0
scalar OsgEarthNet.uav[33] utilizationCountIdleState 2
scalar OsgEarthNet.uav[33] utilizationFail 0
scalar OsgEarthNet.uav[33] simulationTime 259200
scalar OsgEarthNet.uav[34] utilizationSecMission 27196.327775658
scalar OsgEarthNet.uav[34] utilizationSecMaintenance 11786.482677713
scalar OsgEarthNet.uav[34] utilizationSecCharge 145483.79772736
scalar OsgEarthNet.uav[34] utilizationSecIdle 74733.39081927
scalar OsgEarthNet.uav[34] utilizationEnergyMission 126772.4381218
scalar OsgEarthNet.uav[34] utilizationEnergyMaintenance 56115.893024445
scalar OsgEarthNet.uav[34] utilizationEnergyCharge 182878.38867188
scalar OsgEarthNet.uav[34] utilizationEnergyOverdrawMission 0
scalar OsgEarthNet.uav[34] utilizationEnergyOverdrawMaintenance 0
scalar OsgEarthNet.uav[34] utilizationCountMissions 39
scalar OsgEarthNet.uav[34] utilizationCountManeuversMission 454
scalar OsgEarthNet.uav[34] utilizationCountManeuversMaintenance 78
scalar OsgEarthNet.uav[34] utilizationCountChargeState 39
scalar OsgEarthNet.uav[34] utilizationCountOverdrawnAfterMission 0
scalar OsgEarthNet.uav[34] utilizationCountIdleState 39
scalar OsgEarthNet.uav[34] utilizationFail 0
scalar OsgEarthNet.uav[34] simulationTime 259200
scalar OsgEarthNet.uav[35] utilizationSecMission 694.00169469977
scalar OsgEarthNet.uav[35] utilizationSecMaintenance 338.49695459722
scalar OsgEarthNet.uav[35] utilizationSecCharge 3790
scalar OsgEarthNet.uav[35] utilizationSecIdle 254377.5003507
scalar OsgEarthNet.uav[35] utilizationEnergyMission 3345.635925293
scalar OsgEarthNet.uav[35] utilizationEnergyMaintenance 1450.4078483582
scalar OsgEarthNet.uav[35] utilizationEnergyCharge 4796.0444335938
scalar OsgEarthNet.uav[35] utilizationEnergyOverdrawMission 0
scalar OsgEarthNet.uav[35] utilizationEnergyOverdrawMaintenance 0
scalar OsgEarthNet.uav[35] utilizationCountMissions 1
scalar OsgEarthNet.uav[35] utilizationCountManeuversMission 13
scalar OsgEarthNet.uav[35] utilizationCountManeuversMaintenance 2
scalar OsgEarthNet.uav[35] utilizationCountChargeState 1
scalar OsgEarthNet.uav[35] utilizationCountOverdrawnAfterMission 0
scalar OsgEarthNet.uav[35] utilizationCountIdleState 2
scalar OsgEarthNet.uav[35] utilizationFail 0
scalar OsgEarthNet.uav[35] simulationTime 259200
scalar OsgEarthNet.uav[36] utilizationSecMission 27957.337622111
scalar OsgEarthNet.uav[36] utilizationSecMaintenance 13846.104204317
scalar OsgEarthNet.uav[36] utilizationSecCharge 154702.6786912
scalar OsgEarthNet.uav[36] utilizationSecIdle 62693.878482368
scalar OsgEarthNet.uav[36] utilizationEnergyMission 129660.9665451
scalar OsgEarthNet.uav[36] utilizationEnergyMaintenance 65554.490379333
scalar OsgEarthNet.uav[36] utilizationEnergyCharge 194943.92138672
scalar OsgEarthNet.uav[36] utilizationEnergyOverdrawMission 0
scalar OsgEarthNet.uav[36] utilizationEnergyOverdrawMaintenance 0
scalar OsgEarthNet.uav[36] utilizationCountMissions 42
scalar OsgEarthNet.uav[36] utilizationCountManeuversMission 458
scalar OsgEarthNet.uav[36] utilizationCountManeuversMaintenance 84
scalar OsgEarthNet.uav[36] utilizationCountChargeState 42
scalar OsgEarthNet.uav[36] utilizationCountOverdrawnAfterMission 0
scalar OsgEarthNet.uav[36] utilizationCountIdleState 42
scalar OsgEarthNet.uav[36] utilizationFail 0
scalar OsgEarthNet.uav[36] simulationTime 259200
scalar OsgEarthNet.uav[37] utilizationSecMission 743.20678019818
scalar OsgEarthNet.uav[37] utilizationSecMaintenance 295.89994741134
scalar OsgEarthNet.uav[37] utilizationSecCharge 3720
scalar OsgEarthNet.uav[37] utilizationSecIdle 254440.89227239
scalar OsgEarthNet.uav[37] utilizationEnergyMission 3186.7705688477
scalar OsgEarthNet.uav[37] utilizationEnergyMaintenance 1395.9497909546
scalar OsgEarthNet.uav[37] utilizationEnergyCharge 4582.71484375
scalar OsgEarthNet.uav[37] utilizationEnergyOverdrawMission 0
scalar OsgEarthNet.uav[37] utilizationEnergyOverdrawMaintenance 0
scalar OsgEarthNet.uav[37] utilizationCountMissions 1
scalar OsgEarthNet.uav[37] utilizationCountManeuversMission 12
scalar OsgEarthNet.uav[37] utilizationCountManeuversMaintenance 2
scalar OsgEarthNet.uav[37] utilizationCountChargeState 1
scalar OsgEarthNet.uav[37] utilizationCountOverdrawnAfterMission 0
scalar OsgEarthNet.uav[37] utilizationCountIdleState 2
scalar OsgEarthNet.uav[37] utilizationFail 0
scalar OsgEarthNet.uav[37] simulationTime 259200
scalar OsgEarthNet.uav[38] utilizationSecMission 621.17604176187
scalar OsgEarthNet.uav[38] utilizationSecMaintenance 313.76167006775
scalar OsgEarthNet.uav[38] utilizationSecCharge 3420
scalar OsgEarthNet.uav[38] utilizationSecIdle 254845.06128817
scalar OsgEarthNet.uav[38] utilizationEnergyMission 2697.5087127686
scalar OsgEarthNet.uav[38] utilizationEnergyMaintenance 1446.2758293152
scalar OsgEarthNet.uav[38] utilizationEnergyCharge 4143.7817382812
scalar OsgEarthNet.uav[38] utilizationEnergyOverdrawMission 0
scalar OsgEarthNet.uav[38] utilizationEnergyOverdrawMaintenance 0
scalar OsgEarthNet.uav[38] utilizationCountMissions 1
scalar OsgEarthNet.uav[38] utilizationCountManeuversMission 12
scalar OsgEarthNet.uav[38] utilizationCountManeuversMaintenance 2
scalar OsgEarthNet.uav[38] utilizationCountChargeState 1
scalar OsgEarthNet.uav[38] utilizationCountOverdrawnAfterMission 0
scalar OsgEarthNet.uav[38] utilizationCountIdleState 2
scalar OsgEarthNet.uav[38] utilizationFail 0
scalar OsgEarthNet.uav[38] simulationTime 259200
scalar OsgEarthNet.uav[39] utilizationSecMission 28371.61451881
scalar OsgEarthNet.uav[39] utilizationSecMaintenance 14889.872658853
scalar OsgEarthNet.uav[39] utilizationSecCharge 160370
scalar OsgEarthNet.uav[39] utilizationSecIdle 55568.511822336
scalar OsgEarthNet.uav[39] utilizationEnergyMission 132105.84949303
scalar OsgEarthNet.uav[39] utilizationEnergyMaintenance 69283.545413971
scalar OsgEarthNet.uav[39] utilizationEnergyCharge 201264.08837891
scalar OsgEarthNet.uav[39] utilizationEnergyOverdrawMission 0
scalar OsgEarthNet.uav[39] utilizationEnergyOverdrawMaintenance 0
scalar OsgEarthNet.uav[39] utilizationCountMissions 43
scalar OsgEarthNet.uav[39] utilizationCountManeuversMission 467
scalar OsgEarthNet.uav[39] utilizationCountManeuversMaintenance 85
scalar OsgEarthNet.uav[39] utilizationCountChargeState 43
scalar OsgEarthNet.uav[39] utilizationCountOverdrawnAfterMission 0
scalar OsgEarthNet.uav[39] utilizationCountIdleState 44
scalar OsgEarthNet.uav[39] utilizationFail 0
scalar OsgEarthNet.uav[39] simulationTime 259200
scalar OsgEarthNet.uav[40] utilizationSecMission 760.62515258028
scalar OsgEarthNet.uav[40] utilizationSecMaintenance 291.95923480269
scalar OsgEarthNet.uav[40] utilizationSecCharge 3810
scalar OsgEarthNet.uav[40] utilizationSecIdle 254337.41461262
scalar OsgEarthNet.uav[40] utilizationEnergyMission 3537.763168335
scalar OsgEarthNet.uav[40] utilizationEnergyMaintenance 1315.5007858276
scalar OsgEarthNet.uav[40] utilizationEnergyCharge 4853.2661132812
scalar OsgEarthNet.uav[40] utilizationEnergyOverdrawMission 0
scalar OsgEarthNet.uav[40] utilizationEnergyOverdrawMaintenance 0
scalar OsgEarthNet.uav[40] utilizationCountMissions 1
scalar OsgEarthNet.uav[40] utilizationCountManeuversMission 12
scalar OsgEarthNet.uav[40] utilizationCountManeuversMaintenance 2
scalar OsgEarthNet.uav[40] utilizationCountChargeState 1
scalar OsgEarthNet.uav[40] utilizationCountOverdrawnAfterMission 0
scalar OsgEarthNet.uav[40] utilizationCountIdleState 2
scalar OsgEarthNet.uav[40] utilizationFail 0
scalar OsgEarthNet.uav[40] simulationTime 259200
scalar OsgEarthNet.uav[41] utilizationSecMission 27656.795042334
scalar OsgEarthNet.uav[41] utilizationSecMaintenance 14175.500941822
scalar OsgEarthNet.uav[41] utilizationSecCharge 152798.31489828
scalar OsgEarthNet.uav[41] utilizationSecIdle 64569.38811756
scalar OsgEarthNet.uav[41] utilizationEnergyMission 129105.12655258
scalar OsgEarthNet.uav[41] utilizationEnergyMaintenance 66749.174304962
scalar OsgEarthNet.uav[41] utilizationEnergyCharge 191648.04748535
scalar OsgEarthNet.uav[41] utilizationEnergyOverdrawMission 0
scalar OsgEarthNet.uav[41] utilizationEnergyOverdrawMaintenance 0
scalar OsgEarthNet.uav[41] utilizationCountMissions 42
scalar OsgEarthNet.uav[41] utilizationCountManeuversMission 452
scalar OsgEarthNet.uav[41] utilizationCountManeuversMaintenance 84
scalar OsgEarthNet.uav[41] utilizationCountChargeState 42
scalar OsgEarthNet.uav[41] utilizationCountOverdrawnAfterMission 0
scalar OsgEarthNet.uav[41] utilizationCountIdleState 42
scalar OsgEarthNet.uav[41] utilizationFail 0
scalar OsgEarthNet.uav[41] simulationTime 259200
scalar OsgEarthNet.uav[42] utilizationSecMission 22832.302497332
scalar OsgEarthNet.uav[42] utilizationSecMaintenance 9639.2811751409
scalar OsgEarthNet.uav[42] utilizationSecCharge 119090
scalar OsgEarthNet.uav[42] utilizationSecIdle 107638.41532753
scalar OsgEarthNet.uav[42] utilizationEnergyMission 103993.56404877
scalar OsgEarthNet.uav[42] utilizationEnergyMaintenance 45390.522899628
scalar OsgEarthNet.uav[42] utilizationEnergyCharge 149288.69042969
scalar OsgEarthNet.uav[42] utilizationEnergyOverdrawMission 0
scalar OsgEarthNet.uav[42] utilizationEnergyOverdrawMaintenance 0
scalar OsgEarthNet.uav[42] utilizationCountMissions 32
scalar OsgEarthNet.uav[42] utilizationCountManeuversMission 380
scalar OsgEarthNet.uav[42] utilizationCountManeuversMaintenance 64
scalar OsgEarthNet.uav[42] utilizationCountChargeState 32
scalar OsgEarthNet.uav[42] utilizationCountOverdrawnAfterMission 0
scalar OsgEarthNet.uav[42] utilizationCountIdleState 33
scalar OsgEarthNet.uav[42] utilizationFail 0
scalar OsgEarthNet.uav[42] simulationTime 259200
scalar OsgEarthNet.uav[43] utilizationSecMission 760.62515258028
scalar OsgEarthNet.uav[43] utilizationSecMaintenance 291.95923480269
scalar OsgEarthNet.uav[43] utilizationSecCharge 3890
scalar OsgEarthNet.uav[43] utilizationSecIdle 254257.41461262
scalar OsgEarthNet.uav[43] utilizationEnergyMission 3461.8160247803
scalar OsgEarthNet.uav[43] utilizationEnergyMaintenance 1457.8639144897
scalar OsgEarthNet.uav[43] utilizationEnergyCharge 4919.6826171875
scalar OsgEarthNet.uav[43] utilizationEnergyOverdrawMission 0
scalar OsgEarthNet.uav[43] utilizationEnergyOverdrawMaintenance 0
scalar OsgEarthNet.uav[43] utilizationCountMissions 1
scalar OsgEarthNet.uav[43] utilizationCountManeuversMission 12
scalar OsgEarthNet.uav[43] utilizationCountManeuversMaintenance 2
scalar OsgEarthNet.uav[43] utilizationCountChargeState 1
scalar OsgEarthNet.uav[43] utilizationCountOverdrawnAfterMission 0
scalar OsgEarthNet.uav[43] utilizationCountIdleState 2
scalar OsgEarthNet.uav[43] utilizationFail 0
scalar OsgEarthNet.uav[43] simulationTime 259200
scalar OsgEarthNet.uav[44] utilizationSecMission 22666.232747041
scalar OsgEarthNet.uav[44] utilizationSecMaintenance 10054.129844301
scalar OsgEarthNet.uav[44] utilizationSecCharge 120724.23748426
scalar OsgEarthNet.uav[44] utilizationSecIdle 105755.3989244
scalar OsgEarthNet.uav[44] utilizationEnergyMission 105369.93712997
scalar OsgEarthNet.uav[44] utilizationEnergyMaintenance 46749.07554245
scalar OsgEarthNet.uav[44] utilizationEnergyCharge 151448.90844727
scalar OsgEarthNet.uav[44] utilizationEnergyOverdrawMission 0
scalar OsgEarthNet.uav[44] utilizationEnergyOverdrawMaintenance 0
scalar OsgEarthNet.uav[44] utilizationCountMissions 33
scalar OsgEarthNet.uav[44] utilizationCountManeuversMission 378
scalar OsgEarthNet.uav[44] utilizationCountManeuversMaintenance 66
scalar OsgEarthNet.uav[44] utilizationCountChargeState 33
scalar OsgEarthNet.uav[44] utilizationCountOverdrawnAfterMission 0
scalar OsgEarthNet.uav[44] utilizationCountIdleState 33
scalar OsgEarthNet.uav[44] utilizationFail 0
scalar OsgEarthNet.uav[44] simulationTime 259200
scalar OsgEarthNet.uav[45] utilizationSecMission 29683.640419919
scalar OsgEarthNet.uav[45] utilizationSecMaintenance 11834.088514434
scalar OsgEarthNet.uav[45] utilizationSecCharge 151585.61676205
scalar OsgEarthNet.uav[45] utilizationSecIdle 66096.653303597
scalar OsgEarthNet.uav[45] utilizationEnergyMission 137653.67556
scalar OsgEarthNet.uav[45] utilizationEnergyMaintenance 56030.223232269
scalar OsgEarthNet.uav[45] utilizationEnergyCharge 191285.36376953
scalar OsgEarthNet.uav[45] utilizationEnergyOverdrawMission 0
scalar OsgEarthNet.uav[45] utilizationEnergyOverdrawMaintenance 0
scalar OsgEarthNet.uav[45] utilizationCountMissions 41
scalar OsgEarthNet.uav[45] utilizationCountManeuversMission 474
scalar OsgEarthNet.uav[45] utilizationCountManeuversMaintenance 82
scalar OsgEarthNet.uav[45] utilizationCountChargeState 41
scalar OsgEarthNet.uav[45] utilizationCountOverdrawnAfterMission 0
scalar OsgEarthNet.uav[45] utilizationCountIdleState 41
scalar OsgEarthNet.uav[45] utilizationFail 0
scalar OsgEarthNet.uav[45] simulationTime 259200
scalar OsgEarthNet.uav[46] utilizationSecMission 684.4732299383
scalar OsgEarthNet.uav[46] utilizationSecMaintenance 298.56834692969
scalar OsgEarthNet.uav[46] utilizationSecCharge 3660
scalar OsgEarthNet.uav[46] utilizationSecIdle 254556.95742313
scalar OsgEarthNet.uav[46] utilizationEnergyMission 3051.290725708
scalar OsgEarthNet.uav[46] utilizationEnergyMaintenance 1554.9396591187
scalar OsgEarthNet.uav[46] utilizationEnergyCharge 4606.23046875
scalar OsgEarthNet.uav[46] utilizationEnergyOverdrawMission 0
scalar OsgEarthNet.uav[46] utilizationEnergyOverdrawMaintenance 0
scalar OsgEarthNet.uav[46] utilizationCountMissions 1
scalar OsgEarthNet.uav[46] utilizationCountManeuversMission 11
scalar OsgEarthNet.uav[46] utilizationCountManeuversMaintenance 2
scalar OsgEarthNet.uav[46] utilizationCountChargeState 1
scalar OsgEarthNet.uav[46] utilizationCountOverdrawnAfterMission 0
scalar OsgEarthNet.uav[46] utilizationCountIdleState 2
scalar OsgEarthNet.uav[46] utilizationFail 0
scalar OsgEarthNet.uav[46] simulationTime 259200
scalar OsgEarthNet.uav[47] utilizationSecMission 24980.439409766
scalar OsgEarthNet.uav[47] utilizationSecMaintenance 11967.875700042
scalar OsgEarthNet.uav[47] utilizationSecCharge 136520.2876675
scalar OsgEarthNet.uav[47] utilizationSecIdle 85731.39622269
scalar OsgEarthNet.uav[47] utilizationEnergyMission 117093.71844482
scalar OsgEarthNet.uav[47] utilizationEnergyMaintenance 56046.038860321
scalar OsgEarthNet.uav[47] utilizationEnergyCharge 172111.91772461
scalar OsgEarthNet.uav[47] utilizationEnergyOverdrawMission 0
scalar OsgEarthNet.uav[47] utilizationEnergyOverdrawMaintenance 0
scalar OsgEarthNet.uav[47] utilizationCountMissions 37
scalar OsgEarthNet.uav[47] utilizationCountManeuversMission 421
scalar OsgEarthNet.uav[47] utilizationCountManeuversMaintenance 74
scalar OsgEarthNet.uav[47] utilizationCountChargeState 37
scalar OsgEarthNet.uav[47] utilizationCountOverdrawnAfterMission 0
scalar OsgEarthNet.uav[47] utilizationCountIdleState 37
scalar OsgEarthNet.uav[47] utilizationFail 0
scalar OsgEarthNet.uav[47] simulationTime 259200
scalar OsgEarthNet.uav[48] utilizationSecMission 17471.267320016
scalar OsgEarthNet.uav[48] utilizationSecMaintenance 6955.1160861532
scalar OsgEarthNet.uav[48] utilizationSecCharge 89180
scalar OsgEarthNet.uav[48] utilizationSecIdle 145593.61559383
scalar OsgEarthNet.uav[48] utilizationEnergyMission 81068.552520752
scalar OsgEarthNet.uav[48] utilizationEnergyMaintenance 31350.758022308
scalar OsgEarthNet.uav[48] utilizationEnergyCharge 111924.72167969
scalar OsgEarthNet.uav[48] utilizationEnergyOverdrawMission 0
scalar OsgEarthNet.uav[48] utilizationEnergyOverdrawMaintenance 0
scalar OsgEarthNet.uav[48] utilizationCountMissions 24
scalar OsgEarthNet.uav[48] utilizationCountManeuversMission 279
scalar OsgEarthNet.uav[48] utilizationCountManeuversMaintenance 48
scalar OsgEarthNet.uav[48] utilizationCountChargeState 24
scalar OsgEarthNet.uav[48] utilizationCountOverdrawnAfterMission 0
scalar OsgEarthNet.uav[48] utilizationCountIdleState 25
scalar OsgEarthNet.uav[48] utilizationFail 0
scalar OsgEarthNet.uav[48] simulationTime 259200
scalar OsgEarthNet.uav[49] utilizationSecMission 750.20472747826
scalar OsgEarthNet.uav[49] utilizationSecMaintenance 335.16822070369
scalar OsgEarthNet.uav[49] utilizationSecCharge 3820
scalar OsgEarthNet.uav[49] utilizationSecIdle 254294.62605182
scalar OsgEarthNet.uav[49] utilizationEnergyMission 3308.9388885498
scalar OsgEarthNet.uav[49] utilizationEnergyMaintenance 1516.7050285339
scalar OsgEarthNet.uav[49] utilizationEnergyCharge 4825.646484375
scalar OsgEarthNet.uav[49] utilizationEnergyOverdrawMission 0
scalar OsgEarthNet.uav[49] utilizationEnergyOverdrawMaintenance 0
scalar OsgEarthNet.uav[49] utilizationCountMissions 1
scalar OsgEarthNet.uav[49] utilizationCountManeuversMission 11
scalar OsgEarthNet.uav[49] utilizationCountManeuversMaintenance 2
scalar OsgEarthNet.uav[49] utilizationCountChargeState 1
scalar OsgEarthNet.uav[49] utilizationCountOverdrawnAfterMission 0
scalar OsgEarthNet.uav[49] utilizationCountIdleState 2
scalar OsgEarthNet.uav[49] utilizationFail 0
scalar OsgEarthNet.uav[49] simulationTime 259200
scalar OsgEarthNet.uav[50] utilizationSecMission 760.62515258028
scalar OsgEarthNet.uav[50] utilizationSecMaintenance 291.95923480269
scalar OsgEarthNet.uav[50] utilizationSecCharge 3970
scalar OsgEarthNet.uav[50] utilizationSecIdle 254177.41461262
scalar OsgEarthNet.uav[50] utilizationEnergyMission 3416.3929138184
scalar OsgEarthNet.uav[50] utilizationEnergyMaintenance 1673.1675643921
scalar OsgEarthNet.uav[50] utilizationEnergyCharge 5089.5620117188
scalar OsgEarthNet.uav[50] utilizationEnergyOverdrawMission 0
scalar OsgEarthNet.uav[50] utilizationEnergyOverdrawMaintenance 0
scalar OsgEarthNet.uav[50] utilizationCountMissions 1
scalar OsgEarthNet.uav[50] utilizationCountManeuversMission 12
scalar OsgEarthNet.uav[50] utilizationCountManeuversMaintenance 2
scalar OsgEarthNet.uav[50] utilizationCountChargeState 1
scalar OsgEarthNet.uav[50] utilizationCountOverdrawnAfterMission 0
scalar OsgEarthNet.uav[50] utilizationCountIdleState 2
scalar OsgEarthNet.uav[50] utilizationFail 0
scalar OsgEarthNet.uav[50] simulationTime 259200
scalar OsgEarthNet.uav[51] utilizationSecMission 27752.96241118
scalar OsgEarthNet.uav[51] utilizationSecMaintenance 14741.054174624
scalar OsgEarthNet.uav[51] utilizationSecCharge 153792.46303921
scalar OsgEarthNet.uav[51] utilizationSecIdle 62913.519374982
scalar OsgEarthNet.uav[51] utilizationEnergyMission 128273.42019272
scalar OsgEarthNet.uav[51] utilizationEnergyMaintenance 69074.514247894
scalar OsgEarthNet.uav[51] utilizationEnergyCharge 193055.24804688
scalar OsgEarthNet.uav[51] utilizationEnergyOverdrawMission 0
scalar OsgEarthNet.uav[51] utilizationEnergyOverdrawMaintenance 0
scalar OsgEarthNet.uav[51] utilizationCountMissions 42
scalar OsgEarthNet.uav[51] utilizationCountManeuversMission 466
scalar OsgEarthNet.uav[51] utilizationCountManeuversMaintenance 84
scalar OsgEarthNet.uav[51] utilizationCountChargeState 42
scalar OsgEarthNet.uav[51] utilizationCountOverdrawnAfterMission 0
scalar OsgEarthNet.uav[51] utilizationCountIdleState 42
scalar OsgEarthNet.uav[51] utilizationFail 0
scalar OsgEarthNet.uav[51] simulationTime 259200
scalar OsgEarthNet.uav[52] utilizationSecMission 694.00169469977
scalar OsgEarthNet.uav[52] utilizationSecMaintenance 338.49695459722
scalar OsgEarthNet.uav[52] utilizationSecCharge 3790
scalar OsgEarthNet.uav[52] utilizationSecIdle 254377.5003507
scalar OsgEarthNet.uav[52] utilizationEnergyMission 3204.0255737305
scalar OsgEarthNet.uav[52] utilizationEnergyMaintenance 1613.3700675964
scalar OsgEarthNet.uav[52] utilizationEnergyCharge 4817.3989257812
scalar OsgEarthNet.uav[52] utilizationEnergyOverdrawMission 0
scalar OsgEarthNet.uav[52] utilizationEnergyOverdrawMaintenance 0
scalar OsgEarthNet.uav[52] utilizationCountMissions 1
scalar OsgEarthNet.uav[52] utilizationCountManeuversMission 13
scalar OsgEarthNet.uav[52] utilizationCountManeuversMaintenance 2
scalar OsgEarthNet.uav[52] utilizationCountChargeState 1
scalar OsgEarthNet.uav[52] utilizationCountOverdrawnAfterMission 0
scalar OsgEarthNet.uav[52] utilizationCountIdleState 2
scalar OsgEarthNet.uav[52] utilizationFail 0
scalar OsgEarthNet.uav[52] simulationTime 259200
scalar OsgEarthNet.uav[53] utilizationSecMission 27455.132780042
scalar OsgEarthNet.uav[53] utilizationSecMaintenance 14040.361576801
scalar OsgEarthNet.uav[53] utilizationSecCharge 152770
scalar OsgEarthNet.uav[53] utilizationSecIdle 64934.504643157
scalar OsgEarthNet.uav[53] utilizationEnergyMission 127185.21554565
scalar OsgEarthNet.uav[53] utilizationEnergyMaintenance 65459.046526028
scalar OsgEarthNet.uav[53] utilizationEnergyCharge 191470.08300781
scalar OsgEarthNet.uav[53] utilizationEnergyOverdrawMission 0
scalar OsgEarthNet.uav[53] utilizationEnergyOverdrawMaintenance 0
scalar OsgEarthNet.uav[53] utilizationCountMissions 41
scalar OsgEarthNet.uav[53] utilizationCountManeuversMission 447
scalar OsgEarthNet.uav[53] utilizationCountManeuversMaintenance 83
scalar OsgEarthNet.uav[53] utilizationCountChargeState 41
scalar OsgEarthNet.uav[53] utilizationCountOverdrawnAfterMission 0
scalar OsgEarthNet.uav[53] utilizationCountIdleState 42
scalar OsgEarthNet.uav[53] utilizationFail 0
scalar OsgEarthNet.uav[53] simulationTime 259200
scalar OsgEarthNet.uav[54] utilizationSecMission 694.00169469977
scalar OsgEarthNet.uav[54] utilizationSecMaintenance 297.56999528428
scalar OsgEarthNet.uav[54] utilizationSecCharge 3840
scalar OsgEarthNet.uav[54] utilizationSecIdle 254368.42731002
scalar OsgEarthNet.uav[54] utilizationEnergyMission 3446.353225708
scalar OsgEarthNet.uav[54] utilizationEnergyMaintenance 1447.7163200378
scalar OsgEarthNet.uav[54] utilizationEnergyCharge 4894.0678710938
scalar OsgEarthNet.uav[54] utilizationEnergyOverdrawMission 0
scalar OsgEarthNet.uav[54] utilizationEnergyOverdrawMaintenance 0
scalar OsgEarthNet.uav[54] utilizationCountMissions 1
scalar OsgEarthNet.uav[54] utilizationCountManeuversMission 13
scalar OsgEarthNet.uav[54] utilizationCountManeuversMaintenance 2
scalar OsgEarthNet.uav[54] utilizationCountChargeState 1
scalar OsgEarthNet.uav[54] utilizationCountOverdrawnAfterMission 0
scalar OsgEarthNet.uav[54] utilizationCountIdleState 2
scalar OsgEarthNet.uav[54] utilizationFail 0
scalar OsgEarthNet.uav[54] simulationTime 259200
scalar OsgEarthNet.uav[55] utilizationSecMission 27947.903801552
scalar OsgEarthNet.uav[55] utilizationSecMaintenance 11861.435803206
scalar OsgEarthNet.uav[55] utilizationSecCharge 142733.80035479
scalar OsgEarthNet.uav[55] utilizationSecIdle 76656.859040449
scalar OsgEarthNet.uav[55] utilizationEnergyMission 128089.10548019
scalar OsgEarthNet.uav[55] utilizationEnergyMaintenance 55408.827442169
scalar OsgEarthNet.uav[55] utilizationEnergyCharge 179566.14678955
scalar OsgEarthNet.uav[55] utilizationEnergyOverdrawMission 0
scalar OsgEarthNet.uav[55] utilizationEnergyOverdrawMaintenance 0
scalar OsgEarthNet.uav[55] utilizationCountMissions 39
scalar OsgEarthNet.uav[55] utilizationCountManeuversMission 449
scalar OsgEarthNet.uav[55] utilizationCountManeuversMaintenance 78
scalar OsgEarthNet.uav[55] utilizationCountChargeState 39
scalar OsgEarthNet.uav[55] utilizationCountOverdrawnAfterMission 0
scalar OsgEarthNet.uav[55] utilizationCountIdleState 39
scalar OsgEarthNet.uav[55] utilizationFail 0
scalar OsgEarthNet.uav[55] simulationTime 259200
scalar OsgEarthNet.uav[56] utilizationSecMission 760.62515258028
scalar OsgEarthNet.uav[56] utilizationSecMaintenance 291.95923480269
scalar OsgEarthNet.uav[56] utilizationSecCharge 3820
scalar OsgEarthNet.uav[56] utilizationSecIdle 254327.41461262
scalar OsgEarthNet.uav[56] utilizationEnergyMission 3400.7899246216
scalar OsgEarthNet.uav[56] utilizationEnergyMaintenance 1412.2643051147
scalar OsgEarthNet.uav[56] utilizationEnergyCharge 4813.0546875
scalar OsgEarthNet.uav[56] utilizationEnergyOverdrawMission 0
scalar OsgEarthNet.uav[56] utilizationEnergyOverdrawMaintenance 0
scalar OsgEarthNet.uav[56] utilizationCountMissions 1
scalar OsgEarthNet.uav[56] utilizationCountManeuversMission 12
scalar OsgEarthNet.uav[56] utilizationCountManeuversMaintenance 2
scalar OsgEarthNet.uav[56] utilizationCountChargeState 1
scalar OsgEarthNet.uav[56] utilizationCountOverdrawnAfterMission 0
scalar OsgEarthNet.uav[56] utilizationCountIdleState 2
scalar OsgEarthNet.uav[56] utilizationFail 0
scalar OsgEarthNet.uav[56] simulationTime 259200
scalar OsgEarthNet.uav[57] utilizationSecMission 30897.456439884
scalar OsgEarthNet.uav[57] utilizationSecMaintenance 14276.149248588
scalar OsgEarthNet.uav[57] utilizationSecCharge 164535.33750757
scalar OsgEarthNet.uav[57] utilizationSecIdle 49491.055803961
scalar OsgEarthNet.uav[57] utilizationEnergyMission 142404.53536224
scalar OsgEarthNet.uav[57] utilizationEnergyMaintenance 66227.245735168
scalar OsgEarthNet.uav[57] utilizationEnergyCharge 206648.81762695
scalar OsgEarthNet.uav[57] utilizationEnergyOverdrawMission 0
scalar OsgEarthNet.uav[57] utilizationEnergyOverdrawMaintenance 0
scalar OsgEarthNet.uav[57] utilizationCountMissions 45
scalar OsgEarthNet.uav[57] utilizationCountManeuversMission 494
scalar OsgEarthNet.uav[57] utilizationCountManeuversMaintenance 90
scalar OsgEarthNet.uav[57] utilizationCountChargeState 45
scalar OsgEarthNet.uav[57] utilizationCountOverdrawnAfterMission 0
scalar OsgEarthNet.uav[57] utilizationCountIdleState 45
scalar OsgEarthNet.uav[57] utilizationFail 0
scalar OsgEarthNet.uav[57] simulationTime 259200
scalar OsgEarthNet.uav[58] utilizationSecMission 946.1545473523
scalar OsgEarthNet.uav[58] utilizationSecMaintenance 162.42799022119
scalar OsgEarthNet.uav[58] utilizationSecCharge 3870
scalar OsgEarthNet.uav[58] utilizationSecIdle 254221.41646243
scalar OsgEarthNet.uav[58] utilizationEnergyMission 4230.675491333
scalar OsgEarthNet.uav[58] utilizationEnergyMaintenance 795.56002044678
scalar OsgEarthNet.uav[58] utilizationEnergyCharge 4945.5024414062
scalar OsgEarthNet.uav[58] utilizationEnergyOverdrawMission 0
scalar OsgEarthNet.uav[58] utilizationEnergyOverdrawMaintenance 0
scalar OsgEarthNet.uav[58] utilizationCountMissions 1
scalar OsgEarthNet.uav[58] utilizationCountManeuversMission 15
scalar OsgEarthNet.uav[58] utilizationCountManeuversMaintenance 2
scalar OsgEarthNet.uav[58] utilizationCountChargeState 1
scalar OsgEarthNet.uav[58] utilizationCountOverdrawnAfterMission 0
scalar OsgEarthNet.uav[58] utilizationCountIdleState 2
scalar OsgEarthNet.uav[58] utilizationFail 0
scalar OsgEarthNet.uav[58] simulationTime 259200
scalar OsgEarthNet.uav[59] utilizationSecMission 29875.225204232
scalar OsgEarthNet.uav[59] utilizationSecMaintenance 13949.006518039
scalar OsgEarthNet.uav[59] utilizationSecCharge 159053.14111694
scalar OsgEarthNet.uav[59] utilizationSecIdle 56322.626160789
scalar OsgEarthNet.uav[59] utilizationEnergyMission 138604.23886108
scalar OsgEarthNet.uav[59] utilizationEnergyMaintenance 65327.803028107
scalar OsgEarthNet.uav[59] utilizationEnergyCharge 200599.65209961
scalar OsgEarthNet.uav[59] utilizationEnergyOverdrawMission 0
scalar OsgEarthNet.uav[59] utilizationEnergyOverdrawMaintenance 0
scalar OsgEarthNet.uav[59] utilizationCountMissions 43
scalar OsgEarthNet.uav[59] utilizationCountManeuversMission 492
scalar OsgEarthNet.uav[59] utilizationCountManeuversMaintenance 86
scalar OsgEarthNet.uav[59] utilizationCountChargeState 43
scalar OsgEarthNet.uav[59] utilizationCountOverdrawnAfterMission 0
scalar OsgEarthNet.uav[59] utilizationCountIdleState 43
scalar OsgEarthNet.uav[59] utilizationFail 0
scalar OsgEarthNet.uav[59] simulationTime 259200
scalar OsgEarthNet.uav[60] utilizationSecMission 702.6942798579
scalar OsgEarthNet.uav[60] utilizationSecMaintenance 282.29565405678
scalar OsgEarthNet.uav[60] utilizationSecCharge 3780
scalar OsgEarthNet.uav[60] utilizationSecIdle 254435.00906609
scalar OsgEarthNet.uav[60] utilizationEnergyMission 3369.9060058594
scalar OsgEarthNet.uav[60] utilizationEnergyMaintenance 1433.8911857605
scalar OsgEarthNet.uav[60] utilizationEnergyCharge 4803.7958984375
scalar OsgEarthNet.uav[60] utilizationEnergyOverdrawMission 0
scalar OsgEarthNet.uav[60] utilizationEnergyOverdrawMaintenance 0
scalar OsgEarthNet.uav[60] utilizationCountMissions 1
scalar OsgEarthNet.uav[60] utilizationCountManeuversMission 10
scalar OsgEarthNet.uav[60] utilizationCountManeuversMaintenance 2
scalar OsgEarthNet.uav[60] utilizationCountChargeState 1
scalar OsgEarthNet.uav[60] utilizationCountOverdrawnAfterMission 0
scalar OsgEarthNet.uav[60] utilizationCountIdleState 2
scalar OsgEarthNet.uav[60] utilizationFail 0
scalar OsgEarthNet.uav[60] simulationTime 259200
scalar OsgEarthNet.uav[61] utilizationSecMission 655.55330183502
scalar OsgEarthNet.uav[61] utilizationSecMaintenance 334.5505930207
scalar OsgEarthNet.uav[61] utilizationSecCharge 3760
scalar OsgEarthNet.uav[61] utilizationSecIdle 254449.89510514
scalar OsgEarthNet.uav[61] utilizationEnergyMission 2974.2741241455
scalar OsgEarthNet.uav[61] utilizationEnergyMaintenance 1726.1933097839
scalar OsgEarthNet.uav[61] utilizationEnergyCharge 4700.46875
scalar OsgEarthNet.uav[61] utilizationEnergyOverdrawMission 0
scalar OsgEarthNet.uav[61] utilizationEnergyOverdrawMaintenance 0
scalar OsgEarthNet.uav[61] utilizationCountMissions 1
scalar OsgEarthNet.uav[61] utilizationCountManeuversMission 10
scalar OsgEarthNet.uav[61] utilizationCountManeuversMaintenance 2
scalar OsgEarthNet.uav[61] utilizationCountChargeState 1
scalar OsgEarthNet.uav[61] utilizationCountOverdrawnAfterMission 0
scalar OsgEarthNet.uav[61] utilizationCountIdleState 2
scalar OsgEarthNet.uav[61] utilizationFail 0
scalar OsgEarthNet.uav[61] simulationTime 259200
scalar OsgEarthNet.uav[62] utilizationSecMission 887.1741082606
scalar OsgEarthNet.uav[62] utilizationSecMaintenance 148.2728194454
scalar OsgEarthNet.uav[62] utilizationSecCharge 3810
scalar OsgEarthNet.uav[62] utilizationSecIdle 254354.55207229
scalar OsgEarthNet.uav[62] utilizationEnergyMission 3650.6167907715
scalar OsgEarthNet.uav[62] utilizationEnergyMaintenance 829.63222503662
scalar OsgEarthNet.uav[62] utilizationEnergyCharge 4820.3779296875
scalar OsgEarthNet.uav[62] utilizationEnergyOverdrawMission 0
scalar OsgEarthNet.uav[62] utilizationEnergyOverdrawMaintenance 0
scalar OsgEarthNet.uav[62] utilizationCountMissions 1
scalar OsgEarthNet.uav[62] utilizationCountManeuversMission 14
scalar OsgEarthNet.uav[62] utilizationCountManeuversMaintenance 2
scalar OsgEarthNet.uav[62] utilizationCountChargeState 1
scalar OsgEarthNet.uav[62] utilizationCountOverdrawnAfterMission 0
scalar OsgEarthNet.uav[62] utilizationCountIdleState 2
scalar OsgEarthNet.uav[62] utilizationFail 0
scalar OsgEarthNet.uav[62] simulationTime 259200
scalar OsgEarthNet.uav[63] utilizationSecMission 760.62515258028
scalar OsgEarthNet.uav[63] utilizationSecMaintenance 291.95923480269
scalar OsgEarthNet.uav[63] utilizationSecCharge 3700
scalar OsgEarthNet.uav[63] utilizationSecIdle 254447.41461262
scalar OsgEarthNet.uav[63] utilizationEnergyMission 3279.9785232544
scalar OsgEarthNet.uav[63] utilizationEnergyMaintenance 1366.9263534546
scalar OsgEarthNet.uav[63] utilizationEnergyCharge 4646.90234375
scalar OsgEarthNet.uav[63] utilizationEnergyOverdrawMission 0
scalar OsgEarthNet.uav[63] utilizationEnergyOverdrawMaintenance 0
scalar OsgEarthNet.uav[63] utilizationCountMissions 1
scalar OsgEarthNet.uav[63] utilizationCountManeuversMission 12
scalar OsgEarthNet.uav[63] utilizationCountManeuversMaintenance 2
scalar OsgEarthNet.uav[63] utilizationCountChargeState 1
scalar OsgEarthNet.uav[63] utilizationCountOverdrawnAfterMission 0
scalar OsgEarthNet.uav[63] utilizationCountIdleState 2
scalar OsgEarthNet.uav[63] utilizationFail 0
scalar OsgEarthNet.uav[63] simulationTime 259200
scalar OsgEarthNet.uav[64] utilizationSecMission 23892.467897575
scalar OsgEarthNet.uav[64] utilizationSecMaintenance 12092.829803387
scalar OsgEarthNet.uav[64] utilizationSecCharge 130632.61409775
scalar OsgEarthNet.uav[64] utilizationSecIdle 92582.087201284
scalar OsgEarthNet.uav[64] utilizationEnergyMission 110048.52307892
scalar OsgEarthNet.uav[64] utilizationEnergyMaintenance 57882.087799072
scalar OsgEarthNet.uav[64] utilizationEnergyCharge 163632.41949463
scalar OsgEarthNet.uav[64] utilizationEnergyOverdrawMission 0
scalar OsgEarthNet.uav[64] utilizationEnergyOverdrawMaintenance 0
scalar OsgEarthNet.uav[64] utilizationCountMissions 36
scalar OsgEarthNet.uav[64] utilizationCountManeuversMission 395
scalar OsgEarthNet.uav[64] utilizationCountManeuversMaintenance 72
scalar OsgEarthNet.uav[64] utilizationCountChargeState 36
scalar OsgEarthNet.uav[64] utilizationCountOverdrawnAfterMission 0
scalar OsgEarthNet.uav[64] utilizationCountIdleState 36
scalar OsgEarthNet.uav[64] utilizationFail 0
scalar OsgEarthNet.uav[64] simulationTime 259200
scalar OsgEarthNet.uav[65] utilizationSecMission 844.68187799363
scalar OsgEarthNet.uav[65] utilizationSecMaintenance 168.94893785192
scalar OsgEarthNet.uav[65] utilizationSecCharge 3710
[...]
scalar OsgEarthNet.uav[82] utilizationSecIdle 216790.52688718
scalar OsgEarthNet.uav[82] utilizationEnergyMission 32523.28881073
scalar OsgEarthNet.uav[82] utilizationEnergyMaintenance 9594.3378829956
scalar OsgEarthNet.uav[82] utilizationEnergyCharge 41708.769042969
scalar OsgEarthNet.uav[82] utilizationEnergyOverdrawMission 0
scalar OsgEarthNet.uav[82] utilizationEnergyOverdrawMaintenance 0
scalar OsgEarthNet.uav[82] utilizationCountMissions 9
scalar OsgEarthNet.uav[82] utilizationCountManeuversMission 110
scalar OsgEarthNet.uav[82] utilizationCountManeuversMaintenance 18
scalar OsgEarthNet.uav[82] utilizationCountChargeState 9
scalar OsgEarthNet.uav[82] utilizationCountOverdrawnAfterMission 0
scalar OsgEarthNet.uav[82] utilizationCountIdleState 10
scalar OsgEarthNet.uav[82] utilizationFail 0
scalar OsgEarthNet.uav[82] simulationTime 259200
scalar OsgEarthNet.uav[83] utilizationSecMission 760.62515258028
scalar OsgEarthNet.uav[83] utilizationSecMaintenance 291.95923480269
scalar OsgEarthNet.uav[83] utilizationSecCharge 3940
scalar OsgEarthNet.uav[83] utilizationSecIdle 254207.41461262
scalar OsgEarthNet.uav[83] utilizationEnergyMission 3583.0299987793
scalar OsgEarthNet.uav[83] utilizationEnergyMaintenance 1430.175743103
scalar OsgEarthNet.uav[83] utilizationEnergyCharge 5013.2084960938
scalar OsgEarthNet.uav[83] utilizationEnergyOverdrawMission 0
scalar OsgEarthNet.uav[83] utilizationEnergyOverdrawMaintenance 0
scalar OsgEarthNet.uav[83] utilizationCountMissions 1
scalar OsgEarthNet.uav[83] utilizationCountManeuversMission 12
scalar OsgEarthNet.uav[83] utilizationCountManeuversMaintenance 2
scalar OsgEarthNet.uav[83] utilizationCountChargeState 1
scalar OsgEarthNet.uav[83] utilizationCountOverdrawnAfterMission 0
scalar OsgEarthNet.uav[83] utilizationCountIdleState 2
scalar OsgEarthNet.uav[83] utilizationFail 0
scalar OsgEarthNet.uav[83] simulationTime 259200
scalar OsgEarthNet.uav[84] utilizationSecMission 6098.1741713881
scalar OsgEarthNet.uav[84] utilizationSecMaintenance 3049.0802116154
scalar OsgEarthNet.uav[84] utilizationSecCharge 33550
scalar OsgEarthNet.uav[84] utilizationSecIdle 216502.744617
scalar OsgEarthNet.uav[84] utilizationEnergyMission 27748.806381226
scalar OsgEarthNet.uav[84] utilizationEnergyMaintenance 14320.016185761
scalar OsgEarthNet.uav[84] utilizationEnergyCharge 42086.379882812
scalar OsgEarthNet.uav[84] utilizationEnergyOverdrawMission 0
scalar OsgEarthNet.uav[84] utilizationEnergyOverdrawMaintenance 0
scalar OsgEarthNet.uav[84] utilizationCountMissions 9
scalar OsgEarthNet.uav[84] utilizationCountManeuversMission 103
scalar OsgEarthNet.uav[84] utilizationCountManeuversMaintenance 18
scalar OsgEarthNet.uav[84] utilizationCountChargeState 9
scalar OsgEarthNet.uav[84] utilizationCountOverdrawnAfterMission 0
scalar OsgEarthNet.uav[84] utilizationCountIdleState 10
scalar OsgEarthNet.uav[84] utilizationFail 0
scalar OsgEarthNet.uav[84] simulationTime 259200
scalar OsgEarthNet.uav[85] utilizationSecMission 30221.719712592
scalar OsgEarthNet.uav[85] utilizationSecMaintenance 12319.707233204
scalar OsgEarthNet.uav[85] utilizationSecCharge 156460
scalar OsgEarthNet.uav[85] utilizationSecIdle 60198.572054204
scalar OsgEarthNet.uav[85] utilizationEnergyMission 140068.83648682
scalar OsgEarthNet.uav[85] utilizationEnergyMaintenance 56651.523059845
scalar OsgEarthNet.uav[85] utilizationEnergyCharge 196264.28808594
scalar OsgEarthNet.uav[85] utilizationEnergyOverdrawMission 0
scalar OsgEarthNet.uav[85] utilizationEnergyOverdrawMaintenance 0
scalar OsgEarthNet.uav[85] utilizationCountMissions 42
scalar OsgEarthNet.uav[85] utilizationCountManeuversMission 479
scalar OsgEarthNet.uav[85] utilizationCountManeuversMaintenance 84
scalar OsgEarthNet.uav[85] utilizationCountChargeState 42
scalar OsgEarthNet.uav[85] utilizationCountOverdrawnAfterMission 0
scalar OsgEarthNet.uav[85] utilizationCountIdleState 43
scalar OsgEarthNet.uav[85] utilizationFail 0
scalar OsgEarthNet.uav[85] simulationTime 259200
scalar OsgEarthNet.uav[86] utilizationSecMission 836.77707522227
scalar OsgEarthNet.uav[86] utilizationSecMaintenance 217.0347828456
scalar OsgEarthNet.uav[86] utilizationSecCharge 3900
scalar OsgEarthNet.uav[86] utilizationSecIdle 254246.18714193
scalar OsgEarthNet.uav[86] utilizationEnergyMission 3817.8083953857
scalar OsgEarthNet.uav[86] utilizationEnergyMaintenance 1130.8870353699
scalar OsgEarthNet.uav[86] utilizationEnergyCharge 4948.6967773438
scalar OsgEarthNet.uav[86] utilizationEnergyOverdrawMission 0
scalar OsgEarthNet.uav[86] utilizationEnergyOverdrawMaintenance 0
scalar OsgEarthNet.uav[86] utilizationCountMissions 1
scalar OsgEarthNet.uav[86] utilizationCountManeuversMission 13
scalar OsgEarthNet.uav[86] utilizationCountManeuversMaintenance 2
scalar OsgEarthNet.uav[86] utilizationCountChargeState 1
scalar OsgEarthNet.uav[86] utilizationCountOverdrawnAfterMission 0
scalar OsgEarthNet.uav[86] utilizationCountIdleState 2
scalar OsgEarthNet.uav[86] utilizationFail 0
scalar OsgEarthNet.uav[86] simulationTime 259200
scalar OsgEarthNet.uav[87] utilizationSecMission 15215.670896897
scalar OsgEarthNet.uav[87] utilizationSecMaintenance 7144.926476992
scalar OsgEarthNet.uav[87] utilizationSecCharge 82220
scalar OsgEarthNet.uav[87] utilizationSecIdle 154619.40162611
scalar OsgEarthNet.uav[87] utilizationEnergyMission 69984.036972209
scalar OsgEarthNet.uav[87] utilizationEnergyMaintenance 33816.191871643
scalar OsgEarthNet.uav[87] utilizationEnergyCharge 103145.02001953
scalar OsgEarthNet.uav[87] utilizationEnergyOverdrawMission 0
scalar OsgEarthNet.uav[87] utilizationEnergyOverdrawMaintenance 0
scalar OsgEarthNet.uav[87] utilizationCountMissions 22
scalar OsgEarthNet.uav[87] utilizationCountManeuversMission 258
scalar OsgEarthNet.uav[87] utilizationCountManeuversMaintenance 45
scalar OsgEarthNet.uav[87] utilizationCountChargeState 22
scalar OsgEarthNet.uav[87] utilizationCountOverdrawnAfterMission 0
scalar OsgEarthNet.uav[87] utilizationCountIdleState 23
scalar OsgEarthNet.uav[87] utilizationFail 0
scalar OsgEarthNet.uav[87] simulationTime 259200
scalar OsgEarthNet.uav[88] utilizationSecMission 32182.418388277
scalar OsgEarthNet.uav[88] utilizationSecMaintenance 12855.580611723
scalar OsgEarthNet.uav[88] utilizationSecCharge 164170
scalar OsgEarthNet.uav[88] utilizationSecIdle 49992
scalar OsgEarthNet.uav[88] utilizationEnergyMission 148260.24859166
scalar OsgEarthNet.uav[88] utilizationEnergyMaintenance 59855.752426147
scalar OsgEarthNet.uav[88] utilizationEnergyCharge 205839.59375
scalar OsgEarthNet.uav[88] utilizationEnergyOverdrawMission 0
scalar OsgEarthNet.uav[88] utilizationEnergyOverdrawMaintenance 0
scalar OsgEarthNet.uav[88] utilizationCountMissions 44
scalar OsgEarthNet.uav[88] utilizationCountManeuversMission 518
scalar OsgEarthNet.uav[88] utilizationCountManeuversMaintenance 88
scalar OsgEarthNet.uav[88] utilizationCountChargeState 44
scalar OsgEarthNet.uav[88] utilizationCountOverdrawnAfterMission 0
scalar OsgEarthNet.uav[88] utilizationCountIdleState 45
scalar OsgEarthNet.uav[88] utilizationFail 0
scalar OsgEarthNet.uav[88] simulationTime 259200
scalar OsgEarthNet.uav[89] utilizationSecMission 30668.447274543
scalar OsgEarthNet.uav[89] utilizationSecMaintenance 14877.452837039
scalar OsgEarthNet.uav[89] utilizationSecCharge 167582.09888842
scalar OsgEarthNet.uav[89] utilizationSecIdle 46072
scalar OsgEarthNet.uav[89] utilizationEnergyMission 141449.66496816
scalar OsgEarthNet.uav[89] utilizationEnergyMaintenance 69746.256343842
scalar OsgEarthNet.uav[89] utilizationEnergyCharge 210413.93115234
scalar OsgEarthNet.uav[89] utilizationEnergyOverdrawMission 0
scalar OsgEarthNet.uav[89] utilizationEnergyOverdrawMaintenance 0
scalar OsgEarthNet.uav[89] utilizationCountMissions 45
scalar OsgEarthNet.uav[89] utilizationCountManeuversMission 499
scalar OsgEarthNet.uav[89] utilizationCountManeuversMaintenance 89
scalar OsgEarthNet.uav[89] utilizationCountChargeState 45
scalar OsgEarthNet.uav[89] utilizationCountOverdrawnAfterMission 0
scalar OsgEarthNet.uav[89] utilizationCountIdleState 45
scalar OsgEarthNet.uav[89] utilizationFail 0
scalar OsgEarthNet.uav[89] simulationTime 259200
scalar OsgEarthNet.uav[90] utilizationSecMission 485.28176963209
scalar OsgEarthNet.uav[90] utilizationSecMaintenance 526.02367181267
scalar OsgEarthNet.uav[90] utilizationSecCharge 3860
scalar OsgEarthNet.uav[90] utilizationSecIdle 254328.69355856
scalar OsgEarthNet.uav[90] utilizationEnergyMission 2417.5964813232
scalar OsgEarthNet.uav[90] utilizationEnergyMaintenance 2397.2044906616
scalar OsgEarthNet.uav[90] utilizationEnergyCharge 4814.7993164062
scalar OsgEarthNet.uav[90] utilizationEnergyOverdrawMission 0
scalar OsgEarthNet.uav[90] utilizationEnergyOverdrawMaintenance 0
scalar OsgEarthNet.uav[90] utilizationCountMissions 1
scalar OsgEarthNet.uav[90] utilizationCountManeuversMission 8
scalar OsgEarthNet.uav[90] utilizationCountManeuversMaintenance 2
scalar OsgEarthNet.uav[90] utilizationCountChargeState 1
scalar OsgEarthNet.uav[90] utilizationCountOverdrawnAfterMission 0
scalar OsgEarthNet.uav[90] utilizationCountIdleState 2
scalar OsgEarthNet.uav[90] utilizationFail 0
scalar OsgEarthNet.uav[90] simulationTime 259200
scalar OsgEarthNet.uav[91] utilizationSecMission 25234.295658743
scalar OsgEarthNet.uav[91] utilizationSecMaintenance 14644.66687431
scalar OsgEarthNet.uav[91] utilizationSecCharge 149331.65246236
scalar OsgEarthNet.uav[91] utilizationSecIdle 69989.384004586
scalar OsgEarthNet.uav[91] utilizationEnergyMission 118346.14911652
scalar OsgEarthNet.uav[91] utilizationEnergyMaintenance 69157.726928711
scalar OsgEarthNet.uav[91] utilizationEnergyCharge 187314.04492188
scalar OsgEarthNet.uav[91] utilizationEnergyOverdrawMission 0
scalar OsgEarthNet.uav[91] utilizationEnergyOverdrawMaintenance 0
scalar OsgEarthNet.uav[91] utilizationCountMissions 40
scalar OsgEarthNet.uav[91] utilizationCountManeuversMission 440
scalar OsgEarthNet.uav[91] utilizationCountManeuversMaintenance 80
scalar OsgEarthNet.uav[91] utilizationCountChargeState 40
scalar OsgEarthNet.uav[91] utilizationCountOverdrawnAfterMission 0
scalar OsgEarthNet.uav[91] utilizationCountIdleState 40
scalar OsgEarthNet.uav[91] utilizationFail 0
scalar OsgEarthNet.uav[91] simulationTime 259200
scalar OsgEarthNet.uav[92] utilizationSecMission 766.82734763767
scalar OsgEarthNet.uav[92] utilizationSecMaintenance 306.92101052153
scalar OsgEarthNet.uav[92] utilizationSecCharge 3780
scalar OsgEarthNet.uav[92] utilizationSecIdle 254346.25064184
scalar OsgEarthNet.uav[92] utilizationEnergyMission 3367.8072357178
scalar OsgEarthNet.uav[92] utilizationEnergyMaintenance 1439.5799789429
scalar OsgEarthNet.uav[92] utilizationEnergyCharge 4782.7978515625
scalar OsgEarthNet.uav[92] utilizationEnergyOverdrawMission 0
scalar OsgEarthNet.uav[92] utilizationEnergyOverdrawMaintenance 0
scalar OsgEarthNet.uav[92] utilizationCountMissions 1
scalar OsgEarthNet.uav[92] utilizationCountManeuversMission 14
scalar OsgEarthNet.uav[92] utilizationCountManeuversMaintenance 2
scalar OsgEarthNet.uav[92] utilizationCountChargeState 1
scalar OsgEarthNet.uav[92] utilizationCountOverdrawnAfterMission 0
scalar OsgEarthNet.uav[92] utilizationCountIdleState 2
scalar OsgEarthNet.uav[92] utilizationFail 0
scalar OsgEarthNet.uav[92] simulationTime 259200
scalar OsgEarthNet.uav[93] utilizationSecMission 1832.2791086361
scalar OsgEarthNet.uav[93] utilizationSecMaintenance 1141.9241499595
scalar OsgEarthNet.uav[93] utilizationSecCharge 11220
scalar OsgEarthNet.uav[93] utilizationSecIdle 245005.7957414
scalar OsgEarthNet.uav[93] utilizationEnergyMission 8735.3754653931
scalar OsgEarthNet.uav[93] utilizationEnergyMaintenance 5344.1798553467
scalar OsgEarthNet.uav[93] utilizationEnergyCharge 14079.563964844
scalar OsgEarthNet.uav[93] utilizationEnergyOverdrawMission 0
scalar OsgEarthNet.uav[93] utilizationEnergyOverdrawMaintenance 0
scalar OsgEarthNet.uav[93] utilizationCountMissions 3
scalar OsgEarthNet.uav[93] utilizationCountManeuversMission 31
scalar OsgEarthNet.uav[93] utilizationCountManeuversMaintenance 6
scalar OsgEarthNet.uav[93] utilizationCountChargeState 3
scalar OsgEarthNet.uav[93] utilizationCountOverdrawnAfterMission 0
scalar OsgEarthNet.uav[93] utilizationCountIdleState 4
scalar OsgEarthNet.uav[93] utilizationFail 0
scalar OsgEarthNet.uav[93] simulationTime 259200
scalar OsgEarthNet.uav[94] utilizationSecMission 31473.100919617
scalar OsgEarthNet.uav[94] utilizationSecMaintenance 12764.063493643
scalar OsgEarthNet.uav[94] utilizationSecCharge 164020
scalar OsgEarthNet.uav[94] utilizationSecIdle 50942.83458674
scalar OsgEarthNet.uav[94] utilizationEnergyMission 145496.35306549
scalar OsgEarthNet.uav[94] utilizationEnergyMaintenance 60066.351924896
scalar OsgEarthNet.uav[94] utilizationEnergyCharge 205786.19555664
scalar OsgEarthNet.uav[94] utilizationEnergyOverdrawMission 0
scalar OsgEarthNet.uav[94] utilizationEnergyOverdrawMaintenance 0
scalar OsgEarthNet.uav[94] utilizationCountMissions 44
scalar OsgEarthNet.uav[94] utilizationCountManeuversMission 496
scalar OsgEarthNet.uav[94] utilizationCountManeuversMaintenance 88
scalar OsgEarthNet.uav[94] utilizationCountChargeState 44
scalar OsgEarthNet.uav[94] utilizationCountOverdrawnAfterMission 0
scalar OsgEarthNet.uav[94] utilizationCountIdleState 45
scalar OsgEarthNet.uav[94] utilizationFail 0
scalar OsgEarthNet.uav[94] simulationTime 259200
scalar OsgEarthNet.uav[95] utilizationSecMission 30163.910698475
scalar OsgEarthNet.uav[95] utilizationSecMaintenance 14270.059396243
scalar OsgEarthNet.uav[95] utilizationSecCharge 162928.57864125
scalar OsgEarthNet.uav[95] utilizationSecIdle 51837.450264031
scalar OsgEarthNet.uav[95] utilizationEnergyMission 140810.8731842
scalar OsgEarthNet.uav[95] utilizationEnergyMaintenance 66601.945781708
scalar OsgEarthNet.uav[95] utilizationEnergyCharge 205309.10522461
scalar OsgEarthNet.uav[95] utilizationEnergyOverdrawMission 0
scalar OsgEarthNet.uav[95] utilizationEnergyOverdrawMaintenance 0
scalar OsgEarthNet.uav[95] utilizationCountMissions 44
scalar OsgEarthNet.uav[95] utilizationCountManeuversMission 492
scalar OsgEarthNet.uav[95] utilizationCountManeuversMaintenance 88
scalar OsgEarthNet.uav[95] utilizationCountChargeState 44
scalar OsgEarthNet.uav[95] utilizationCountOverdrawnAfterMission 0
scalar OsgEarthNet.uav[95] utilizationCountIdleState 44
scalar OsgEarthNet.uav[95] utilizationFail 0
scalar OsgEarthNet.uav[95] simulationTime 259200
scalar OsgEarthNet.uav[96] utilizationSecMission 9808.6022949413
scalar OsgEarthNet.uav[96] utilizationSecMaintenance 6438.1671960265
scalar OsgEarthNet.uav[96] utilizationSecCharge 59810
scalar OsgEarthNet.uav[96] utilizationSecIdle 183143.22950903
scalar OsgEarthNet.uav[96] utilizationEnergyMission 44508.637268066
scalar OsgEarthNet.uav[96] utilizationEnergyMaintenance 30563.427684784
scalar OsgEarthNet.uav[96] utilizationEnergyCharge 75150.075683594
scalar OsgEarthNet.uav[96] utilizationEnergyOverdrawMission 0
scalar OsgEarthNet.uav[96] utilizationEnergyOverdrawMaintenance 0
scalar OsgEarthNet.uav[96] utilizationCountMissions 16
scalar OsgEarthNet.uav[96] utilizationCountManeuversMission 156
scalar OsgEarthNet.uav[96] utilizationCountManeuversMaintenance 32
scalar OsgEarthNet.uav[96] utilizationCountChargeState 16
scalar OsgEarthNet.uav[96] utilizationCountOverdrawnAfterMission 0
scalar OsgEarthNet.uav[96] utilizationCountIdleState 17
scalar OsgEarthNet.uav[96] utilizationFail 0
scalar OsgEarthNet.uav[96] simulationTime 259200
scalar OsgEarthNet.uav[97] utilizationSecMission 27735.357346006
scalar OsgEarthNet.uav[97] utilizationSecMaintenance 14777.019832274
scalar OsgEarthNet.uav[97] utilizationSecCharge 159060
scalar OsgEarthNet.uav[97] utilizationSecIdle 57627.621821719
scalar OsgEarthNet.uav[97] utilizationEnergyMission 129519.74750519
scalar OsgEarthNet.uav[97] utilizationEnergyMaintenance 69356.977523804
scalar OsgEarthNet.uav[97] utilizationEnergyCharge 198666.50683594
scalar OsgEarthNet.uav[97] utilizationEnergyOverdrawMission 0
scalar OsgEarthNet.uav[97] utilizationEnergyOverdrawMaintenance 0
scalar OsgEarthNet.uav[97] utilizationCountMissions 43
scalar OsgEarthNet.uav[97] utilizationCountManeuversMission 467
scalar OsgEarthNet.uav[97] utilizationCountManeuversMaintenance 86
scalar OsgEarthNet.uav[97] utilizationCountChargeState 43
scalar OsgEarthNet.uav[97] utilizationCountOverdrawnAfterMission 0
scalar OsgEarthNet.uav[97] utilizationCountIdleState 44
scalar OsgEarthNet.uav[97] utilizationFail 0
scalar OsgEarthNet.uav[97] simulationTime 259200
scalar OsgEarthNet.uav[98] utilizationSecMission 20333.794554516
scalar OsgEarthNet.uav[98] utilizationSecMaintenance 11557.211496562
scalar OsgEarthNet.uav[98] utilizationSecCharge 113749.53460083
scalar OsgEarthNet.uav[98] utilizationSecIdle 113559.45834809
scalar OsgEarthNet.uav[98] utilizationEnergyMission 94098.579391479
scalar OsgEarthNet.uav[98] utilizationEnergyMaintenance 53409.024917603
scalar OsgEarthNet.uav[98] utilizationEnergyCharge 143435.54443359
scalar OsgEarthNet.uav[98] utilizationEnergyOverdrawMission 0
scalar OsgEarthNet.uav[98] utilizationEnergyOverdrawMaintenance 0
scalar OsgEarthNet.uav[98] utilizationCountMissions 31
scalar OsgEarthNet.uav[98] utilizationCountManeuversMission 331
scalar OsgEarthNet.uav[98] utilizationCountManeuversMaintenance 62
scalar OsgEarthNet.uav[98] utilizationCountChargeState 31
scalar OsgEarthNet.uav[98] utilizationCountOverdrawnAfterMission 0
scalar OsgEarthNet.uav[98] utilizationCountIdleState 30
scalar OsgEarthNet.uav[98] utilizationFail 0
scalar OsgEarthNet.uav[98] simulationTime 259200
scalar OsgEarthNet.uav[99] utilizationSecMission 30872.610580094
scalar OsgEarthNet.uav[99] utilizationSecMaintenance 13165.739284907
scalar OsgEarthNet.uav[99] utilizationSecCharge 159688.39681342
scalar OsgEarthNet.uav[99] utilizationSecIdle 55473.252321579
scalar OsgEarthNet.uav[99] utilizationEnergyMission 141156.00830078
scalar OsgEarthNet.uav[99] utilizationEnergyMaintenance 61293.850009918
scalar OsgEarthNet.uav[99] utilizationEnergyCharge 201481.95800781
scalar OsgEarthNet.uav[99] utilizationEnergyOverdrawMission 0
scalar OsgEarthNet.uav[99] utilizationEnergyOverdrawMaintenance 0
scalar OsgEarthNet.uav[99] utilizationCountMissions 43
scalar OsgEarthNet.uav[99] utilizationCountManeuversMission 494
scalar OsgEarthNet.uav[99] utilizationCountManeuversMaintenance 86
scalar OsgEarthNet.uav[99] utilizationCountChargeState 43
scalar OsgEarthNet.uav[99] utilizationCountOverdrawnAfterMission 0
scalar OsgEarthNet.uav[99] utilizationCountIdleState 43
scalar OsgEarthNet.uav[99] utilizationFail 0
scalar OsgEarthNet.uav[99] simulationTime 259200
scalar OsgEarthNet.cs[0] usedPower 496288.28195051
scalar OsgEarthNet.cs[0] chargedPower 496288.28195051
scalar OsgEarthNet.cs[0] chargedMobileNodes 105
scalar OsgEarthNet.cs[0] reservations 107
scalar OsgEarthNet.cs[1] usedPower 1068508.488917
scalar OsgEarthNet.cs[1] chargedPower 1068508.488917
scalar OsgEarthNet.cs[1] chargedMobileNodes 227
scalar OsgEarthNet.cs[1] reservations 230
scalar OsgEarthNet.cs[2] usedPower 2591182.3272142
scalar OsgEarthNet.cs[2] chargedPower 2591182.3272142
scalar OsgEarthNet.cs[2] chargedMobileNodes 545
scalar OsgEarthNet.cs[2] reservations 554
scalar OsgEarthNet.cs[3] usedPower 806852.45880219
scalar OsgEarthNet.cs[3] chargedPower 806852.45880219
scalar OsgEarthNet.cs[3] chargedMobileNodes 172
scalar OsgEarthNet.cs[3] reservations 175
scalar OsgEarthNet.cs[4] usedPower 716851.12290457
scalar OsgEarthNet.cs[4] chargedPower 716851.12290457
scalar OsgEarthNet.cs[4] chargedMobileNodes 153
scalar OsgEarthNet.cs[4] reservations 156
scalar OsgEarthNet.cs[5] usedPower 502289.33482493
scalar OsgEarthNet.cs[5] chargedPower 502289.33482493
scalar OsgEarthNet.cs[5] chargedMobileNodes 106
scalar OsgEarthNet.cs[5] reservations 106
scalar OsgEarthNet.cs[6] usedPower 2518524.3387316
scalar OsgEarthNet.cs[6] chargedPower 2518524.3387316
scalar OsgEarthNet.cs[6] chargedMobileNodes 533
scalar OsgEarthNet.cs[6] reservations 543

