version 2
run Szenario_Hotel_Gabelbach-16-20180709-13:09:52-38108
attr configname Szenario_Hotel_Gabelbach
attr datetime 20180709-13:09:52
attr experiment Szenario_Hotel_Gabelbach
attr inifile omnetpp.ini
attr iterationvars "$replM=2, $biWeight=0.3"
attr iterationvarsf replM=2,biWeight=0.3-
attr measurement "$replM=2, $biWeight=0.3"
attr network OsgEarthNet
attr processid 38108
attr repetition 4
attr replication #4
attr resultdir results
attr runnumber 16
attr seedset 16
itervar biWeight 0.3
itervar replM 2
param *.osgEarthScene.scene "\"Szenario_Hotel_Gabelbach.earth\""
param *.playgroundLatitude 50.6830269
param *.playgroundLongitude 10.8538055
param *.playgroundWidth 3500m
param *.playgroundHeight 3500m
param *.numUAVs 100
param *.cs[0].posX 3537m
param *.cs[0].posY 965m
param *.cs[0].posZ 538m
param *.cs[1].posX 312m
param *.cs[1].posY 1262m
param *.cs[1].posZ 539m
param *.cs[2].posX 2185m
param *.cs[2].posY 3026m
param *.cs[2].posZ 777m
param *.cs[3].posX 10m
param *.cs[3].posY 2200m
param *.cs[3].posZ 560m
param *.cs[4].posX 750m
param *.cs[4].posY 200m
param *.cs[4].posZ 540m
param *.cs[5].posX 2450m
param *.cs[5].posY 180m
param *.cs[5].posZ 524m
param *.cs[6].posX 3140m
param *.cs[6].posY 1790m
param *.cs[6].posZ 606m
param *.numCSs 7
param *.uav[*].replacementMethod 2
param *.uav[*].weightedSumWeight 0.3
param *.*.timeStep 10s
param *.uav[*].commandPreviewCommandCount 20
param *.missionControl.missionFiles "\"missions\\\\Szenario_WB_Hotel_Gabelbach_Mission_Hotel.waypoints,missions\\\\Szenario_WB_Hotel_Gabelbach_Mission_Kickelhahn.waypoints,missions\\\\Szenario_WB_Hotel_Gabelbach_Mission_Ilmenau_Sportplatz.waypoints,missions\\\\Szenario_WB_Hotel_Gabelbach_Mission_Manebach_Mitte.waypoints,missions\\\\Szenario_WB_Hotel_Gabelbach_Mission_Manebach_Sued.waypoints\""
param *.missionControl.missionFiles "\"missions\\\\Szenario_WB_Hotel_Gabelbach_Mission_Hotel.waypoints,missions\\\\Szenario_WB_Hotel_Gabelbach_Mission_Kickelhahn.waypoints,missions\\\\Szenario_WB_Hotel_Gabelbach_Mission_Ilmenau_Sportplatz.waypoints,missions\\\\Szenario_WB_Hotel_Gabelbach_Mission_Manebach_Mitte.waypoints,missions\\\\Szenario_WB_Hotel_Gabelbach_Mission_Manebach_Sued.waypoints,missions\\\\Szenario_WB_Hotel_Gabelbach_Hover_HoheSchlaufe.waypoints,missions\\\\Szenario_WB_Hotel_Gabelbach_Hover_Kickelhahn.waypoints,missions\\\\Szenario_WB_Hotel_Gabelbach_Hover_Gabelbachskopf.waypoints,missions\\\\Szenario_WB_Hotel_Gabelbach_Hover_Dachskopf.waypoints\""
param *.uav[0].startX 3537m
param *.uav[0].startY 965m
param *.uav[0].startZ 539m
param *.uav[1].startX 312m
param *.uav[1].startY 1262m
param *.uav[1].startZ 540m
param *.uav[2].startX 2185m
param *.uav[2].startY 3026m
param *.uav[2].startZ 778m
param *.uav[3].startX 3537m
param *.uav[3].startY 965m
param *.uav[3].startZ 539m
param *.uav[4].startX 312m
param *.uav[4].startY 1262m
param *.uav[4].startZ 540m
param *.uav[5].startX 2185m
param *.uav[5].startY 3026m
param *.uav[5].startZ 778m
param *.uav[6].startX 3537m
param *.uav[6].startY 965m
param *.uav[6].startZ 539m
param *.uav[7].startX 312m
param *.uav[7].startY 1262m
param *.uav[7].startZ 540m
param *.uav[8].startX 2185m
param *.uav[8].startY 3026m
param *.uav[8].startZ 778m
param *.uav[9].startX 3537m
param *.uav[9].startY 965m
param *.uav[9].startZ 539m
param *.uav[10].startX 3537m
param *.uav[10].startY 965m
param *.uav[10].startZ 539m
param *.uav[11].startX 312m
param *.uav[11].startY 1262m
param *.uav[11].startZ 540m
param *.uav[12].startX 2185m
param *.uav[12].startY 3026m
param *.uav[12].startZ 778m
param *.uav[13].startX 3537m
param *.uav[13].startY 965m
param *.uav[13].startZ 539m
param *.uav[14].startX 312m
param *.uav[14].startY 1262m
param *.uav[14].startZ 540m
param *.uav[15].startX 2185m
param *.uav[15].startY 3026m
param *.uav[15].startZ 778m
param *.uav[16].startX 3537m
param *.uav[16].startY 965m
param *.uav[16].startZ 539m
param *.uav[17].startX 312m
param *.uav[17].startY 1262m
param *.uav[17].startZ 540m
param *.uav[18].startX 2185m
param *.uav[18].startY 3026m
param *.uav[18].startZ 778m
param *.uav[19].startX 3537m
param *.uav[19].startY 965m
param *.uav[19].startZ 539m
param *.uav[20].startX 3537m
param *.uav[20].startY 965m
param *.uav[20].startZ 539m
param *.uav[21].startX 312m
param *.uav[21].startY 1262m
param *.uav[21].startZ 540m
param *.uav[22].startX 2185m
param *.uav[22].startY 3026m
param *.uav[22].startZ 778m
param *.uav[23].startX 3537m
param *.uav[23].startY 965m
param *.uav[23].startZ 539m
param *.uav[24].startX 312m
param *.uav[24].startY 1262m
param *.uav[24].startZ 540m
param *.uav[25].startX 2185m
param *.uav[25].startY 3026m
param *.uav[25].startZ 778m
param *.uav[26].startX 3537m
param *.uav[26].startY 965m
param *.uav[26].startZ 539m
param *.uav[27].startX 312m
param *.uav[27].startY 1262m
param *.uav[27].startZ 540m
param *.uav[28].startX 2185m
param *.uav[28].startY 3026m
param *.uav[28].startZ 778m
param *.uav[29].startX 3537m
param *.uav[29].startY 965m
param *.uav[29].startZ 539m
param *.uav[30].startX 3537m
param *.uav[30].startY 965m
param *.uav[30].startZ 539m
param *.uav[31].startX 312m
param *.uav[31].startY 1262m
param *.uav[31].startZ 540m
param *.uav[32].startX 2185m
param *.uav[32].startY 3026m
param *.uav[32].startZ 778m
param *.uav[33].startX 3537m
param *.uav[33].startY 965m
param *.uav[33].startZ 539m
param *.uav[34].startX 312m
param *.uav[34].startY 1262m
param *.uav[34].startZ 540m
param *.uav[35].startX 2185m
param *.uav[35].startY 3026m
param *.uav[35].startZ 778m
param *.uav[36].startX 3537m
param *.uav[36].startY 965m
param *.uav[36].startZ 539m
param *.uav[37].startX 312m
param *.uav[37].startY 1262m
param *.uav[37].startZ 540m
param *.uav[38].startX 2185m
param *.uav[38].startY 3026m
param *.uav[38].startZ 778m
param *.uav[39].startX 3537m
param *.uav[39].startY 965m
param *.uav[39].startZ 539m
param *.uav[40].startX 3537m
param *.uav[40].startY 965m
param *.uav[40].startZ 539m
param *.uav[41].startX 312m
param *.uav[41].startY 1262m
param *.uav[41].startZ 540m
param *.uav[42].startX 2185m
param *.uav[42].startY 3026m
param *.uav[42].startZ 778m
param *.uav[43].startX 3537m
param *.uav[43].startY 965m
param *.uav[43].startZ 539m
param *.uav[44].startX 312m
param *.uav[44].startY 1262m
param *.uav[44].startZ 540m
param *.uav[45].startX 2185m
param *.uav[45].startY 3026m
param *.uav[45].startZ 778m
param *.uav[46].startX 3537m
param *.uav[46].startY 965m
param *.uav[46].startZ 539m
param *.uav[47].startX 312m
param *.uav[47].startY 1262m
param *.uav[47].startZ 540m
param *.uav[48].startX 2185m
param *.uav[48].startY 3026m
param *.uav[48].startZ 778m
param *.uav[49].startX 3537m
param *.uav[49].startY 965m
param *.uav[49].startZ 539m
param *.uav[50].startX 3537m
param *.uav[50].startY 965m
param *.uav[50].startZ 539m
param *.uav[51].startX 312m
param *.uav[51].startY 1262m
param *.uav[51].startZ 540m
param *.uav[52].startX 2185m
param *.uav[52].startY 3026m
param *.uav[52].startZ 778m
param *.uav[53].startX 3537m
param *.uav[53].startY 965m
param *.uav[53].startZ 539m
param *.uav[54].startX 312m
param *.uav[54].startY 1262m
param *.uav[54].startZ 540m
param *.uav[55].startX 2185m
param *.uav[55].startY 3026m
param *.uav[55].startZ 778m
param *.uav[56].startX 3537m
param *.uav[56].startY 965m
param *.uav[56].startZ 539m
param *.uav[57].startX 312m
param *.uav[57].startY 1262m
param *.uav[57].startZ 540m
param *.uav[58].startX 2185m
param *.uav[58].startY 3026m
param *.uav[58].startZ 778m
param *.uav[59].startX 3537m
param *.uav[59].startY 965m
param *.uav[59].startZ 539m
param *.uav[60].startX 3537m
param *.uav[60].startY 965m
param *.uav[60].startZ 539m
param *.uav[61].startX 312m
param *.uav[61].startY 1262m
param *.uav[61].startZ 540m
param *.uav[62].startX 2185m
param *.uav[62].startY 3026m
param *.uav[62].startZ 778m
param *.uav[63].startX 3537m
param *.uav[63].startY 965m
param *.uav[63].startZ 539m
param *.uav[64].startX 312m
param *.uav[64].startY 1262m
param *.uav[64].startZ 540m
param *.uav[65].startX 2185m
param *.uav[65].startY 3026m
param *.uav[65].startZ 778m
param *.uav[66].startX 3537m
param *.uav[66].startY 965m
param *.uav[66].startZ 539m
param *.uav[67].startX 312m
param *.uav[67].startY 1262m
param *.uav[67].startZ 540m
param *.uav[68].startX 2185m
param *.uav[68].startY 3026m
param *.uav[68].startZ 778m
param *.uav[69].startX 3537m
param *.uav[69].startY 965m
param *.uav[69].startZ 539m
param *.uav[70].startX 3537m
param *.uav[70].startY 965m
param *.uav[70].startZ 539m
param *.uav[71].startX 312m
param *.uav[71].startY 1262m
param *.uav[71].startZ 540m
param *.uav[72].startX 2185m
param *.uav[72].startY 3026m
param *.uav[72].startZ 778m
param *.uav[73].startX 3537m
param *.uav[73].startY 965m
param *.uav[73].startZ 539m
param *.uav[74].startX 312m
param *.uav[74].startY 1262m
param *.uav[74].startZ 540m
param *.uav[75].startX 2185m
param *.uav[75].startY 3026m
param *.uav[75].startZ 778m
param *.uav[76].startX 3537m
param *.uav[76].startY 965m
param *.uav[76].startZ 539m
param *.uav[77].startX 312m
param *.uav[77].startY 1262m
param *.uav[77].startZ 540m
param *.uav[78].startX 2185m
param *.uav[78].startY 3026m
param *.uav[78].startZ 778m
param *.uav[79].startX 3537m
param *.uav[79].startY 965m
param *.uav[79].startZ 539m
param *.uav[80].startX 3537m
param *.uav[80].startY 965m
param *.uav[80].startZ 539m
param *.uav[81].startX 312m
param *.uav[81].startY 1262m
param *.uav[81].startZ 540m
param *.uav[82].startX 2185m
param *.uav[82].startY 3026m
param *.uav[82].startZ 778m
param *.uav[83].startX 3537m
param *.uav[83].startY 965m
param *.uav[83].startZ 539m
param *.uav[84].startX 312m
param *.uav[84].startY 1262m
param *.uav[84].startZ 540m
param *.uav[85].startX 2185m
param *.uav[85].startY 3026m
param *.uav[85].startZ 778m
param *.uav[86].startX 3537m
param *.uav[86].startY 965m
param *.uav[86].startZ 539m
param *.uav[87].startX 312m
param *.uav[87].startY 1262m
param *.uav[87].startZ 540m
param *.uav[88].startX 2185m
param *.uav[88].startY 3026m
param *.uav[88].startZ 778m
param *.uav[89].startX 3537m
param *.uav[89].startY 965m
param *.uav[89].startZ 539m
param *.uav[90].startX 3537m
param *.uav[90].startY 965m
param *.uav[90].startZ 539m
param *.uav[91].startX 312m
param *.uav[91].startY 1262m
param *.uav[91].startZ 540m
param *.uav[92].startX 2185m
param *.uav[92].startY 3026m
param *.uav[92].startZ 778m
param *.uav[93].startX 3537m
param *.uav[93].startY 965m
param *.uav[93].startZ 539m
param *.uav[94].startX 312m
param *.uav[94].startY 1262m
param *.uav[94].startZ 540m
param *.uav[95].startX 2185m
param *.uav[95].startY 3026m
param *.uav[95].startZ 778m
param *.uav[96].startX 3537m
param *.uav[96].startY 965m
param *.uav[96].startZ 539m
param *.uav[97].startX 312m
param *.uav[97].startY 1262m
param *.uav[97].startZ 540m
param *.uav[98].startX 2185m
param *.uav[98].startY 3026m
param *.uav[98].startZ 778m
param *.uav[99].startX 3537m
param *.uav[99].startY 965m
param *.uav[99].startZ 539m
param *.osgEarthScene.scene "\"boston.earth\""
param *.playgroundLatitude 42.3558
param *.playgroundLongitude -71.0677
param *.playgroundWidth 400m
param *.playgroundHeight 200m
param *.channelController.connectionColor "\"#0000FF40\""
param *.channelController.showConnections false
param *.uav[*].modelURL "\"quadrocopter.small.obj.15.scale.0,0,90.rot\""
param *.uav[*].labelColor "\"#FF7C00CC\""
param *.uav[*].label2Color "\"#FF7C00EE\""
param *.uav[*].batteryCapacity 5200mAh
param *.uav[*].batteryRemaining uav[index].batteryCapacity
param *.uav[*].predictionQuantile 0.95
param *.uav[*].replacementMethod 2
param *.uav[*].weightedSumWeight 0.5
param *.cs[*].modelURL "\"chargingstation_v1.osgt.2.scale.0,0,0.rot.0,0,-15e-1.trans\""
param *.cs[*].spotsWaiting 999
param *.cs[*].spotsCharging 999
param *.cs[*].chargeEffectivenessPercentage 100
param *.cs[*].nonLinearPhaseStartPercentage 85
param *.cs[*].chargeCurrent 6.0A
param *.cs[*].prioritizeFastCharge true
param *.missionControl.replacementSearchMethod 0
param *.*.timeStep 9s

scalar OsgEarthNet.uav[0] utilizationSecMission 29482.735465728
scalar OsgEarthNet.uav[0] utilizationSecMaintenance 11961.716625014
scalar OsgEarthNet.uav[0] utilizationSecCharge 152450
scalar OsgEarthNet.uav[0] utilizationSecIdle 65305.546909258
scalar OsgEarthNet.uav[0] utilizationEnergyMission 135413.31915551
scalar OsgEarthNet.uav[0] utilizationEnergyMaintenance 55771.204971313
scalar OsgEarthNet.uav[0] utilizationEnergyCharge 187433.36889648
scalar OsgEarthNet.uav[0] utilizationEnergyOverdrawMission 0
scalar OsgEarthNet.uav[0] utilizationEnergyOverdrawMaintenance 0
scalar OsgEarthNet.uav[0] utilizationCountMissions 43
scalar OsgEarthNet.uav[0] utilizationCountManeuversMission 502
scalar OsgEarthNet.uav[0] utilizationCountManeuversMaintenance 87
scalar OsgEarthNet.uav[0] utilizationCountChargeState 43
scalar OsgEarthNet.uav[0] utilizationCountOverdrawnAfterMission 0
scalar OsgEarthNet.uav[0] utilizationCountIdleState 44
scalar OsgEarthNet.uav[0] utilizationFail 0
scalar OsgEarthNet.uav[0] simulationTime 259200
scalar OsgEarthNet.uav[1] utilizationSecMission 29505.855420115
scalar OsgEarthNet.uav[1] utilizationSecMaintenance 12884.252541628
scalar OsgEarthNet.uav[1] utilizationSecCharge 159357.89103826
scalar OsgEarthNet.uav[1] utilizationSecIdle 57452
scalar OsgEarthNet.uav[1] utilizationEnergyMission 137861.55796814
scalar OsgEarthNet.uav[1] utilizationEnergyMaintenance 60797.092765808
scalar OsgEarthNet.uav[1] utilizationEnergyCharge 196385.50170898
scalar OsgEarthNet.uav[1] utilizationEnergyOverdrawMission 0
scalar OsgEarthNet.uav[1] utilizationEnergyOverdrawMaintenance 0
scalar OsgEarthNet.uav[1] utilizationCountMissions 46
scalar OsgEarthNet.uav[1] utilizationCountManeuversMission 471
scalar OsgEarthNet.uav[1] utilizationCountManeuversMaintenance 91
scalar OsgEarthNet.uav[1] utilizationCountChargeState 46
scalar OsgEarthNet.uav[1] utilizationCountOverdrawnAfterMission 0
scalar OsgEarthNet.uav[1] utilizationCountIdleState 46
scalar OsgEarthNet.uav[1] utilizationFail 0
scalar OsgEarthNet.uav[1] simulationTime 259200
scalar OsgEarthNet.uav[2] utilizationSecMission 887.1741082606
scalar OsgEarthNet.uav[2] utilizationSecMaintenance 181.20511066264
scalar OsgEarthNet.uav[2] utilizationSecCharge 3910
scalar OsgEarthNet.uav[2] utilizationSecIdle 254221.61978108
scalar OsgEarthNet.uav[2] utilizationEnergyMission 4214.1532287598
scalar OsgEarthNet.uav[2] utilizationEnergyMaintenance 878.18949508667
scalar OsgEarthNet.uav[2] utilizationEnergyCharge 5026.5498046875
scalar OsgEarthNet.uav[2] utilizationEnergyOverdrawMission 0
scalar OsgEarthNet.uav[2] utilizationEnergyOverdrawMaintenance 0
scalar OsgEarthNet.uav[2] utilizationCountMissions 1
scalar OsgEarthNet.uav[2] utilizationCountManeuversMission 14
scalar OsgEarthNet.uav[2] utilizationCountManeuversMaintenance 2
scalar OsgEarthNet.uav[2] utilizationCountChargeState 1
scalar OsgEarthNet.uav[2] utilizationCountOverdrawnAfterMission 0
scalar OsgEarthNet.uav[2] utilizationCountIdleState 2
scalar OsgEarthNet.uav[2] utilizationFail 0
scalar OsgEarthNet.uav[2] simulationTime 259200
scalar OsgEarthNet.uav[3] utilizationSecMission 179.21601502944
scalar OsgEarthNet.uav[3] utilizationSecMaintenance 354.43405905663
scalar OsgEarthNet.uav[3] utilizationSecCharge 2490
scalar OsgEarthNet.uav[3] utilizationSecIdle 256176.34892591
scalar OsgEarthNet.uav[3] utilizationEnergyMission 751.39395141602
scalar OsgEarthNet.uav[3] utilizationEnergyMaintenance 1803.0762252808
scalar OsgEarthNet.uav[3] utilizationEnergyCharge 2554.4680175781
scalar OsgEarthNet.uav[3] utilizationEnergyOverdrawMission 0
scalar OsgEarthNet.uav[3] utilizationEnergyOverdrawMaintenance 0
scalar OsgEarthNet.uav[3] utilizationCountMissions 1
scalar OsgEarthNet.uav[3] utilizationCountManeuversMission 3
scalar OsgEarthNet.uav[3] utilizationCountManeuversMaintenance 2
scalar OsgEarthNet.uav[3] utilizationCountChargeState 1
scalar OsgEarthNet.uav[3] utilizationCountOverdrawnAfterMission 0
scalar OsgEarthNet.uav[3] utilizationCountIdleState 2
scalar OsgEarthNet.uav[3] utilizationFail 0
scalar OsgEarthNet.uav[3] simulationTime 259200
scalar OsgEarthNet.uav[4] utilizationSecMission 17819.276709443
scalar OsgEarthNet.uav[4] utilizationSecMaintenance 7245.5011830426
scalar OsgEarthNet.uav[4] utilizationSecCharge 92043.80130323
scalar OsgEarthNet.uav[4] utilizationSecIdle 142091.41980429
scalar OsgEarthNet.uav[4] utilizationEnergyMission 82843.449020386
scalar OsgEarthNet.uav[4] utilizationEnergyMaintenance 33674.971549988
scalar OsgEarthNet.uav[4] utilizationEnergyCharge 115180.94482422
scalar OsgEarthNet.uav[4] utilizationEnergyOverdrawMission 0
scalar OsgEarthNet.uav[4] utilizationEnergyOverdrawMaintenance 0
scalar OsgEarthNet.uav[4] utilizationCountMissions 26
scalar OsgEarthNet.uav[4] utilizationCountManeuversMission 295
scalar OsgEarthNet.uav[4] utilizationCountManeuversMaintenance 52
scalar OsgEarthNet.uav[4] utilizationCountChargeState 26
scalar OsgEarthNet.uav[4] utilizationCountOverdrawnAfterMission 0
scalar OsgEarthNet.uav[4] utilizationCountIdleState 26
scalar OsgEarthNet.uav[4] utilizationFail 0
scalar OsgEarthNet.uav[4] simulationTime 259200
scalar OsgEarthNet.uav[5] utilizationSecMission 1581.1758029604
scalar OsgEarthNet.uav[5] utilizationSecMaintenance 463.53759854507
scalar OsgEarthNet.uav[5] utilizationSecCharge 7340
scalar OsgEarthNet.uav[5] utilizationSecIdle 249815.28559849
scalar OsgEarthNet.uav[5] utilizationEnergyMission 7408.1077194214
scalar OsgEarthNet.uav[5] utilizationEnergyMaintenance 2167.2136878967
scalar OsgEarthNet.uav[5] utilizationEnergyCharge 9129.7143554688
scalar OsgEarthNet.uav[5] utilizationEnergyOverdrawMission 0
scalar OsgEarthNet.uav[5] utilizationEnergyOverdrawMaintenance 0
scalar OsgEarthNet.uav[5] utilizationCountMissions 2
scalar OsgEarthNet.uav[5] utilizationCountManeuversMission 27
scalar OsgEarthNet.uav[5] utilizationCountManeuversMaintenance 4
scalar OsgEarthNet.uav[5] utilizationCountChargeState 2
scalar OsgEarthNet.uav[5] utilizationCountOverdrawnAfterMission 0
scalar OsgEarthNet.uav[5] utilizationCountIdleState 3
scalar OsgEarthNet.uav[5] utilizationFail 0
scalar OsgEarthNet.uav[5] simulationTime 259200
scalar OsgEarthNet.uav[6] utilizationSecMission 25325.374121263
scalar OsgEarthNet.uav[6] utilizationSecMaintenance 11515.941681321
scalar OsgEarthNet.uav[6] utilizationSecCharge 138331.1136911
scalar OsgEarthNet.uav[6] utilizationSecIdle 84027.569506318
scalar OsgEarthNet.uav[6] utilizationEnergyMission 116245.09638214
scalar OsgEarthNet.uav[6] utilizationEnergyMaintenance 54329.093776703
scalar OsgEarthNet.uav[6] utilizationEnergyCharge 170122.36987305
scalar OsgEarthNet.uav[6] utilizationEnergyOverdrawMission 0
scalar OsgEarthNet.uav[6] utilizationEnergyOverdrawMaintenance 0
scalar OsgEarthNet.uav[6] utilizationCountMissions 40
scalar OsgEarthNet.uav[6] utilizationCountManeuversMission 405
scalar OsgEarthNet.uav[6] utilizationCountManeuversMaintenance 80
scalar OsgEarthNet.uav[6] utilizationCountChargeState 40
scalar OsgEarthNet.uav[6] utilizationCountOverdrawnAfterMission 0
scalar OsgEarthNet.uav[6] utilizationCountIdleState 40
scalar OsgEarthNet.uav[6] utilizationFail 0
scalar OsgEarthNet.uav[6] simulationTime 259200
scalar OsgEarthNet.uav[7] utilizationSecMission 29106.638433994
scalar OsgEarthNet.uav[7] utilizationSecMaintenance 12873.366558087
scalar OsgEarthNet.uav[7] utilizationSecCharge 160540
scalar OsgEarthNet.uav[7] utilizationSecIdle 56679.994007919
scalar OsgEarthNet.uav[7] utilizationEnergyMission 134180.66627121
scalar OsgEarthNet.uav[7] utilizationEnergyMaintenance 61392.784725189
scalar OsgEarthNet.uav[7] utilizationEnergyCharge 196058.62060547
scalar OsgEarthNet.uav[7] utilizationEnergyOverdrawMission 0
scalar OsgEarthNet.uav[7] utilizationEnergyOverdrawMaintenance 0
scalar OsgEarthNet.uav[7] utilizationCountMissions 46
scalar OsgEarthNet.uav[7] utilizationCountManeuversMission 470
scalar OsgEarthNet.uav[7] utilizationCountManeuversMaintenance 92
scalar OsgEarthNet.uav[7] utilizationCountChargeState 46
scalar OsgEarthNet.uav[7] utilizationCountOverdrawnAfterMission 0
scalar OsgEarthNet.uav[7] utilizationCountIdleState 47
scalar OsgEarthNet.uav[7] utilizationFail 0
scalar OsgEarthNet.uav[7] simulationTime 259200
scalar OsgEarthNet.uav[8] utilizationSecMission 694.00169469977
scalar OsgEarthNet.uav[8] utilizationSecMaintenance 338.49695459722
scalar OsgEarthNet.uav[8] utilizationSecCharge 3780
scalar OsgEarthNet.uav[8] utilizationSecIdle 254387.5003507
scalar OsgEarthNet.uav[8] utilizationEnergyMission 3239.940788269
scalar OsgEarthNet.uav[8] utilizationEnergyMaintenance 1522.4961662292
scalar OsgEarthNet.uav[8] utilizationEnergyCharge 4762.4389648438
scalar OsgEarthNet.uav[8] utilizationEnergyOverdrawMission 0
scalar OsgEarthNet.uav[8] utilizationEnergyOverdrawMaintenance 0
scalar OsgEarthNet.uav[8] utilizationCountMissions 1
scalar OsgEarthNet.uav[8] utilizationCountManeuversMission 13
scalar OsgEarthNet.uav[8] utilizationCountManeuversMaintenance 2
scalar OsgEarthNet.uav[8] utilizationCountChargeState 1
scalar OsgEarthNet.uav[8] utilizationCountOverdrawnAfterMission 0
scalar OsgEarthNet.uav[8] utilizationCountIdleState 2
scalar OsgEarthNet.uav[8] utilizationFail 0
scalar OsgEarthNet.uav[8] simulationTime 259200
scalar OsgEarthNet.uav[9] utilizationSecMission 29442.525867863
scalar OsgEarthNet.uav[9] utilizationSecMaintenance 12720.105186843
scalar OsgEarthNet.uav[9] utilizationSecCharge 154931.05074337
scalar OsgEarthNet.uav[9] utilizationSecIdle 62106.317201928
scalar OsgEarthNet.uav[9] utilizationEnergyMission 136548.92295837
scalar OsgEarthNet.uav[9] utilizationEnergyMaintenance 58936.98582077
scalar OsgEarthNet.uav[9] utilizationEnergyCharge 191603.79660034
scalar OsgEarthNet.uav[9] utilizationEnergyOverdrawMission 0
scalar OsgEarthNet.uav[9] utilizationEnergyOverdrawMaintenance 0
scalar OsgEarthNet.uav[9] utilizationCountMissions 44
scalar OsgEarthNet.uav[9] utilizationCountManeuversMission 479
scalar OsgEarthNet.uav[9] utilizationCountManeuversMaintenance 88
scalar OsgEarthNet.uav[9] utilizationCountChargeState 44
scalar OsgEarthNet.uav[9] utilizationCountOverdrawnAfterMission 0
scalar OsgEarthNet.uav[9] utilizationCountIdleState 44
scalar OsgEarthNet.uav[9] utilizationFail 0
scalar OsgEarthNet.uav[9] simulationTime 259200
scalar OsgEarthNet.uav[10] utilizationSecMission 760.62515258028
scalar OsgEarthNet.uav[10] utilizationSecMaintenance 291.95923480269
scalar OsgEarthNet.uav[10] utilizationSecCharge 3760
scalar OsgEarthNet.uav[10] utilizationSecIdle 254387.41461262
scalar OsgEarthNet.uav[10] utilizationEnergyMission 3371.8102722168
scalar OsgEarthNet.uav[10] utilizationEnergyMaintenance 1327.768119812
scalar OsgEarthNet.uav[10] utilizationEnergyCharge 4699.57421875
scalar OsgEarthNet.uav[10] utilizationEnergyOverdrawMission 0
scalar OsgEarthNet.uav[10] utilizationEnergyOverdrawMaintenance 0
scalar OsgEarthNet.uav[10] utilizationCountMissions 1
scalar OsgEarthNet.uav[10] utilizationCountManeuversMission 12
scalar OsgEarthNet.uav[10] utilizationCountManeuversMaintenance 2
scalar OsgEarthNet.uav[10] utilizationCountChargeState 1
scalar OsgEarthNet.uav[10] utilizationCountOverdrawnAfterMission 0
scalar OsgEarthNet.uav[10] utilizationCountIdleState 2
scalar OsgEarthNet.uav[10] utilizationFail 0
scalar OsgEarthNet.uav[10] simulationTime 259200
scalar OsgEarthNet.uav[11] utilizationSecMission 7192.5126520661
scalar OsgEarthNet.uav[11] utilizationSecMaintenance 2828.4955664664
scalar OsgEarthNet.uav[11] utilizationSecCharge 37280
scalar OsgEarthNet.uav[11] utilizationSecIdle 211898.99078147
scalar OsgEarthNet.uav[11] utilizationEnergyMission 33457.348854065
scalar OsgEarthNet.uav[11] utilizationEnergyMaintenance 13394.807102203
scalar OsgEarthNet.uav[11] utilizationEnergyCharge 46738.168457031
scalar OsgEarthNet.uav[11] utilizationEnergyOverdrawMission 0
scalar OsgEarthNet.uav[11] utilizationEnergyOverdrawMaintenance 0
scalar OsgEarthNet.uav[11] utilizationCountMissions 10
scalar OsgEarthNet.uav[11] utilizationCountManeuversMission 123
scalar OsgEarthNet.uav[11] utilizationCountManeuversMaintenance 20
scalar OsgEarthNet.uav[11] utilizationCountChargeState 10
scalar OsgEarthNet.uav[11] utilizationCountOverdrawnAfterMission 0
scalar OsgEarthNet.uav[11] utilizationCountIdleState 11
scalar OsgEarthNet.uav[11] utilizationFail 0
scalar OsgEarthNet.uav[11] simulationTime 259200
scalar OsgEarthNet.uav[12] utilizationSecMission 22578.308220403
scalar OsgEarthNet.uav[12] utilizationSecMaintenance 11347.200411147
scalar OsgEarthNet.uav[12] utilizationSecCharge 127558.03335785
scalar OsgEarthNet.uav[12] utilizationSecIdle 97716.457010602
scalar OsgEarthNet.uav[12] utilizationEnergyMission 104531.80726242
scalar OsgEarthNet.uav[12] utilizationEnergyMaintenance 52982.245174408
scalar OsgEarthNet.uav[12] utilizationEnergyCharge 157243.37719727
scalar OsgEarthNet.uav[12] utilizationEnergyOverdrawMission 0
scalar OsgEarthNet.uav[12] utilizationEnergyOverdrawMaintenance 0
scalar OsgEarthNet.uav[12] utilizationCountMissions 36
scalar OsgEarthNet.uav[12] utilizationCountManeuversMission 384
scalar OsgEarthNet.uav[12] utilizationCountManeuversMaintenance 72
scalar OsgEarthNet.uav[12] utilizationCountChargeState 36
scalar OsgEarthNet.uav[12] utilizationCountOverdrawnAfterMission 0
scalar OsgEarthNet.uav[12] utilizationCountIdleState 36
scalar OsgEarthNet.uav[12] utilizationFail 0
scalar OsgEarthNet.uav[12] simulationTime 259200
scalar OsgEarthNet.uav[13] utilizationSecMission 684.4732299383
scalar OsgEarthNet.uav[13] utilizationSecMaintenance 298.56834692969
scalar OsgEarthNet.uav[13] utilizationSecCharge 3680
scalar OsgEarthNet.uav[13] utilizationSecIdle 254536.95742313
scalar OsgEarthNet.uav[13] utilizationEnergyMission 3182.1350708008
scalar OsgEarthNet.uav[13] utilizationEnergyMaintenance 1464.4319992065
scalar OsgEarthNet.uav[13] utilizationEnergyCharge 4646.5615234375
scalar OsgEarthNet.uav[13] utilizationEnergyOverdrawMission 0
scalar OsgEarthNet.uav[13] utilizationEnergyOverdrawMaintenance 0
scalar OsgEarthNet.uav[13] utilizationCountMissions 1
scalar OsgEarthNet.uav[13] utilizationCountManeuversMission 11
scalar OsgEarthNet.uav[13] utilizationCountManeuversMaintenance 2
scalar OsgEarthNet.uav[13] utilizationCountChargeState 1
scalar OsgEarthNet.uav[13] utilizationCountOverdrawnAfterMission 0
scalar OsgEarthNet.uav[13] utilizationCountIdleState 2
scalar OsgEarthNet.uav[13] utilizationFail 0
scalar OsgEarthNet.uav[13] simulationTime 259200
scalar OsgEarthNet.uav[14] utilizationSecMission 29015.027260968
scalar OsgEarthNet.uav[14] utilizationSecMaintenance 12962.08718881
scalar OsgEarthNet.uav[14] utilizationSecCharge 155251.92056455
scalar OsgEarthNet.uav[14] utilizationSecIdle 61970.963985674
scalar OsgEarthNet.uav[14] utilizationEnergyMission 132546.35033417
scalar OsgEarthNet.uav[14] utilizationEnergyMaintenance 60711.061805725
scalar OsgEarthNet.uav[14] utilizationEnergyCharge 191032.03808594
scalar OsgEarthNet.uav[14] utilizationEnergyOverdrawMission 0
scalar OsgEarthNet.uav[14] utilizationEnergyOverdrawMaintenance 0
scalar OsgEarthNet.uav[14] utilizationCountMissions 45
scalar OsgEarthNet.uav[14] utilizationCountManeuversMission 475
scalar OsgEarthNet.uav[14] utilizationCountManeuversMaintenance 90
scalar OsgEarthNet.uav[14] utilizationCountChargeState 45
scalar OsgEarthNet.uav[14] utilizationCountOverdrawnAfterMission 0
scalar OsgEarthNet.uav[14] utilizationCountIdleState 45
scalar OsgEarthNet.uav[14] utilizationFail 0
scalar OsgEarthNet.uav[14] simulationTime 259200
scalar OsgEarthNet.uav[15] utilizationSecMission 17337.349834268
scalar OsgEarthNet.uav[15] utilizationSecMaintenance 7440.166867364
scalar OsgEarthNet.uav[15] utilizationSecCharge 93310
scalar OsgEarthNet.uav[15] utilizationSecIdle 141112.48229837
scalar OsgEarthNet.uav[15] utilizationEnergyMission 80098.595497131
scalar OsgEarthNet.uav[15] utilizationEnergyMaintenance 34805.310398102
scalar OsgEarthNet.uav[15] utilizationEnergyCharge 115180.23974609
scalar OsgEarthNet.uav[15] utilizationEnergyOverdrawMission 0
scalar OsgEarthNet.uav[15] utilizationEnergyOverdrawMaintenance 0
scalar OsgEarthNet.uav[15] utilizationCountMissions 26
scalar OsgEarthNet.uav[15] utilizationCountManeuversMission 276
scalar OsgEarthNet.uav[15] utilizationCountManeuversMaintenance 52
scalar OsgEarthNet.uav[15] utilizationCountChargeState 26
scalar OsgEarthNet.uav[15] utilizationCountOverdrawnAfterMission 0
scalar OsgEarthNet.uav[15] utilizationCountIdleState 27
scalar OsgEarthNet.uav[15] utilizationFail 0
scalar OsgEarthNet.uav[15] simulationTime 259200
scalar OsgEarthNet.uav[16] utilizationSecMission 750.20472747826
scalar OsgEarthNet.uav[16] utilizationSecMaintenance 261.68051383311
scalar OsgEarthNet.uav[16] utilizationSecCharge 3880
scalar OsgEarthNet.uav[16] utilizationSecIdle 254308.11375869
scalar OsgEarthNet.uav[16] utilizationEnergyMission 3521.5215454102
scalar OsgEarthNet.uav[16] utilizationEnergyMaintenance 1390.8995475769
scalar OsgEarthNet.uav[16] utilizationEnergyCharge 4912.41796875
scalar OsgEarthNet.uav[16] utilizationEnergyOverdrawMission 0
scalar OsgEarthNet.uav[16] utilizationEnergyOverdrawMaintenance 0
scalar OsgEarthNet.uav[16] utilizationCountMissions 1
scalar OsgEarthNet.uav[16] utilizationCountManeuversMission 11
scalar OsgEarthNet.uav[16] utilizationCountManeuversMaintenance 2
scalar OsgEarthNet.uav[16] utilizationCountChargeState 1
scalar OsgEarthNet.uav[16] utilizationCountOverdrawnAfterMission 0
scalar OsgEarthNet.uav[16] utilizationCountIdleState 2
scalar OsgEarthNet.uav[16] utilizationFail 0
scalar OsgEarthNet.uav[16] simulationTime 259200
scalar OsgEarthNet.uav[17] utilizationSecMission 25108.494554948
scalar OsgEarthNet.uav[17] utilizationSecMaintenance 11667.836267064
scalar OsgEarthNet.uav[17] utilizationSecCharge 137970
scalar OsgEarthNet.uav[17] utilizationSecIdle 84453.668177988
scalar OsgEarthNet.uav[17] utilizationEnergyMission 116141.31696439
scalar OsgEarthNet.uav[17] utilizationEnergyMaintenance 54964.885719299
scalar OsgEarthNet.uav[17] utilizationEnergyCharge 169570.53686523
scalar OsgEarthNet.uav[17] utilizationEnergyOverdrawMission 0
scalar OsgEarthNet.uav[17] utilizationEnergyOverdrawMaintenance 0
scalar OsgEarthNet.uav[17] utilizationCountMissions 39
scalar OsgEarthNet.uav[17] utilizationCountManeuversMission 413
scalar OsgEarthNet.uav[17] utilizationCountManeuversMaintenance 79
scalar OsgEarthNet.uav[17] utilizationCountChargeState 39
scalar OsgEarthNet.uav[17] utilizationCountOverdrawnAfterMission 0
scalar OsgEarthNet.uav[17] utilizationCountIdleState 40
scalar OsgEarthNet.uav[17] utilizationFail 0
scalar OsgEarthNet.uav[17] simulationTime 259200
scalar OsgEarthNet.uav[18] utilizationSecMission 750.20472747826
scalar OsgEarthNet.uav[18] utilizationSecMaintenance 218.84515192887
scalar OsgEarthNet.uav[18] utilizationSecCharge 3650
scalar OsgEarthNet.uav[18] utilizationSecIdle 254580.94912059
scalar OsgEarthNet.uav[18] utilizationEnergyMission 3565.3246459961
scalar OsgEarthNet.uav[18] utilizationEnergyMaintenance 969.23448944092
scalar OsgEarthNet.uav[18] utilizationEnergyCharge 4534.55859375
scalar OsgEarthNet.uav[18] utilizationEnergyOverdrawMission 0
scalar OsgEarthNet.uav[18] utilizationEnergyOverdrawMaintenance 0
scalar OsgEarthNet.uav[18] utilizationCountMissions 1
scalar OsgEarthNet.uav[18] utilizationCountManeuversMission 11
scalar OsgEarthNet.uav[18] utilizationCountManeuversMaintenance 2
scalar OsgEarthNet.uav[18] utilizationCountChargeState 1
scalar OsgEarthNet.uav[18] utilizationCountOverdrawnAfterMission 0
scalar OsgEarthNet.uav[18] utilizationCountIdleState 2
scalar OsgEarthNet.uav[18] utilizationFail 0
scalar OsgEarthNet.uav[18] simulationTime 259200
scalar OsgEarthNet.uav[19] utilizationSecMission 760.62515258028
scalar OsgEarthNet.uav[19] utilizationSecMaintenance 291.95923480269
scalar OsgEarthNet.uav[19] utilizationSecCharge 3750
scalar OsgEarthNet.uav[19] utilizationSecIdle 254397.41461262
scalar OsgEarthNet.uav[19] utilizationEnergyMission 3388.3498382568
scalar OsgEarthNet.uav[19] utilizationEnergyMaintenance 1306.8578414917
scalar OsgEarthNet.uav[19] utilizationEnergyCharge 4695.2124023438
scalar OsgEarthNet.uav[19] utilizationEnergyOverdrawMission 0
scalar OsgEarthNet.uav[19] utilizationEnergyOverdrawMaintenance 0
scalar OsgEarthNet.uav[19] utilizationCountMissions 1
scalar OsgEarthNet.uav[19] utilizationCountManeuversMission 12
scalar OsgEarthNet.uav[19] utilizationCountManeuversMaintenance 2
scalar OsgEarthNet.uav[19] utilizationCountChargeState 1
scalar OsgEarthNet.uav[19] utilizationCountOverdrawnAfterMission 0
scalar OsgEarthNet.uav[19] utilizationCountIdleState 2
scalar OsgEarthNet.uav[19] utilizationFail 0
scalar OsgEarthNet.uav[19] simulationTime 259200
scalar OsgEarthNet.uav[20] utilizationSecMission 27976.153506978
scalar OsgEarthNet.uav[20] utilizationSecMaintenance 11525.285530661
scalar OsgEarthNet.uav[20] utilizationSecCharge 147540
scalar OsgEarthNet.uav[20] utilizationSecIdle 72158.55996236
scalar OsgEarthNet.uav[20] utilizationEnergyMission 129502.96572113
scalar OsgEarthNet.uav[20] utilizationEnergyMaintenance 53855.344020844
scalar OsgEarthNet.uav[20] utilizationEnergyCharge 182661.0637207
scalar OsgEarthNet.uav[20] utilizationEnergyOverdrawMission 0
scalar OsgEarthNet.uav[20] utilizationEnergyOverdrawMaintenance 0
scalar OsgEarthNet.uav[20] utilizationCountMissions 41
scalar OsgEarthNet.uav[20] utilizationCountManeuversMission 457
scalar OsgEarthNet.uav[20] utilizationCountManeuversMaintenance 82
scalar OsgEarthNet.uav[20] utilizationCountChargeState 41
scalar OsgEarthNet.uav[20] utilizationCountOverdrawnAfterMission 0
scalar OsgEarthNet.uav[20] utilizationCountIdleState 42
scalar OsgEarthNet.uav[20] utilizationFail 0
scalar OsgEarthNet.uav[20] simulationTime 259200
scalar OsgEarthNet.uav[21] utilizationSecMission 566.77865696645
scalar OsgEarthNet.uav[21] utilizationSecMaintenance 435.68252551324
scalar OsgEarthNet.uav[21] utilizationSecCharge 3810
scalar OsgEarthNet.uav[21] utilizationSecIdle 254387.53781752
scalar OsgEarthNet.uav[21] utilizationEnergyMission 2822.2848358154
scalar OsgEarthNet.uav[21] utilizationEnergyMaintenance 2015.2619247437
scalar OsgEarthNet.uav[21] utilizationEnergyCharge 4837.55078125
scalar OsgEarthNet.uav[21] utilizationEnergyOverdrawMission 0
scalar OsgEarthNet.uav[21] utilizationEnergyOverdrawMaintenance 0
scalar OsgEarthNet.uav[21] utilizationCountMissions 1
scalar OsgEarthNet.uav[21] utilizationCountManeuversMission 10
scalar OsgEarthNet.uav[21] utilizationCountManeuversMaintenance 2
scalar OsgEarthNet.uav[21] utilizationCountChargeState 1
scalar OsgEarthNet.uav[21] utilizationCountOverdrawnAfterMission 0
scalar OsgEarthNet.uav[21] utilizationCountIdleState 2
scalar OsgEarthNet.uav[21] utilizationFail 0
scalar OsgEarthNet.uav[21] simulationTime 259200
scalar OsgEarthNet.uav[22] utilizationSecMission 28855.58670955
scalar OsgEarthNet.uav[22] utilizationSecMaintenance 11835.237180039
scalar OsgEarthNet.uav[22] utilizationSecCharge 151820
scalar OsgEarthNet.uav[22] utilizationSecIdle 66689.175110411
scalar OsgEarthNet.uav[22] utilizationEnergyMission 134748.93318176
scalar OsgEarthNet.uav[22] utilizationEnergyMaintenance 54735.11166461
scalar OsgEarthNet.uav[22] utilizationEnergyCharge 188283.85839844
scalar OsgEarthNet.uav[22] utilizationEnergyOverdrawMission 0
scalar OsgEarthNet.uav[22] utilizationEnergyOverdrawMaintenance 0
scalar OsgEarthNet.uav[22] utilizationCountMissions 42
scalar OsgEarthNet.uav[22] utilizationCountManeuversMission 473
scalar OsgEarthNet.uav[22] utilizationCountManeuversMaintenance 85
scalar OsgEarthNet.uav[22] utilizationCountChargeState 42
scalar OsgEarthNet.uav[22] utilizationCountOverdrawnAfterMission 0
scalar OsgEarthNet.uav[22] utilizationCountIdleState 43
scalar OsgEarthNet.uav[22] utilizationFail 0
scalar OsgEarthNet.uav[22] simulationTime 259200
scalar OsgEarthNet.uav[23] utilizationSecMission 836.77707522227
scalar OsgEarthNet.uav[23] utilizationSecMaintenance 217.0347828456
scalar OsgEarthNet.uav[23] utilizationSecCharge 3840
scalar OsgEarthNet.uav[23] utilizationSecIdle 254306.18714193
scalar OsgEarthNet.uav[23] utilizationEnergyMission 3780.9207763672
scalar OsgEarthNet.uav[23] utilizationEnergyMaintenance 1062.5782585144
scalar OsgEarthNet.uav[23] utilizationEnergyCharge 4843.4995117188
scalar OsgEarthNet.uav[23] utilizationEnergyOverdrawMission 0
scalar OsgEarthNet.uav[23] utilizationEnergyOverdrawMaintenance 0
scalar OsgEarthNet.uav[23] utilizationCountMissions 1
scalar OsgEarthNet.uav[23] utilizationCountManeuversMission 13
scalar OsgEarthNet.uav[23] utilizationCountManeuversMaintenance 2
scalar OsgEarthNet.uav[23] utilizationCountChargeState 1
scalar OsgEarthNet.uav[23] utilizationCountOverdrawnAfterMission 0
scalar OsgEarthNet.uav[23] utilizationCountIdleState 2
scalar OsgEarthNet.uav[23] utilizationFail 0
scalar OsgEarthNet.uav[23] simulationTime 259200
scalar OsgEarthNet.uav[24] utilizationSecMission 27734.86551921
scalar OsgEarthNet.uav[24] utilizationSecMaintenance 12505.730970355
scalar OsgEarthNet.uav[24] utilizationSecCharge 147772.0864286
scalar OsgEarthNet.uav[24] utilizationSecIdle 71187.316081831
scalar OsgEarthNet.uav[24] utilizationEnergyMission 127959.82241821
scalar OsgEarthNet.uav[24] utilizationEnergyMaintenance 58870.450061798
scalar OsgEarthNet.uav[24] utilizationEnergyCharge 183069.02331543
scalar OsgEarthNet.uav[24] utilizationEnergyOverdrawMission 0
scalar OsgEarthNet.uav[24] utilizationEnergyOverdrawMaintenance 0
scalar OsgEarthNet.uav[24] utilizationCountMissions 42
scalar OsgEarthNet.uav[24] utilizationCountManeuversMission 447
scalar OsgEarthNet.uav[24] utilizationCountManeuversMaintenance 84
scalar OsgEarthNet.uav[24] utilizationCountChargeState 42
scalar OsgEarthNet.uav[24] utilizationCountOverdrawnAfterMission 0
scalar OsgEarthNet.uav[24] utilizationCountIdleState 42
scalar OsgEarthNet.uav[24] utilizationFail 0
scalar OsgEarthNet.uav[24] simulationTime 259200
scalar OsgEarthNet.uav[25] utilizationSecMission 8440.8054037609
scalar OsgEarthNet.uav[25] utilizationSecMaintenance 3426.5688099714
scalar OsgEarthNet.uav[25] utilizationSecCharge 44290
scalar OsgEarthNet.uav[25] utilizationSecIdle 203042.62478627
scalar OsgEarthNet.uav[25] utilizationEnergyMission 39471.95753479
scalar OsgEarthNet.uav[25] utilizationEnergyMaintenance 15848.702831268
scalar OsgEarthNet.uav[25] utilizationEnergyCharge 55392.461669922
scalar OsgEarthNet.uav[25] utilizationEnergyOverdrawMission 0
scalar OsgEarthNet.uav[25] utilizationEnergyOverdrawMaintenance 0
scalar OsgEarthNet.uav[25] utilizationCountMissions 12
scalar OsgEarthNet.uav[25] utilizationCountManeuversMission 137
scalar OsgEarthNet.uav[25] utilizationCountManeuversMaintenance 24
scalar OsgEarthNet.uav[25] utilizationCountChargeState 12
scalar OsgEarthNet.uav[25] utilizationCountOverdrawnAfterMission 0
scalar OsgEarthNet.uav[25] utilizationCountIdleState 13
scalar OsgEarthNet.uav[25] utilizationFail 0
scalar OsgEarthNet.uav[25] simulationTime 259200
scalar OsgEarthNet.uav[26] utilizationSecMission 684.4732299383
scalar OsgEarthNet.uav[26] utilizationSecMaintenance 298.56834692969
scalar OsgEarthNet.uav[26] utilizationSecCharge 3740
scalar OsgEarthNet.uav[26] utilizationSecIdle 254476.95742313
scalar OsgEarthNet.uav[26] utilizationEnergyMission 3304.1075134277
scalar OsgEarthNet.uav[26] utilizationEnergyMaintenance 1365.583152771
scalar OsgEarthNet.uav[26] utilizationEnergyCharge 4669.693359375
scalar OsgEarthNet.uav[26] utilizationEnergyOverdrawMission 0
scalar OsgEarthNet.uav[26] utilizationEnergyOverdrawMaintenance 0
scalar OsgEarthNet.uav[26] utilizationCountMissions 1
scalar OsgEarthNet.uav[26] utilizationCountManeuversMission 11
scalar OsgEarthNet.uav[26] utilizationCountManeuversMaintenance 2
scalar OsgEarthNet.uav[26] utilizationCountChargeState 1
scalar OsgEarthNet.uav[26] utilizationCountOverdrawnAfterMission 0
scalar OsgEarthNet.uav[26] utilizationCountIdleState 2
scalar OsgEarthNet.uav[26] utilizationFail 0
scalar OsgEarthNet.uav[26] simulationTime 259200
scalar OsgEarthNet.uav[27] utilizationSecMission 20216.252991161
scalar OsgEarthNet.uav[27] utilizationSecMaintenance 9446.3289062643
scalar OsgEarthNet.uav[27] utilizationSecCharge 110930
scalar OsgEarthNet.uav[27] utilizationSecIdle 118607.41710257
scalar OsgEarthNet.uav[27] utilizationEnergyMission 92998.333488464
scalar OsgEarthNet.uav[27] utilizationEnergyMaintenance 44887.261962435
scalar OsgEarthNet.uav[27] utilizationEnergyCharge 137126.32250977
scalar OsgEarthNet.uav[27] utilizationEnergyOverdrawMission 0
scalar OsgEarthNet.uav[27] utilizationEnergyOverdrawMaintenance 0
scalar OsgEarthNet.uav[27] utilizationCountMissions 31
scalar OsgEarthNet.uav[27] utilizationCountManeuversMission 329
scalar OsgEarthNet.uav[27] utilizationCountManeuversMaintenance 63
scalar OsgEarthNet.uav[27] utilizationCountChargeState 31
scalar OsgEarthNet.uav[27] utilizationCountOverdrawnAfterMission 0
scalar OsgEarthNet.uav[27] utilizationCountIdleState 32
scalar OsgEarthNet.uav[27] utilizationFail 0
scalar OsgEarthNet.uav[27] simulationTime 259200
scalar OsgEarthNet.uav[28] utilizationSecMission 22329.847252657
scalar OsgEarthNet.uav[28] utilizationSecMaintenance 10091.64772413
scalar OsgEarthNet.uav[28] utilizationSecCharge 122070
scalar OsgEarthNet.uav[28] utilizationSecIdle 104708.50402321
scalar OsgEarthNet.uav[28] utilizationEnergyMission 103943.31201172
scalar OsgEarthNet.uav[28] utilizationEnergyMaintenance 47103.351982117
scalar OsgEarthNet.uav[28] utilizationEnergyCharge 150979.44677734
scalar OsgEarthNet.uav[28] utilizationEnergyOverdrawMission 0
scalar OsgEarthNet.uav[28] utilizationEnergyOverdrawMaintenance 0
scalar OsgEarthNet.uav[28] utilizationCountMissions 34
scalar OsgEarthNet.uav[28] utilizationCountManeuversMission 370
scalar OsgEarthNet.uav[28] utilizationCountManeuversMaintenance 68
scalar OsgEarthNet.uav[28] utilizationCountChargeState 34
scalar OsgEarthNet.uav[28] utilizationCountOverdrawnAfterMission 0
scalar OsgEarthNet.uav[28] utilizationCountIdleState 35
scalar OsgEarthNet.uav[28] utilizationFail 0
scalar OsgEarthNet.uav[28] simulationTime 259200
scalar OsgEarthNet.uav[29] utilizationSecMission 29356.819500974
scalar OsgEarthNet.uav[29] utilizationSecMaintenance 10575.053143219
scalar OsgEarthNet.uav[29] utilizationSecCharge 148916.5963659
scalar OsgEarthNet.uav[29] utilizationSecIdle 70351.529989909
scalar OsgEarthNet.uav[29] utilizationEnergyMission 135300.46923828
scalar OsgEarthNet.uav[29] utilizationEnergyMaintenance 49792.708423615
scalar OsgEarthNet.uav[29] utilizationEnergyCharge 185102.08081055
scalar OsgEarthNet.uav[29] utilizationEnergyOverdrawMission 0
scalar OsgEarthNet.uav[29] utilizationEnergyOverdrawMaintenance 0
scalar OsgEarthNet.uav[29] utilizationCountMissions 42
scalar OsgEarthNet.uav[29] utilizationCountManeuversMission 465
scalar OsgEarthNet.uav[29] utilizationCountManeuversMaintenance 84
scalar OsgEarthNet.uav[29] utilizationCountChargeState 42
scalar OsgEarthNet.uav[29] utilizationCountOverdrawnAfterMission 0
scalar OsgEarthNet.uav[29] utilizationCountIdleState 42
scalar OsgEarthNet.uav[29] utilizationFail 0
scalar OsgEarthNet.uav[29] simulationTime 259200
scalar OsgEarthNet.uav[30] utilizationSecMission 179.21601502944
scalar OsgEarthNet.uav[30] utilizationSecMaintenance 354.43405905663
scalar OsgEarthNet.uav[30] utilizationSecCharge 2420
scalar OsgEarthNet.uav[30] utilizationSecIdle 256246.34892591
scalar OsgEarthNet.uav[30] utilizationEnergyMission 765.12448120117
scalar OsgEarthNet.uav[30] utilizationEnergyMaintenance 1647.0967330933
scalar OsgEarthNet.uav[30] utilizationEnergyCharge 2412.2236328125
scalar OsgEarthNet.uav[30] utilizationEnergyOverdrawMission 0
scalar OsgEarthNet.uav[30] utilizationEnergyOverdrawMaintenance 0
scalar OsgEarthNet.uav[30] utilizationCountMissions 1
scalar OsgEarthNet.uav[30] utilizationCountManeuversMission 3
scalar OsgEarthNet.uav[30] utilizationCountManeuversMaintenance 2
scalar OsgEarthNet.uav[30] utilizationCountChargeState 1
scalar OsgEarthNet.uav[30] utilizationCountOverdrawnAfterMission 0
scalar OsgEarthNet.uav[30] utilizationCountIdleState 2
scalar OsgEarthNet.uav[30] utilizationFail 0
scalar OsgEarthNet.uav[30] simulationTime 259200
scalar OsgEarthNet.uav[31] utilizationSecMission 26387.318822082
scalar OsgEarthNet.uav[31] utilizationSecMaintenance 10780.839822961
scalar OsgEarthNet.uav[31] utilizationSecCharge 136110.78255976
scalar OsgEarthNet.uav[31] utilizationSecIdle 85921.057795193
scalar OsgEarthNet.uav[31] utilizationEnergyMission 120760.95204926
scalar OsgEarthNet.uav[31] utilizationEnergyMaintenance 50216.502670288
scalar OsgEarthNet.uav[31] utilizationEnergyCharge 169746.89770508
scalar OsgEarthNet.uav[31] utilizationEnergyOverdrawMission 0
scalar OsgEarthNet.uav[31] utilizationEnergyOverdrawMaintenance 0
scalar OsgEarthNet.uav[31] utilizationCountMissions 38
scalar OsgEarthNet.uav[31] utilizationCountManeuversMission 432
scalar OsgEarthNet.uav[31] utilizationCountManeuversMaintenance 76
scalar OsgEarthNet.uav[31] utilizationCountChargeState 38
scalar OsgEarthNet.uav[31] utilizationCountOverdrawnAfterMission 0
scalar OsgEarthNet.uav[31] utilizationCountIdleState 38
scalar OsgEarthNet.uav[31] utilizationFail 0
scalar OsgEarthNet.uav[31] simulationTime 259200
scalar OsgEarthNet.uav[32] utilizationSecMission 31053.815841988
scalar OsgEarthNet.uav[32] utilizationSecMaintenance 11467.286782869
scalar OsgEarthNet.uav[32] utilizationSecCharge 156400
scalar OsgEarthNet.uav[32] utilizationSecIdle 60278.896375144
scalar OsgEarthNet.uav[32] utilizationEnergyMission 142786.58619286
scalar OsgEarthNet.uav[32] utilizationEnergyMaintenance 52862.006843567
scalar OsgEarthNet.uav[32] utilizationEnergyCharge 192680.9777832
scalar OsgEarthNet.uav[32] utilizationEnergyOverdrawMission 0
scalar OsgEarthNet.uav[32] utilizationEnergyOverdrawMaintenance 0
scalar OsgEarthNet.uav[32] utilizationCountMissions 44
scalar OsgEarthNet.uav[32] utilizationCountManeuversMission 500
scalar OsgEarthNet.uav[32] utilizationCountManeuversMaintenance 89
scalar OsgEarthNet.uav[32] utilizationCountChargeState 44
scalar OsgEarthNet.uav[32] utilizationCountOverdrawnAfterMission 0
scalar OsgEarthNet.uav[32] utilizationCountIdleState 45
scalar OsgEarthNet.uav[32] utilizationFail 0
scalar OsgEarthNet.uav[32] simulationTime 259200
scalar OsgEarthNet.uav[33] utilizationSecMission 836.77707522227
scalar OsgEarthNet.uav[33] utilizationSecMaintenance 217.0347828456
scalar OsgEarthNet.uav[33] utilizationSecCharge 3840
scalar OsgEarthNet.uav[33] utilizationSecIdle 254306.18714193
scalar OsgEarthNet.uav[33] utilizationEnergyMission 3991.9911804199
scalar OsgEarthNet.uav[33] utilizationEnergyMaintenance 976.11176681519
scalar OsgEarthNet.uav[33] utilizationEnergyCharge 4968.103515625
scalar OsgEarthNet.uav[33] utilizationEnergyOverdrawMission 0
scalar OsgEarthNet.uav[33] utilizationEnergyOverdrawMaintenance 0
scalar OsgEarthNet.uav[33] utilizationCountMissions 1
scalar OsgEarthNet.uav[33] utilizationCountManeuversMission 13
scalar OsgEarthNet.uav[33] utilizationCountManeuversMaintenance 2
scalar OsgEarthNet.uav[33] utilizationCountChargeState 1
scalar OsgEarthNet.uav[33] utilizationCountOverdrawnAfterMission 0
scalar OsgEarthNet.uav[33] utilizationCountIdleState 2
scalar OsgEarthNet.uav[33] utilizationFail 0
scalar OsgEarthNet.uav[33] simulationTime 259200
scalar OsgEarthNet.uav[34] utilizationSecMission 12386.174752587
scalar OsgEarthNet.uav[34] utilizationSecMaintenance 6184.8873966008
scalar OsgEarthNet.uav[34] utilizationSecCharge 70182.717806143
scalar OsgEarthNet.uav[34] utilizationSecIdle 170446.21904467
scalar OsgEarthNet.uav[34] utilizationEnergyMission 56455.586753845
scalar OsgEarthNet.uav[34] utilizationEnergyMaintenance 29525.13205719
scalar OsgEarthNet.uav[34] utilizationEnergyCharge 85683.667480469
scalar OsgEarthNet.uav[34] utilizationEnergyOverdrawMission 0
scalar OsgEarthNet.uav[34] utilizationEnergyOverdrawMaintenance 0
scalar OsgEarthNet.uav[34] utilizationCountMissions 21
scalar OsgEarthNet.uav[34] utilizationCountManeuversMission 208
scalar OsgEarthNet.uav[34] utilizationCountManeuversMaintenance 42
scalar OsgEarthNet.uav[34] utilizationCountChargeState 21
scalar OsgEarthNet.uav[34] utilizationCountOverdrawnAfterMission 0
scalar OsgEarthNet.uav[34] utilizationCountIdleState 21
scalar OsgEarthNet.uav[34] utilizationFail 0
scalar OsgEarthNet.uav[34] simulationTime 259200
scalar OsgEarthNet.uav[35] utilizationSecMission 887.1741082606
scalar OsgEarthNet.uav[35] utilizationSecMaintenance 171.13387461676
scalar OsgEarthNet.uav[35] utilizationSecCharge 3890
scalar OsgEarthNet.uav[35] utilizationSecIdle 254251.69101712
scalar OsgEarthNet.uav[35] utilizationEnergyMission 4065.1721801758
scalar OsgEarthNet.uav[35] utilizationEnergyMaintenance 793.58434295654
scalar OsgEarthNet.uav[35] utilizationEnergyCharge 4945.5083007812
scalar OsgEarthNet.uav[35] utilizationEnergyOverdrawMission 0
scalar OsgEarthNet.uav[35] utilizationEnergyOverdrawMaintenance 0
scalar OsgEarthNet.uav[35] utilizationCountMissions 1
scalar OsgEarthNet.uav[35] utilizationCountManeuversMission 14
scalar OsgEarthNet.uav[35] utilizationCountManeuversMaintenance 2
scalar OsgEarthNet.uav[35] utilizationCountChargeState 1
scalar OsgEarthNet.uav[35] utilizationCountOverdrawnAfterMission 0
scalar OsgEarthNet.uav[35] utilizationCountIdleState 2
scalar OsgEarthNet.uav[35] utilizationFail 0
scalar OsgEarthNet.uav[35] simulationTime 259200
scalar OsgEarthNet.uav[36] utilizationSecMission 836.77707522227
scalar OsgEarthNet.uav[36] utilizationSecMaintenance 217.0347828456
scalar OsgEarthNet.uav[36] utilizationSecCharge 3790
scalar OsgEarthNet.uav[36] utilizationSecIdle 254356.18714193
scalar OsgEarthNet.uav[36] utilizationEnergyMission 3769.0463409424
scalar OsgEarthNet.uav[36] utilizationEnergyMaintenance 1052.979259491
scalar OsgEarthNet.uav[36] utilizationEnergyCharge 4822.02734375
scalar OsgEarthNet.uav[36] utilizationEnergyOverdrawMission 0
scalar OsgEarthNet.uav[36] utilizationEnergyOverdrawMaintenance 0
scalar OsgEarthNet.uav[36] utilizationCountMissions 1
scalar OsgEarthNet.uav[36] utilizationCountManeuversMission 13
scalar OsgEarthNet.uav[36] utilizationCountManeuversMaintenance 2
scalar OsgEarthNet.uav[36] utilizationCountChargeState 1
scalar OsgEarthNet.uav[36] utilizationCountOverdrawnAfterMission 0
scalar OsgEarthNet.uav[36] utilizationCountIdleState 2
scalar OsgEarthNet.uav[36] utilizationFail 0
scalar OsgEarthNet.uav[36] simulationTime 259200
scalar OsgEarthNet.uav[37] utilizationSecMission 25163.480285641
scalar OsgEarthNet.uav[37] utilizationSecMaintenance 11939.077848358
scalar OsgEarthNet.uav[37] utilizationSecCharge 142252.73516697
scalar OsgEarthNet.uav[37] utilizationSecIdle 79844.705699036
scalar OsgEarthNet.uav[37] utilizationEnergyMission 117646.22879791
scalar OsgEarthNet.uav[37] utilizationEnergyMaintenance 56097.263175964
scalar OsgEarthNet.uav[37] utilizationEnergyCharge 173867.17114258
scalar OsgEarthNet.uav[37] utilizationEnergyOverdrawMission 0
scalar OsgEarthNet.uav[37] utilizationEnergyOverdrawMaintenance 0
scalar OsgEarthNet.uav[37] utilizationCountMissions 41
scalar OsgEarthNet.uav[37] utilizationCountManeuversMission 411
scalar OsgEarthNet.uav[37] utilizationCountManeuversMaintenance 82
scalar OsgEarthNet.uav[37] utilizationCountChargeState 41
scalar OsgEarthNet.uav[37] utilizationCountOverdrawnAfterMission 0
scalar OsgEarthNet.uav[37] utilizationCountIdleState 41
scalar OsgEarthNet.uav[37] utilizationFail 0
scalar OsgEarthNet.uav[37] simulationTime 259200
scalar OsgEarthNet.uav[38] utilizationSecMission 30209.048341504
scalar OsgEarthNet.uav[38] utilizationSecMaintenance 13189.954009641
scalar OsgEarthNet.uav[38] utilizationSecCharge 164020
scalar OsgEarthNet.uav[38] utilizationSecIdle 51780.996648855
scalar OsgEarthNet.uav[38] utilizationEnergyMission 139784.69652671
scalar OsgEarthNet.uav[38] utilizationEnergyMaintenance 62460.200180054
scalar OsgEarthNet.uav[38] utilizationEnergyCharge 202165.80200195
scalar OsgEarthNet.uav[38] utilizationEnergyOverdrawMission 0
scalar OsgEarthNet.uav[38] utilizationEnergyOverdrawMaintenance 0
scalar OsgEarthNet.uav[38] utilizationCountMissions 46
scalar OsgEarthNet.uav[38] utilizationCountManeuversMission 494
scalar OsgEarthNet.uav[38] utilizationCountManeuversMaintenance 91
scalar OsgEarthNet.uav[38] utilizationCountChargeState 46
scalar OsgEarthNet.uav[38] utilizationCountOverdrawnAfterMission 0
scalar OsgEarthNet.uav[38] utilizationCountIdleState 47
scalar OsgEarthNet.uav[38] utilizationFail 0
scalar OsgEarthNet.uav[38] simulationTime 259200
scalar OsgEarthNet.uav[39] utilizationSecMission 684.4732299383
scalar OsgEarthNet.uav[39] utilizationSecMaintenance 298.56834692969
scalar OsgEarthNet.uav[39] utilizationSecCharge 3740
scalar OsgEarthNet.uav[39] utilizationSecIdle 254476.95742313
scalar OsgEarthNet.uav[39] utilizationEnergyMission 3312.0116577148
scalar OsgEarthNet.uav[39] utilizationEnergyMaintenance 1409.1430892944
scalar OsgEarthNet.uav[39] utilizationEnergyCharge 4721.1528320312
scalar OsgEarthNet.uav[39] utilizationEnergyOverdrawMission 0
scalar OsgEarthNet.uav[39] utilizationEnergyOverdrawMaintenance 0
scalar OsgEarthNet.uav[39] utilizationCountMissions 1
scalar OsgEarthNet.uav[39] utilizationCountManeuversMission 11
scalar OsgEarthNet.uav[39] utilizationCountManeuversMaintenance 2
scalar OsgEarthNet.uav[39] utilizationCountChargeState 1
scalar OsgEarthNet.uav[39] utilizationCountOverdrawnAfterMission 0
scalar OsgEarthNet.uav[39] utilizationCountIdleState 2
scalar OsgEarthNet.uav[39] utilizationFail 0
scalar OsgEarthNet.uav[39] simulationTime 259200
scalar OsgEarthNet.uav[40] utilizationSecMission 17302.155567572
scalar OsgEarthNet.uav[40] utilizationSecMaintenance 8680.7135532157
scalar OsgEarthNet.uav[40] utilizationSecCharge 98108.452182905
scalar OsgEarthNet.uav[40] utilizationSecIdle 135108.67769631
scalar OsgEarthNet.uav[40] utilizationEnergyMission 81796.141349792
scalar OsgEarthNet.uav[40] utilizationEnergyMaintenance 41457.187652588
scalar OsgEarthNet.uav[40] utilizationEnergyCharge 121935.82226562
scalar OsgEarthNet.uav[40] utilizationEnergyOverdrawMission 0
scalar OsgEarthNet.uav[40] utilizationEnergyOverdrawMaintenance 0
scalar OsgEarthNet.uav[40] utilizationCountMissions 28
scalar OsgEarthNet.uav[40] utilizationCountManeuversMission 285
scalar OsgEarthNet.uav[40] utilizationCountManeuversMaintenance 56
scalar OsgEarthNet.uav[40] utilizationCountChargeState 28
scalar OsgEarthNet.uav[40] utilizationCountOverdrawnAfterMission 0
scalar OsgEarthNet.uav[40] utilizationCountIdleState 28
scalar OsgEarthNet.uav[40] utilizationFail 0
scalar OsgEarthNet.uav[40] simulationTime 259200
scalar OsgEarthNet.uav[41] utilizationSecMission 29707.637146384
scalar OsgEarthNet.uav[41] utilizationSecMaintenance 12166.382612228
scalar OsgEarthNet.uav[41] utilizationSecCharge 155231.36735187
scalar OsgEarthNet.uav[41] utilizationSecIdle 62094.611889516
scalar OsgEarthNet.uav[41] utilizationEnergyMission 136762.27642059
scalar OsgEarthNet.uav[41] utilizationEnergyMaintenance 56797.195297241
scalar OsgEarthNet.uav[41] utilizationEnergyCharge 192809.25341797
scalar OsgEarthNet.uav[41] utilizationEnergyOverdrawMission 0
scalar OsgEarthNet.uav[41] utilizationEnergyOverdrawMaintenance 0
scalar OsgEarthNet.uav[41] utilizationCountMissions 43
scalar OsgEarthNet.uav[41] utilizationCountManeuversMission 496
scalar OsgEarthNet.uav[41] utilizationCountManeuversMaintenance 86
scalar OsgEarthNet.uav[41] utilizationCountChargeState 43
scalar OsgEarthNet.uav[41] utilizationCountOverdrawnAfterMission 0
scalar OsgEarthNet.uav[41] utilizationCountIdleState 43
scalar OsgEarthNet.uav[41] utilizationFail 0
scalar OsgEarthNet.uav[41] simulationTime 259200
scalar OsgEarthNet.uav[42] utilizationSecMission 694.00169469977
scalar OsgEarthNet.uav[42] utilizationSecMaintenance 338.49695459722
scalar OsgEarthNet.uav[42] utilizationSecCharge 3740
scalar OsgEarthNet.uav[42] utilizationSecIdle 254427.5003507
scalar OsgEarthNet.uav[42] utilizationEnergyMission 3138.2745895386
scalar OsgEarthNet.uav[42] utilizationEnergyMaintenance 1586.9146232605
scalar OsgEarthNet.uav[42] utilizationEnergyCharge 4725.1870117188
scalar OsgEarthNet.uav[42] utilizationEnergyOverdrawMission 0
scalar OsgEarthNet.uav[42] utilizationEnergyOverdrawMaintenance 0
scalar OsgEarthNet.uav[42] utilizationCountMissions 1
scalar OsgEarthNet.uav[42] utilizationCountManeuversMission 13
scalar OsgEarthNet.uav[42] utilizationCountManeuversMaintenance 2
scalar OsgEarthNet.uav[42] utilizationCountChargeState 1
scalar OsgEarthNet.uav[42] utilizationCountOverdrawnAfterMission 0
scalar OsgEarthNet.uav[42] utilizationCountIdleState 2
scalar OsgEarthNet.uav[42] utilizationFail 0
scalar OsgEarthNet.uav[42] simulationTime 259200
scalar OsgEarthNet.uav[43] utilizationSecMission 760.62515258028
scalar OsgEarthNet.uav[43] utilizationSecMaintenance 291.95923480269
scalar OsgEarthNet.uav[43] utilizationSecCharge 3720
scalar OsgEarthNet.uav[43] utilizationSecIdle 254427.41461262
scalar OsgEarthNet.uav[43] utilizationEnergyMission 3280.617980957
scalar OsgEarthNet.uav[43] utilizationEnergyMaintenance 1384.2058029175
scalar OsgEarthNet.uav[43] utilizationEnergyCharge 4664.822265625
scalar OsgEarthNet.uav[43] utilizationEnergyOverdrawMission 0
scalar OsgEarthNet.uav[43] utilizationEnergyOverdrawMaintenance 0
scalar OsgEarthNet.uav[43] utilizationCountMissions 1
scalar OsgEarthNet.uav[43] utilizationCountManeuversMission 12
scalar OsgEarthNet.uav[43] utilizationCountManeuversMaintenance 2
scalar OsgEarthNet.uav[43] utilizationCountChargeState 1
scalar OsgEarthNet.uav[43] utilizationCountOverdrawnAfterMission 0
scalar OsgEarthNet.uav[43] utilizationCountIdleState 2
scalar OsgEarthNet.uav[43] utilizationFail 0
scalar OsgEarthNet.uav[43] simulationTime 259200
scalar OsgEarthNet.uav[44] utilizationSecMission 1365.8956630072
scalar OsgEarthNet.uav[44] utilizationSecMaintenance 510.71538640554
scalar OsgEarthNet.uav[44] utilizationSecCharge 7090
scalar OsgEarthNet.uav[44] utilizationSecIdle 250233.38795059
scalar OsgEarthNet.uav[44] utilizationEnergyMission 6311.8918609619
scalar OsgEarthNet.uav[44] utilizationEnergyMaintenance 2475.3414344788
scalar OsgEarthNet.uav[44] utilizationEnergyCharge 8787.236328125
scalar OsgEarthNet.uav[44] utilizationEnergyOverdrawMission 0
scalar OsgEarthNet.uav[44] utilizationEnergyOverdrawMaintenance 0
scalar OsgEarthNet.uav[44] utilizationCountMissions 2
scalar OsgEarthNet.uav[44] utilizationCountManeuversMission 24
scalar OsgEarthNet.uav[44] utilizationCountManeuversMaintenance 4
scalar OsgEarthNet.uav[44] utilizationCountChargeState 2
scalar OsgEarthNet.uav[44] utilizationCountOverdrawnAfterMission 0
scalar OsgEarthNet.uav[44] utilizationCountIdleState 3
scalar OsgEarthNet.uav[44] utilizationFail 0
scalar OsgEarthNet.uav[44] simulationTime 259200
scalar OsgEarthNet.uav[45] utilizationSecMission 694.00169469977
scalar OsgEarthNet.uav[45] utilizationSecMaintenance 338.49695459722
scalar OsgEarthNet.uav[45] utilizationSecCharge 3740
scalar OsgEarthNet.uav[45] utilizationSecIdle 254427.5003507
scalar OsgEarthNet.uav[45] utilizationEnergyMission 3153.3192367554
scalar OsgEarthNet.uav[45] utilizationEnergyMaintenance 1551.4001579285
scalar OsgEarthNet.uav[45] utilizationEnergyCharge 4704.7163085938
scalar OsgEarthNet.uav[45] utilizationEnergyOverdrawMission 0
scalar OsgEarthNet.uav[45] utilizationEnergyOverdrawMaintenance 0
scalar OsgEarthNet.uav[45] utilizationCountMissions 1
scalar OsgEarthNet.uav[45] utilizationCountManeuversMission 13
scalar OsgEarthNet.uav[45] utilizationCountManeuversMaintenance 2
scalar OsgEarthNet.uav[45] utilizationCountChargeState 1
scalar OsgEarthNet.uav[45] utilizationCountOverdrawnAfterMission 0
scalar OsgEarthNet.uav[45] utilizationCountIdleState 2
scalar OsgEarthNet.uav[45] utilizationFail 0
scalar OsgEarthNet.uav[45] simulationTime 259200
scalar OsgEarthNet.uav[46] utilizationSecMission 24299.879349866
scalar OsgEarthNet.uav[46] utilizationSecMaintenance 11544.114973477
scalar OsgEarthNet.uav[46] utilizationSecCharge 135619.20545258
scalar OsgEarthNet.uav[46] utilizationSecIdle 87736.799224078
scalar OsgEarthNet.uav[46] utilizationEnergyMission 112342.96846008
scalar OsgEarthNet.uav[46] utilizationEnergyMaintenance 55368.877380371
scalar OsgEarthNet.uav[46] utilizationEnergyCharge 165509.19287109
scalar OsgEarthNet.uav[46] utilizationEnergyOverdrawMission 0
scalar OsgEarthNet.uav[46] utilizationEnergyOverdrawMaintenance 0
scalar OsgEarthNet.uav[46] utilizationCountMissions 40
scalar OsgEarthNet.uav[46] utilizationCountManeuversMission 402
scalar OsgEarthNet.uav[46] utilizationCountManeuversMaintenance 80
scalar OsgEarthNet.uav[46] utilizationCountChargeState 40
scalar OsgEarthNet.uav[46] utilizationCountOverdrawnAfterMission 0
scalar OsgEarthNet.uav[46] utilizationCountIdleState 40
scalar OsgEarthNet.uav[46] utilizationFail 0
scalar OsgEarthNet.uav[46] simulationTime 259200
scalar OsgEarthNet.uav[47] utilizationSecMission 30358.717147873
scalar OsgEarthNet.uav[47] utilizationSecMaintenance 12366.351557795
scalar OsgEarthNet.uav[47] utilizationSecCharge 159900
scalar OsgEarthNet.uav[47] utilizationSecIdle 56574.930294332
scalar OsgEarthNet.uav[47] utilizationEnergyMission 138756.74560547
scalar OsgEarthNet.uav[47] utilizationEnergyMaintenance 58543.733669724
scalar OsgEarthNet.uav[47] utilizationEnergyCharge 197072.27539062
scalar OsgEarthNet.uav[47] utilizationEnergyOverdrawMission 0
scalar OsgEarthNet.uav[47] utilizationEnergyOverdrawMaintenance 0
scalar OsgEarthNet.uav[47] utilizationCountMissions 45
scalar OsgEarthNet.uav[47] utilizationCountManeuversMission 501
scalar OsgEarthNet.uav[47] utilizationCountManeuversMaintenance 91
scalar OsgEarthNet.uav[47] utilizationCountChargeState 45
scalar OsgEarthNet.uav[47] utilizationCountOverdrawnAfterMission 0
scalar OsgEarthNet.uav[47] utilizationCountIdleState 46
scalar OsgEarthNet.uav[47] utilizationFail 0
scalar OsgEarthNet.uav[47] simulationTime 259200
scalar OsgEarthNet.uav[48] utilizationSecMission 28524.008929866
scalar OsgEarthNet.uav[48] utilizationSecMaintenance 13658.668399734
scalar OsgEarthNet.uav[48] utilizationSecCharge 157881.28557163
scalar OsgEarthNet.uav[48] utilizationSecIdle 59136.036098769
scalar OsgEarthNet.uav[48] utilizationEnergyMission 131570.6816864
scalar OsgEarthNet.uav[48] utilizationEnergyMaintenance 64193.335536957
scalar OsgEarthNet.uav[48] utilizationEnergyCharge 194946.53491211
scalar OsgEarthNet.uav[48] utilizationEnergyOverdrawMission 0
scalar OsgEarthNet.uav[48] utilizationEnergyOverdrawMaintenance 0
scalar OsgEarthNet.uav[48] utilizationCountMissions 45
scalar OsgEarthNet.uav[48] utilizationCountManeuversMission 470
scalar OsgEarthNet.uav[48] utilizationCountManeuversMaintenance 90
scalar OsgEarthNet.uav[48] utilizationCountChargeState 45
scalar OsgEarthNet.uav[48] utilizationCountOverdrawnAfterMission 0
scalar OsgEarthNet.uav[48] utilizationCountIdleState 45
scalar OsgEarthNet.uav[48] utilizationFail 0
scalar OsgEarthNet.uav[48] simulationTime 259200
scalar OsgEarthNet.uav[49] utilizationSecMission 836.77707522227
scalar OsgEarthNet.uav[49] utilizationSecMaintenance 217.0347828456
scalar OsgEarthNet.uav[49] utilizationSecCharge 3750
scalar OsgEarthNet.uav[49] utilizationSecIdle 254396.18714193
scalar OsgEarthNet.uav[49] utilizationEnergyMission 3663.5587005615
scalar OsgEarthNet.uav[49] utilizationEnergyMaintenance 1012.2496757507
scalar OsgEarthNet.uav[49] utilizationEnergyCharge 4675.8071289062
scalar OsgEarthNet.uav[49] utilizationEnergyOverdrawMission 0
scalar OsgEarthNet.uav[49] utilizationEnergyOverdrawMaintenance 0
scalar OsgEarthNet.uav[49] utilizationCountMissions 1
scalar OsgEarthNet.uav[49] utilizationCountManeuversMission 13
scalar OsgEarthNet.uav[49] utilizationCountManeuversMaintenance 2
scalar OsgEarthNet.uav[49] utilizationCountChargeState 1
scalar OsgEarthNet.uav[49] utilizationCountOverdrawnAfterMission 0
scalar OsgEarthNet.uav[49] utilizationCountIdleState 2
scalar OsgEarthNet.uav[49] utilizationFail 0
scalar OsgEarthNet.uav[49] simulationTime 259200
scalar OsgEarthNet.uav[50] utilizationSecMission 616.06593675614
scalar OsgEarthNet.uav[50] utilizationSecMaintenance 462.29459772748
scalar OsgEarthNet.uav[50] utilizationSecCharge 3760
scalar OsgEarthNet.uav[50] utilizationSecIdle 254361.63846552
scalar OsgEarthNet.uav[50] utilizationEnergyMission 2646.6950912476
scalar OsgEarthNet.uav[50] utilizationEnergyMaintenance 2190.4850082397
scalar OsgEarthNet.uav[50] utilizationEnergyCharge 4801.8627929688
scalar OsgEarthNet.uav[50] utilizationEnergyOverdrawMission 0
scalar OsgEarthNet.uav[50] utilizationEnergyOverdrawMaintenance 0
scalar OsgEarthNet.uav[50] utilizationCountMissions 1
scalar OsgEarthNet.uav[50] utilizationCountManeuversMission 10
scalar OsgEarthNet.uav[50] utilizationCountManeuversMaintenance 2
scalar OsgEarthNet.uav[50] utilizationCountChargeState 1
scalar OsgEarthNet.uav[50] utilizationCountOverdrawnAfterMission 0
scalar OsgEarthNet.uav[50] utilizationCountIdleState 2
scalar OsgEarthNet.uav[50] utilizationFail 0
scalar OsgEarthNet.uav[50] simulationTime 259200
scalar OsgEarthNet.uav[51] utilizationSecMission 26745.473364526
scalar OsgEarthNet.uav[51] utilizationSecMaintenance 11191.223819202
scalar OsgEarthNet.uav[51] utilizationSecCharge 143250
scalar OsgEarthNet.uav[51] utilizationSecIdle 78013.301816272
scalar OsgEarthNet.uav[51] utilizationEnergyMission 124733.57086945
scalar OsgEarthNet.uav[51] utilizationEnergyMaintenance 53027.345184326
scalar OsgEarthNet.uav[51] utilizationEnergyCharge 177002.4831543
scalar OsgEarthNet.uav[51] utilizationEnergyOverdrawMission 0
scalar OsgEarthNet.uav[51] utilizationEnergyOverdrawMaintenance 0
scalar OsgEarthNet.uav[51] utilizationCountMissions 40
scalar OsgEarthNet.uav[51] utilizationCountManeuversMission 443
scalar OsgEarthNet.uav[51] utilizationCountManeuversMaintenance 80
scalar OsgEarthNet.uav[51] utilizationCountChargeState 40
scalar OsgEarthNet.uav[51] utilizationCountOverdrawnAfterMission 0
scalar OsgEarthNet.uav[51] utilizationCountIdleState 41
scalar OsgEarthNet.uav[51] utilizationFail 0
scalar OsgEarthNet.uav[51] simulationTime 259200
scalar OsgEarthNet.uav[52] utilizationSecMission 3912.556333399
scalar OsgEarthNet.uav[52] utilizationSecMaintenance 1215.4787230418
scalar OsgEarthNet.uav[52] utilizationSecCharge 18490
scalar OsgEarthNet.uav[52] utilizationSecIdle 235581.96394356
scalar OsgEarthNet.uav[52] utilizationEnergyMission 17657.681846619
scalar OsgEarthNet.uav[52] utilizationEnergyMaintenance 5525.7468490601
scalar OsgEarthNet.uav[52] utilizationEnergyCharge 23184.352539062
scalar OsgEarthNet.uav[52] utilizationEnergyOverdrawMission 0
scalar OsgEarthNet.uav[52] utilizationEnergyOverdrawMaintenance 0
scalar OsgEarthNet.uav[52] utilizationCountMissions 5
scalar OsgEarthNet.uav[52] utilizationCountManeuversMission 65
scalar OsgEarthNet.uav[52] utilizationCountManeuversMaintenance 10
scalar OsgEarthNet.uav[52] utilizationCountChargeState 5
scalar OsgEarthNet.uav[52] utilizationCountOverdrawnAfterMission 0
scalar OsgEarthNet.uav[52] utilizationCountIdleState 6
scalar OsgEarthNet.uav[52] utilizationFail 0
scalar OsgEarthNet.uav[52] simulationTime 259200
scalar OsgEarthNet.uav[53] utilizationSecMission 684.4732299383
scalar OsgEarthNet.uav[53] utilizationSecMaintenance 298.56834692969
scalar OsgEarthNet.uav[53] utilizationSecCharge 3790
scalar OsgEarthNet.uav[53] utilizationSecIdle 254426.95742313
scalar OsgEarthNet.uav[53] utilizationEnergyMission 3396.5938720703
scalar OsgEarthNet.uav[53] utilizationEnergyMaintenance 1437.7881698608
scalar OsgEarthNet.uav[53] utilizationEnergyCharge 4834.3837890625
scalar OsgEarthNet.uav[53] utilizationEnergyOverdrawMission 0
scalar OsgEarthNet.uav[53] utilizationEnergyOverdrawMaintenance 0
scalar OsgEarthNet.uav[53] utilizationCountMissions 1
scalar OsgEarthNet.uav[53] utilizationCountManeuversMission 11
scalar OsgEarthNet.uav[53] utilizationCountManeuversMaintenance 2
scalar OsgEarthNet.uav[53] utilizationCountChargeState 1
scalar OsgEarthNet.uav[53] utilizationCountOverdrawnAfterMission 0
scalar OsgEarthNet.uav[53] utilizationCountIdleState 2
scalar OsgEarthNet.uav[53] utilizationFail 0
scalar OsgEarthNet.uav[53] simulationTime 259200
scalar OsgEarthNet.uav[54] utilizationSecMission 3708.3116347565
scalar OsgEarthNet.uav[54] utilizationSecMaintenance 1792.1812547416
scalar OsgEarthNet.uav[54] utilizationSecCharge 20830
scalar OsgEarthNet.uav[54] utilizationSecIdle 232869.5061105
scalar OsgEarthNet.uav[54] utilizationEnergyMission 16932.974884033
scalar OsgEarthNet.uav[54] utilizationEnergyMaintenance 8471.1568794251
scalar OsgEarthNet.uav[54] utilizationEnergyCharge 25404.133056641
scalar OsgEarthNet.uav[54] utilizationEnergyOverdrawMission 0
scalar OsgEarthNet.uav[54] utilizationEnergyOverdrawMaintenance 0
scalar OsgEarthNet.uav[54] utilizationCountMissions 6
scalar OsgEarthNet.uav[54] utilizationCountManeuversMission 60
scalar OsgEarthNet.uav[54] utilizationCountManeuversMaintenance 12
scalar OsgEarthNet.uav[54] utilizationCountChargeState 6
scalar OsgEarthNet.uav[54] utilizationCountOverdrawnAfterMission 0
scalar OsgEarthNet.uav[54] utilizationCountIdleState 7
scalar OsgEarthNet.uav[54] utilizationFail 0
scalar OsgEarthNet.uav[54] simulationTime 259200
scalar OsgEarthNet.uav[55] utilizationSecMission 887.1741082606
scalar OsgEarthNet.uav[55] utilizationSecMaintenance 171.13387461676
scalar OsgEarthNet.uav[55] utilizationSecCharge 3800
scalar OsgEarthNet.uav[55] utilizationSecIdle 254341.69101712
scalar OsgEarthNet.uav[55] utilizationEnergyMission 3988.1815032959
scalar OsgEarthNet.uav[55] utilizationEnergyMaintenance 817.53759002685
scalar OsgEarthNet.uav[55] utilizationEnergyCharge 4766.1455078125
scalar OsgEarthNet.uav[55] utilizationEnergyOverdrawMission 0
scalar OsgEarthNet.uav[55] utilizationEnergyOverdrawMaintenance 0
scalar OsgEarthNet.uav[55] utilizationCountMissions 1
scalar OsgEarthNet.uav[55] utilizationCountManeuversMission 14
scalar OsgEarthNet.uav[55] utilizationCountManeuversMaintenance 2
scalar OsgEarthNet.uav[55] utilizationCountChargeState 1
scalar OsgEarthNet.uav[55] utilizationCountOverdrawnAfterMission 0
scalar OsgEarthNet.uav[55] utilizationCountIdleState 2
scalar OsgEarthNet.uav[55] utilizationFail 0
scalar OsgEarthNet.uav[55] simulationTime 259200
scalar OsgEarthNet.uav[56] utilizationSecMission 24176.655886318
scalar OsgEarthNet.uav[56] utilizationSecMaintenance 9858.1710684964
scalar OsgEarthNet.uav[56] utilizationSecCharge 125247.7466637
scalar OsgEarthNet.uav[56] utilizationSecIdle 99917.425381488
scalar OsgEarthNet.uav[56] utilizationEnergyMission 111556.14804077
scalar OsgEarthNet.uav[56] utilizationEnergyMaintenance 46487.97227478
scalar OsgEarthNet.uav[56] utilizationEnergyCharge 154546.15637207
scalar OsgEarthNet.uav[56] utilizationEnergyOverdrawMission 0
scalar OsgEarthNet.uav[56] utilizationEnergyOverdrawMaintenance 0
scalar OsgEarthNet.uav[56] utilizationCountMissions 36
scalar OsgEarthNet.uav[56] utilizationCountManeuversMission 395
scalar OsgEarthNet.uav[56] utilizationCountManeuversMaintenance 72
scalar OsgEarthNet.uav[56] utilizationCountChargeState 36
scalar OsgEarthNet.uav[56] utilizationCountOverdrawnAfterMission 0
scalar OsgEarthNet.uav[56] utilizationCountIdleState 36
scalar OsgEarthNet.uav[56] utilizationFail 0
scalar OsgEarthNet.uav[56] simulationTime 259200
scalar OsgEarthNet.uav[57] utilizationSecMission 25282.713859755
scalar OsgEarthNet.uav[57] utilizationSecMaintenance 10965.794429735
scalar OsgEarthNet.uav[57] utilizationSecCharge 138610
scalar OsgEarthNet.uav[57] utilizationSecIdle 84341.49071051
scalar OsgEarthNet.uav[57] utilizationEnergyMission 117866.62847137
scalar OsgEarthNet.uav[57] utilizationEnergyMaintenance 52917.503051758
scalar OsgEarthNet.uav[57] utilizationEnergyCharge 170372.97119141
scalar OsgEarthNet.uav[57] utilizationEnergyOverdrawMission 0
scalar OsgEarthNet.uav[57] utilizationEnergyOverdrawMaintenance 0
scalar OsgEarthNet.uav[57] utilizationCountMissions 39
scalar OsgEarthNet.uav[57] utilizationCountManeuversMission 414
scalar OsgEarthNet.uav[57] utilizationCountManeuversMaintenance 78
scalar OsgEarthNet.uav[57] utilizationCountChargeState 39
scalar OsgEarthNet.uav[57] utilizationCountOverdrawnAfterMission 0
scalar OsgEarthNet.uav[57] utilizationCountIdleState 40
scalar OsgEarthNet.uav[57] utilizationFail 0
scalar OsgEarthNet.uav[57] simulationTime 259200
scalar OsgEarthNet.uav[58] utilizationSecMission 26925.034817621
scalar OsgEarthNet.uav[58] utilizationSecMaintenance 10693.269023148
scalar OsgEarthNet.uav[58] utilizationSecCharge 139555.45332361
scalar OsgEarthNet.uav[58] utilizationSecIdle 82026.241835621
scalar OsgEarthNet.uav[58] utilizationEnergyMission 123882.81192017
scalar OsgEarthNet.uav[58] utilizationEnergyMaintenance 50507.815555573
scalar OsgEarthNet.uav[58] utilizationEnergyCharge 173892.43310547
scalar OsgEarthNet.uav[58] utilizationEnergyOverdrawMission 0
scalar OsgEarthNet.uav[58] utilizationEnergyOverdrawMaintenance 0
scalar OsgEarthNet.uav[58] utilizationCountMissions 39
scalar OsgEarthNet.uav[58] utilizationCountManeuversMission 430
scalar OsgEarthNet.uav[58] utilizationCountManeuversMaintenance 78
scalar OsgEarthNet.uav[58] utilizationCountChargeState 39
scalar OsgEarthNet.uav[58] utilizationCountOverdrawnAfterMission 0
scalar OsgEarthNet.uav[58] utilizationCountIdleState 39
scalar OsgEarthNet.uav[58] utilizationFail 0
scalar OsgEarthNet.uav[58] simulationTime 259200
scalar OsgEarthNet.uav[59] utilizationSecMission 5274.6214599386
scalar OsgEarthNet.uav[59] utilizationSecMaintenance 2307.7691425838
scalar OsgEarthNet.uav[59] utilizationSecCharge 28310
scalar OsgEarthNet.uav[59] utilizationSecIdle 223307.60839748
scalar OsgEarthNet.uav[59] utilizationEnergyMission 24335.486717224
scalar OsgEarthNet.uav[59] utilizationEnergyMaintenance 10729.963592529
scalar OsgEarthNet.uav[59] utilizationEnergyCharge 34920.085693359
scalar OsgEarthNet.uav[59] utilizationEnergyOverdrawMission 0
scalar OsgEarthNet.uav[59] utilizationEnergyOverdrawMaintenance 0
scalar OsgEarthNet.uav[59] utilizationCountMissions 8
scalar OsgEarthNet.uav[59] utilizationCountManeuversMission 85
scalar OsgEarthNet.uav[59] utilizationCountManeuversMaintenance 16
scalar OsgEarthNet.uav[59] utilizationCountChargeState 8
scalar OsgEarthNet.uav[59] utilizationCountOverdrawnAfterMission 0
scalar OsgEarthNet.uav[59] utilizationCountIdleState 9
scalar OsgEarthNet.uav[59] utilizationFail 0
scalar OsgEarthNet.uav[59] simulationTime 259200
scalar OsgEarthNet.uav[60] utilizationSecMission 13459.420666983
scalar OsgEarthNet.uav[60] utilizationSecMaintenance 5592.8683772425
scalar OsgEarthNet.uav[60] utilizationSecCharge 71650
scalar OsgEarthNet.uav[60] utilizationSecIdle 168497.70995577
scalar OsgEarthNet.uav[60] utilizationEnergyMission 62069.569107056
scalar OsgEarthNet.uav[60] utilizationEnergyMaintenance 26256.666103363
scalar OsgEarthNet.uav[60] utilizationEnergyCharge 88314.651367188
scalar OsgEarthNet.uav[60] utilizationEnergyOverdrawMission 0
scalar OsgEarthNet.uav[60] utilizationEnergyOverdrawMaintenance 0
scalar OsgEarthNet.uav[60] utilizationCountMissions 20
scalar OsgEarthNet.uav[60] utilizationCountManeuversMission 218
scalar OsgEarthNet.uav[60] utilizationCountManeuversMaintenance 40
scalar OsgEarthNet.uav[60] utilizationCountChargeState 20
scalar OsgEarthNet.uav[60] utilizationCountOverdrawnAfterMission 0
scalar OsgEarthNet.uav[60] utilizationCountIdleState 21
scalar OsgEarthNet.uav[60] utilizationFail 0
scalar OsgEarthNet.uav[60] simulationTime 259200
scalar OsgEarthNet.uav[61] utilizationSecMission 27786.980184585
scalar OsgEarthNet.uav[61] utilizationSecMaintenance 11198.935522514
scalar OsgEarthNet.uav[61] utilizationSecCharge 144534.67159375
scalar OsgEarthNet.uav[61] utilizationSecIdle 75679.411699155
scalar OsgEarthNet.uav[61] utilizationEnergyMission 130647.4467392
scalar OsgEarthNet.uav[61] utilizationEnergyMaintenance 53102.217845917
scalar OsgEarthNet.uav[61] utilizationEnergyCharge 179117.12054443
scalar OsgEarthNet.uav[61] utilizationEnergyOverdrawMission 0
scalar OsgEarthNet.uav[61] utilizationEnergyOverdrawMaintenance 0
scalar OsgEarthNet.uav[61] utilizationCountMissions 41
scalar OsgEarthNet.uav[61] utilizationCountManeuversMission 442
scalar OsgEarthNet.uav[61] utilizationCountManeuversMaintenance 82
scalar OsgEarthNet.uav[61] utilizationCountChargeState 41
scalar OsgEarthNet.uav[61] utilizationCountOverdrawnAfterMission 0
scalar OsgEarthNet.uav[61] utilizationCountIdleState 41
scalar OsgEarthNet.uav[61] utilizationFail 0
scalar OsgEarthNet.uav[61] simulationTime 259200
scalar OsgEarthNet.uav[62] utilizationSecMission 750.20472747826
scalar OsgEarthNet.uav[62] utilizationSecMaintenance 218.84515192887
scalar OsgEarthNet.uav[62] utilizationSecCharge 3590
scalar OsgEarthNet.uav[62] utilizationSecIdle 254640.94912059
scalar OsgEarthNet.uav[62] utilizationEnergyMission 3479.092956543
scalar OsgEarthNet.uav[62] utilizationEnergyMaintenance 915.42552947998
scalar OsgEarthNet.uav[62] utilizationEnergyCharge 4462.0561523438
scalar OsgEarthNet.uav[62] utilizationEnergyOverdrawMission 0
scalar OsgEarthNet.uav[62] utilizationEnergyOverdrawMaintenance 0
scalar OsgEarthNet.uav[62] utilizationCountMissions 1
scalar OsgEarthNet.uav[62] utilizationCountManeuversMission 11
scalar OsgEarthNet.uav[62] utilizationCountManeuversMaintenance 2
scalar OsgEarthNet.uav[62] utilizationCountChargeState 1
scalar OsgEarthNet.uav[62] utilizationCountOverdrawnAfterMission 0
scalar OsgEarthNet.uav[62] utilizationCountIdleState 2
scalar OsgEarthNet.uav[62] utilizationFail 0
scalar OsgEarthNet.uav[62] simulationTime 259200
scalar OsgEarthNet.uav[63] utilizationSecMission 24914.462738837
scalar OsgEarthNet.uav[63] utilizationSecMaintenance 9153.5550993922
scalar OsgEarthNet.uav[63] utilizationSecCharge 123746.60820291
scalar OsgEarthNet.uav[63] utilizationSecIdle 101385.37295886
scalar OsgEarthNet.uav[63] utilizationEnergyMission 114551.60132599
scalar OsgEarthNet.uav[63] utilizationEnergyMaintenance 43217.277561188
scalar OsgEarthNet.uav[63] utilizationEnergyCharge 153838.32141113
scalar OsgEarthNet.uav[63] utilizationEnergyOverdrawMission 0
scalar OsgEarthNet.uav[63] utilizationEnergyOverdrawMaintenance 0
scalar OsgEarthNet.uav[63] utilizationCountMissions 35
scalar OsgEarthNet.uav[63] utilizationCountManeuversMission 402
scalar OsgEarthNet.uav[63] utilizationCountManeuversMaintenance 70
scalar OsgEarthNet.uav[63] utilizationCountChargeState 35
scalar OsgEarthNet.uav[63] utilizationCountOverdrawnAfterMission 0
scalar OsgEarthNet.uav[63] utilizationCountIdleState 35
scalar OsgEarthNet.uav[63] utilizationFail 0
scalar OsgEarthNet.uav[63] simulationTime 259200
scalar OsgEarthNet.uav[64] utilizationSecMission 16222.925193641
scalar OsgEarthNet.uav[64] utilizationSecMaintenance 7098.3651216662
scalar OsgEarthNet.uav[64] utilizationSecCharge 88672.738092782
scalar OsgEarthNet.uav[64] utilizationSecIdle 147205.97059191
scalar OsgEarthNet.uav[64] utilizationEnergyMission 75706.699493408
scalar OsgEarthNet.uav[64] utilizationEnergyMaintenance 33615.364082336
scalar OsgEarthNet.uav[64] utilizationEnergyCharge 109261.69775391
scalar OsgEarthNet.uav[64] utilizationEnergyOverdrawMission 0
scalar OsgEarthNet.uav[64] utilizationEnergyOverdrawMaintenance 0
scalar OsgEarthNet.uav[64] utilizationCountMissions 25
scalar OsgEarthNet.uav[64] utilizationCountManeuversMission 266
scalar OsgEarthNet.uav[64] utilizationCountManeuversMaintenance 50
scalar OsgEarthNet.uav[64] utilizationCountChargeState 25
scalar OsgEarthNet.uav[64] utilizationCountOverdrawnAfterMission 0
scalar OsgEarthNet.uav[64] utilizationCountIdleState 25
scalar OsgEarthNet.uav[64] utilizationFail 0
scalar OsgEarthNet.uav[64] simulationTime 259200
scalar OsgEarthNet.uav[65] utilizationSecMission 750.20472747826
scalar OsgEarthNet.uav[65] utilizationSecMaintenance 218.84515192887
scalar OsgEarthNet.uav[65] utilizationSecCharge 3590
[...]
scalar OsgEarthNet.uav[82] utilizationSecIdle 254377.5003507
scalar OsgEarthNet.uav[82] utilizationEnergyMission 3208.670249939
scalar OsgEarthNet.uav[82] utilizationEnergyMaintenance 1579.9259757996
scalar OsgEarthNet.uav[82] utilizationEnergyCharge 4788.5991210938
scalar OsgEarthNet.uav[82] utilizationEnergyOverdrawMission 0
scalar OsgEarthNet.uav[82] utilizationEnergyOverdrawMaintenance 0
scalar OsgEarthNet.uav[82] utilizationCountMissions 1
scalar OsgEarthNet.uav[82] utilizationCountManeuversMission 13
scalar OsgEarthNet.uav[82] utilizationCountManeuversMaintenance 2
scalar OsgEarthNet.uav[82] utilizationCountChargeState 1
scalar OsgEarthNet.uav[82] utilizationCountOverdrawnAfterMission 0
scalar OsgEarthNet.uav[82] utilizationCountIdleState 2
scalar OsgEarthNet.uav[82] utilizationFail 0
scalar OsgEarthNet.uav[82] simulationTime 259200
scalar OsgEarthNet.uav[83] utilizationSecMission 735.14326557473
scalar OsgEarthNet.uav[83] utilizationSecMaintenance 350.53687742834
scalar OsgEarthNet.uav[83] utilizationSecCharge 3830
scalar OsgEarthNet.uav[83] utilizationSecIdle 254284.318857
scalar OsgEarthNet.uav[83] utilizationEnergyMission 3359.4644775391
scalar OsgEarthNet.uav[83] utilizationEnergyMaintenance 1626.4880142212
scalar OsgEarthNet.uav[83] utilizationEnergyCharge 4857.447265625
scalar OsgEarthNet.uav[83] utilizationEnergyOverdrawMission 0
scalar OsgEarthNet.uav[83] utilizationEnergyOverdrawMaintenance 0
scalar OsgEarthNet.uav[83] utilizationCountMissions 1
scalar OsgEarthNet.uav[83] utilizationCountManeuversMission 11
scalar OsgEarthNet.uav[83] utilizationCountManeuversMaintenance 2
scalar OsgEarthNet.uav[83] utilizationCountChargeState 1
scalar OsgEarthNet.uav[83] utilizationCountOverdrawnAfterMission 0
scalar OsgEarthNet.uav[83] utilizationCountIdleState 2
scalar OsgEarthNet.uav[83] utilizationFail 0
scalar OsgEarthNet.uav[83] simulationTime 259200
scalar OsgEarthNet.uav[84] utilizationSecMission 14163.360311498
scalar OsgEarthNet.uav[84] utilizationSecMaintenance 5150.6794022022
scalar OsgEarthNet.uav[84] utilizationSecCharge 71760
scalar OsgEarthNet.uav[84] utilizationSecIdle 168125.9592863
scalar OsgEarthNet.uav[84] utilizationEnergyMission 65053.408851624
scalar OsgEarthNet.uav[84] utilizationEnergyMaintenance 23938.906448364
scalar OsgEarthNet.uav[84] utilizationEnergyCharge 88831.494873047
scalar OsgEarthNet.uav[84] utilizationEnergyOverdrawMission 0
scalar OsgEarthNet.uav[84] utilizationEnergyOverdrawMaintenance 0
scalar OsgEarthNet.uav[84] utilizationCountMissions 20
scalar OsgEarthNet.uav[84] utilizationCountManeuversMission 232
scalar OsgEarthNet.uav[84] utilizationCountManeuversMaintenance 40
scalar OsgEarthNet.uav[84] utilizationCountChargeState 20
scalar OsgEarthNet.uav[84] utilizationCountOverdrawnAfterMission 0
scalar OsgEarthNet.uav[84] utilizationCountIdleState 21
scalar OsgEarthNet.uav[84] utilizationFail 0
scalar OsgEarthNet.uav[84] simulationTime 259200
scalar OsgEarthNet.uav[85] utilizationSecMission 766.82734763767
scalar OsgEarthNet.uav[85] utilizationSecMaintenance 306.92101052153
scalar OsgEarthNet.uav[85] utilizationSecCharge 3810
scalar OsgEarthNet.uav[85] utilizationSecIdle 254316.25064184
scalar OsgEarthNet.uav[85] utilizationEnergyMission 3399.6105270386
scalar OsgEarthNet.uav[85] utilizationEnergyMaintenance 1360.5804367065
scalar OsgEarthNet.uav[85] utilizationEnergyCharge 4804.1811523438
scalar OsgEarthNet.uav[85] utilizationEnergyOverdrawMission 0
scalar OsgEarthNet.uav[85] utilizationEnergyOverdrawMaintenance 0
scalar OsgEarthNet.uav[85] utilizationCountMissions 1
scalar OsgEarthNet.uav[85] utilizationCountManeuversMission 14
scalar OsgEarthNet.uav[85] utilizationCountManeuversMaintenance 2
scalar OsgEarthNet.uav[85] utilizationCountChargeState 1
scalar OsgEarthNet.uav[85] utilizationCountOverdrawnAfterMission 0
scalar OsgEarthNet.uav[85] utilizationCountIdleState 2
scalar OsgEarthNet.uav[85] utilizationFail 0
scalar OsgEarthNet.uav[85] simulationTime 259200
scalar OsgEarthNet.uav[86] utilizationSecMission 33568.335372511
scalar OsgEarthNet.uav[86] utilizationSecMaintenance 10639.663627489
scalar OsgEarthNet.uav[86] utilizationSecCharge 163550
scalar OsgEarthNet.uav[86] utilizationSecIdle 51442
scalar OsgEarthNet.uav[86] utilizationEnergyMission 156115.64129095
scalar OsgEarthNet.uav[86] utilizationEnergyMaintenance 49813.173503876
scalar OsgEarthNet.uav[86] utilizationEnergyCharge 202916.64575195
scalar OsgEarthNet.uav[86] utilizationEnergyOverdrawMission 0
scalar OsgEarthNet.uav[86] utilizationEnergyOverdrawMaintenance 0
scalar OsgEarthNet.uav[86] utilizationCountMissions 45
scalar OsgEarthNet.uav[86] utilizationCountManeuversMission 530
scalar OsgEarthNet.uav[86] utilizationCountManeuversMaintenance 90
scalar OsgEarthNet.uav[86] utilizationCountChargeState 45
scalar OsgEarthNet.uav[86] utilizationCountOverdrawnAfterMission 0
scalar OsgEarthNet.uav[86] utilizationCountIdleState 46
scalar OsgEarthNet.uav[86] utilizationFail 0
scalar OsgEarthNet.uav[86] simulationTime 259200
scalar OsgEarthNet.uav[87] utilizationSecMission 30652.585878555
scalar OsgEarthNet.uav[87] utilizationSecMaintenance 11550.362674606
scalar OsgEarthNet.uav[87] utilizationSecCharge 155805.04894012
scalar OsgEarthNet.uav[87] utilizationSecIdle 61192.001506722
scalar OsgEarthNet.uav[87] utilizationEnergyMission 144381.11223602
scalar OsgEarthNet.uav[87] utilizationEnergyMaintenance 53959.113430023
scalar OsgEarthNet.uav[87] utilizationEnergyCharge 193428.41296387
scalar OsgEarthNet.uav[87] utilizationEnergyOverdrawMission 0
scalar OsgEarthNet.uav[87] utilizationEnergyOverdrawMaintenance 0
scalar OsgEarthNet.uav[87] utilizationCountMissions 44
scalar OsgEarthNet.uav[87] utilizationCountManeuversMission 528
scalar OsgEarthNet.uav[87] utilizationCountManeuversMaintenance 88
scalar OsgEarthNet.uav[87] utilizationCountChargeState 44
scalar OsgEarthNet.uav[87] utilizationCountOverdrawnAfterMission 0
scalar OsgEarthNet.uav[87] utilizationCountIdleState 44
scalar OsgEarthNet.uav[87] utilizationFail 0
scalar OsgEarthNet.uav[87] simulationTime 259200
scalar OsgEarthNet.uav[88] utilizationSecMission 32141.376425439
scalar OsgEarthNet.uav[88] utilizationSecMaintenance 12266.343793777
scalar OsgEarthNet.uav[88] utilizationSecCharge 163810.27878078
scalar OsgEarthNet.uav[88] utilizationSecIdle 50982
scalar OsgEarthNet.uav[88] utilizationEnergyMission 148029.23393843
scalar OsgEarthNet.uav[88] utilizationEnergyMaintenance 58211.967979431
scalar OsgEarthNet.uav[88] utilizationEnergyCharge 203717.30297852
scalar OsgEarthNet.uav[88] utilizationEnergyOverdrawMission 0
scalar OsgEarthNet.uav[88] utilizationEnergyOverdrawMaintenance 0
scalar OsgEarthNet.uav[88] utilizationCountMissions 46
scalar OsgEarthNet.uav[88] utilizationCountManeuversMission 521
scalar OsgEarthNet.uav[88] utilizationCountManeuversMaintenance 91
scalar OsgEarthNet.uav[88] utilizationCountChargeState 46
scalar OsgEarthNet.uav[88] utilizationCountOverdrawnAfterMission 0
scalar OsgEarthNet.uav[88] utilizationCountIdleState 46
scalar OsgEarthNet.uav[88] utilizationFail 0
scalar OsgEarthNet.uav[88] simulationTime 259200
scalar OsgEarthNet.uav[89] utilizationSecMission 25818.350540671
scalar OsgEarthNet.uav[89] utilizationSecMaintenance 12700.333382876
scalar OsgEarthNet.uav[89] utilizationSecCharge 145911.30170037
scalar OsgEarthNet.uav[89] utilizationSecIdle 74770.013376087
scalar OsgEarthNet.uav[89] utilizationEnergyMission 120312.21798325
scalar OsgEarthNet.uav[89] utilizationEnergyMaintenance 59120.878650665
scalar OsgEarthNet.uav[89] utilizationEnergyCharge 178154.04003906
scalar OsgEarthNet.uav[89] utilizationEnergyOverdrawMission 0
scalar OsgEarthNet.uav[89] utilizationEnergyOverdrawMaintenance 0
scalar OsgEarthNet.uav[89] utilizationCountMissions 43
scalar OsgEarthNet.uav[89] utilizationCountManeuversMission 417
scalar OsgEarthNet.uav[89] utilizationCountManeuversMaintenance 86
scalar OsgEarthNet.uav[89] utilizationCountChargeState 43
scalar OsgEarthNet.uav[89] utilizationCountOverdrawnAfterMission 0
scalar OsgEarthNet.uav[89] utilizationCountIdleState 43
scalar OsgEarthNet.uav[89] utilizationFail 0
scalar OsgEarthNet.uav[89] simulationTime 259200
scalar OsgEarthNet.uav[90] utilizationSecMission 28418.338588367
scalar OsgEarthNet.uav[90] utilizationSecMaintenance 13521.026555694
scalar OsgEarthNet.uav[90] utilizationSecCharge 158138.63385594
scalar OsgEarthNet.uav[90] utilizationSecIdle 59122
scalar OsgEarthNet.uav[90] utilizationEnergyMission 130876.52405167
scalar OsgEarthNet.uav[90] utilizationEnergyMaintenance 63457.513679504
scalar OsgEarthNet.uav[90] utilizationEnergyCharge 194141.97460938
scalar OsgEarthNet.uav[90] utilizationEnergyOverdrawMission 0
scalar OsgEarthNet.uav[90] utilizationEnergyOverdrawMaintenance 0
scalar OsgEarthNet.uav[90] utilizationCountMissions 45
scalar OsgEarthNet.uav[90] utilizationCountManeuversMission 462
scalar OsgEarthNet.uav[90] utilizationCountManeuversMaintenance 89
scalar OsgEarthNet.uav[90] utilizationCountChargeState 45
scalar OsgEarthNet.uav[90] utilizationCountOverdrawnAfterMission 0
scalar OsgEarthNet.uav[90] utilizationCountIdleState 45
scalar OsgEarthNet.uav[90] utilizationFail 0
scalar OsgEarthNet.uav[90] simulationTime 259200
scalar OsgEarthNet.uav[91] utilizationSecMission 682.94783150361
scalar OsgEarthNet.uav[91] utilizationSecMaintenance 228.1606024445
scalar OsgEarthNet.uav[91] utilizationSecCharge 3530
scalar OsgEarthNet.uav[91] utilizationSecIdle 254758.89056605
scalar OsgEarthNet.uav[91] utilizationEnergyMission 3116.4005584717
scalar OsgEarthNet.uav[91] utilizationEnergyMaintenance 1206.4831466675
scalar OsgEarthNet.uav[91] utilizationEnergyCharge 4322.8833007812
scalar OsgEarthNet.uav[91] utilizationEnergyOverdrawMission 0
scalar OsgEarthNet.uav[91] utilizationEnergyOverdrawMaintenance 0
scalar OsgEarthNet.uav[91] utilizationCountMissions 1
scalar OsgEarthNet.uav[91] utilizationCountManeuversMission 12
scalar OsgEarthNet.uav[91] utilizationCountManeuversMaintenance 2
scalar OsgEarthNet.uav[91] utilizationCountChargeState 1
scalar OsgEarthNet.uav[91] utilizationCountOverdrawnAfterMission 0
scalar OsgEarthNet.uav[91] utilizationCountIdleState 2
scalar OsgEarthNet.uav[91] utilizationFail 0
scalar OsgEarthNet.uav[91] simulationTime 259200
scalar OsgEarthNet.uav[92] utilizationSecMission 694.00169469977
scalar OsgEarthNet.uav[92] utilizationSecMaintenance 338.49695459722
scalar OsgEarthNet.uav[92] utilizationSecCharge 3790
scalar OsgEarthNet.uav[92] utilizationSecIdle 254377.5003507
scalar OsgEarthNet.uav[92] utilizationEnergyMission 3268.6129455566
scalar OsgEarthNet.uav[92] utilizationEnergyMaintenance 1536.5137443542
scalar OsgEarthNet.uav[92] utilizationEnergyCharge 4805.1235351562
scalar OsgEarthNet.uav[92] utilizationEnergyOverdrawMission 0
scalar OsgEarthNet.uav[92] utilizationEnergyOverdrawMaintenance 0
scalar OsgEarthNet.uav[92] utilizationCountMissions 1
scalar OsgEarthNet.uav[92] utilizationCountManeuversMission 13
scalar OsgEarthNet.uav[92] utilizationCountManeuversMaintenance 2
scalar OsgEarthNet.uav[92] utilizationCountChargeState 1
scalar OsgEarthNet.uav[92] utilizationCountOverdrawnAfterMission 0
scalar OsgEarthNet.uav[92] utilizationCountIdleState 2
scalar OsgEarthNet.uav[92] utilizationFail 0
scalar OsgEarthNet.uav[92] simulationTime 259200
scalar OsgEarthNet.uav[93] utilizationSecMission 332.13845170574
scalar OsgEarthNet.uav[93] utilizationSecMaintenance 371.50440930603
scalar OsgEarthNet.uav[93] utilizationSecCharge 2940
scalar OsgEarthNet.uav[93] utilizationSecIdle 255556.35613899
scalar OsgEarthNet.uav[93] utilizationEnergyMission 1515.4827270508
scalar OsgEarthNet.uav[93] utilizationEnergyMaintenance 1789.582572937
scalar OsgEarthNet.uav[93] utilizationEnergyCharge 3305.0625
scalar OsgEarthNet.uav[93] utilizationEnergyOverdrawMission 0
scalar OsgEarthNet.uav[93] utilizationEnergyOverdrawMaintenance 0
scalar OsgEarthNet.uav[93] utilizationCountMissions 1
scalar OsgEarthNet.uav[93] utilizationCountManeuversMission 5
scalar OsgEarthNet.uav[93] utilizationCountManeuversMaintenance 2
scalar OsgEarthNet.uav[93] utilizationCountChargeState 1
scalar OsgEarthNet.uav[93] utilizationCountOverdrawnAfterMission 0
scalar OsgEarthNet.uav[93] utilizationCountIdleState 2
scalar OsgEarthNet.uav[93] utilizationFail 0
scalar OsgEarthNet.uav[93] simulationTime 259200
scalar OsgEarthNet.uav[94] utilizationSecMission 1653.6337848724
scalar OsgEarthNet.uav[94] utilizationSecMaintenance 747.98789134948
scalar OsgEarthNet.uav[94] utilizationSecCharge 9400
scalar OsgEarthNet.uav[94] utilizationSecIdle 247398.37732378
scalar OsgEarthNet.uav[94] utilizationEnergyMission 7662.2127685547
scalar OsgEarthNet.uav[94] utilizationEnergyMaintenance 3387.3191986084
scalar OsgEarthNet.uav[94] utilizationEnergyCharge 11049.530517578
scalar OsgEarthNet.uav[94] utilizationEnergyOverdrawMission 0
scalar OsgEarthNet.uav[94] utilizationEnergyOverdrawMaintenance 0
scalar OsgEarthNet.uav[94] utilizationCountMissions 3
scalar OsgEarthNet.uav[94] utilizationCountManeuversMission 28
scalar OsgEarthNet.uav[94] utilizationCountManeuversMaintenance 6
scalar OsgEarthNet.uav[94] utilizationCountChargeState 3
scalar OsgEarthNet.uav[94] utilizationCountOverdrawnAfterMission 0
scalar OsgEarthNet.uav[94] utilizationCountIdleState 4
scalar OsgEarthNet.uav[94] utilizationFail 0
scalar OsgEarthNet.uav[94] simulationTime 259200
scalar OsgEarthNet.uav[95] utilizationSecMission 1444.206422178
scalar OsgEarthNet.uav[95] utilizationSecMaintenance 619.14876412739
scalar OsgEarthNet.uav[95] utilizationSecCharge 7540
scalar OsgEarthNet.uav[95] utilizationSecIdle 249596.64381369
scalar OsgEarthNet.uav[95] utilizationEnergyMission 6661.0604171753
scalar OsgEarthNet.uav[95] utilizationEnergyMaintenance 2837.3968734741
scalar OsgEarthNet.uav[95] utilizationEnergyCharge 9498.4584960938
scalar OsgEarthNet.uav[95] utilizationEnergyOverdrawMission 0
scalar OsgEarthNet.uav[95] utilizationEnergyOverdrawMaintenance 0
scalar OsgEarthNet.uav[95] utilizationCountMissions 2
scalar OsgEarthNet.uav[95] utilizationCountManeuversMission 24
scalar OsgEarthNet.uav[95] utilizationCountManeuversMaintenance 4
scalar OsgEarthNet.uav[95] utilizationCountChargeState 2
scalar OsgEarthNet.uav[95] utilizationCountOverdrawnAfterMission 0
scalar OsgEarthNet.uav[95] utilizationCountIdleState 3
scalar OsgEarthNet.uav[95] utilizationFail 0
scalar OsgEarthNet.uav[95] simulationTime 259200
scalar OsgEarthNet.uav[96] utilizationSecMission 1446.7683523881
scalar OsgEarthNet.uav[96] utilizationSecMaintenance 1191.0215727764
scalar OsgEarthNet.uav[96] utilizationSecCharge 10090
scalar OsgEarthNet.uav[96] utilizationSecIdle 246472.20907484
scalar OsgEarthNet.uav[96] utilizationEnergyMission 6383.0727233887
scalar OsgEarthNet.uav[96] utilizationEnergyMaintenance 5750.2039031982
scalar OsgEarthNet.uav[96] utilizationEnergyCharge 12133.274414062
scalar OsgEarthNet.uav[96] utilizationEnergyOverdrawMission 0
scalar OsgEarthNet.uav[96] utilizationEnergyOverdrawMaintenance 0
scalar OsgEarthNet.uav[96] utilizationCountMissions 3
scalar OsgEarthNet.uav[96] utilizationCountManeuversMission 21
scalar OsgEarthNet.uav[96] utilizationCountManeuversMaintenance 6
scalar OsgEarthNet.uav[96] utilizationCountChargeState 3
scalar OsgEarthNet.uav[96] utilizationCountOverdrawnAfterMission 0
scalar OsgEarthNet.uav[96] utilizationCountIdleState 4
scalar OsgEarthNet.uav[96] utilizationFail 0
scalar OsgEarthNet.uav[96] simulationTime 259200
scalar OsgEarthNet.uav[97] utilizationSecMission 15106.065476781
scalar OsgEarthNet.uav[97] utilizationSecMaintenance 6233.1849878327
scalar OsgEarthNet.uav[97] utilizationSecCharge 80400
scalar OsgEarthNet.uav[97] utilizationSecIdle 157460.74853539
scalar OsgEarthNet.uav[97] utilizationEnergyMission 70387.955780029
scalar OsgEarthNet.uav[97] utilizationEnergyMaintenance 29608.658557892
scalar OsgEarthNet.uav[97] utilizationEnergyCharge 99945.742919922
scalar OsgEarthNet.uav[97] utilizationEnergyOverdrawMission 0
scalar OsgEarthNet.uav[97] utilizationEnergyOverdrawMaintenance 0
scalar OsgEarthNet.uav[97] utilizationCountMissions 22
scalar OsgEarthNet.uav[97] utilizationCountManeuversMission 244
scalar OsgEarthNet.uav[97] utilizationCountManeuversMaintenance 44
scalar OsgEarthNet.uav[97] utilizationCountChargeState 22
scalar OsgEarthNet.uav[97] utilizationCountOverdrawnAfterMission 0
scalar OsgEarthNet.uav[97] utilizationCountIdleState 23
scalar OsgEarthNet.uav[97] utilizationFail 0
scalar OsgEarthNet.uav[97] simulationTime 259200
scalar OsgEarthNet.uav[98] utilizationSecMission 5646.0073316824
scalar OsgEarthNet.uav[98] utilizationSecMaintenance 4461.2929038915
scalar OsgEarthNet.uav[98] utilizationSecCharge 38310
scalar OsgEarthNet.uav[98] utilizationSecIdle 210782.69876443
scalar OsgEarthNet.uav[98] utilizationEnergyMission 25526.056396484
scalar OsgEarthNet.uav[98] utilizationEnergyMaintenance 21218.887680054
scalar OsgEarthNet.uav[98] utilizationEnergyCharge 46774.931152344
scalar OsgEarthNet.uav[98] utilizationEnergyOverdrawMission 0
scalar OsgEarthNet.uav[98] utilizationEnergyOverdrawMaintenance 0
scalar OsgEarthNet.uav[98] utilizationCountMissions 11
scalar OsgEarthNet.uav[98] utilizationCountManeuversMission 93
scalar OsgEarthNet.uav[98] utilizationCountManeuversMaintenance 22
scalar OsgEarthNet.uav[98] utilizationCountChargeState 11
scalar OsgEarthNet.uav[98] utilizationCountOverdrawnAfterMission 0
scalar OsgEarthNet.uav[98] utilizationCountIdleState 12
scalar OsgEarthNet.uav[98] utilizationFail 0
scalar OsgEarthNet.uav[98] simulationTime 259200
scalar OsgEarthNet.uav[99] utilizationSecMission 23501.093841104
scalar OsgEarthNet.uav[99] utilizationSecMaintenance 12719.319378148
scalar OsgEarthNet.uav[99] utilizationSecCharge 137101.53424185
scalar OsgEarthNet.uav[99] utilizationSecIdle 85878.051538898
scalar OsgEarthNet.uav[99] utilizationEnergyMission 108778.79221725
scalar OsgEarthNet.uav[99] utilizationEnergyMaintenance 60149.012371063
scalar OsgEarthNet.uav[99] utilizationEnergyCharge 169148.97436523
scalar OsgEarthNet.uav[99] utilizationEnergyOverdrawMission 0
scalar OsgEarthNet.uav[99] utilizationEnergyOverdrawMaintenance 0
scalar OsgEarthNet.uav[99] utilizationCountMissions 39
scalar OsgEarthNet.uav[99] utilizationCountManeuversMission 393
scalar OsgEarthNet.uav[99] utilizationCountManeuversMaintenance 78
scalar OsgEarthNet.uav[99] utilizationCountChargeState 39
scalar OsgEarthNet.uav[99] utilizationCountOverdrawnAfterMission 0
scalar OsgEarthNet.uav[99] utilizationCountIdleState 39
scalar OsgEarthNet.uav[99] utilizationFail 0
scalar OsgEarthNet.uav[99] simulationTime 259200
scalar OsgEarthNet.cs[0] usedPower 552566.39834291
scalar OsgEarthNet.cs[0] chargedPower 552566.39834291
scalar OsgEarthNet.cs[0] chargedMobileNodes 116
scalar OsgEarthNet.cs[0] reservations 121
scalar OsgEarthNet.cs[1] usedPower 671150.68231912
scalar OsgEarthNet.cs[1] chargedPower 671150.68231912
scalar OsgEarthNet.cs[1] chargedMobileNodes 210
scalar OsgEarthNet.cs[1] reservations 211
scalar OsgEarthNet.cs[2] usedPower 3393168.1897322
scalar OsgEarthNet.cs[2] chargedPower 3393168.1897322
scalar OsgEarthNet.cs[2] chargedMobileNodes 718
scalar OsgEarthNet.cs[2] reservations 734
scalar OsgEarthNet.cs[3] usedPower 605785.31772556
scalar OsgEarthNet.cs[3] chargedPower 605785.31772556
scalar OsgEarthNet.cs[3] chargedMobileNodes 138
scalar OsgEarthNet.cs[3] reservations 138
scalar OsgEarthNet.cs[4] usedPower 804227.49930921
scalar OsgEarthNet.cs[4] chargedPower 804227.49930921
scalar OsgEarthNet.cs[4] chargedMobileNodes 177
scalar OsgEarthNet.cs[4] reservations 180
scalar OsgEarthNet.cs[5] usedPower 737852.88860561
scalar OsgEarthNet.cs[5] chargedPower 737852.88860561
scalar OsgEarthNet.cs[5] chargedMobileNodes 156
scalar OsgEarthNet.cs[5] reservations 159
scalar OsgEarthNet.cs[6] usedPower 1684538.6448453
scalar OsgEarthNet.cs[6] chargedPower 1684538.6448453
scalar OsgEarthNet.cs[6] chargedMobileNodes 389
scalar OsgEarthNet.cs[6] reservations 389

