version 2
run Szenario_Hotel_Gabelbach-17-20180710-01:26:40-43544
attr configname Szenario_Hotel_Gabelbach
attr datetime 20180710-01:26:40
attr experiment Szenario_Hotel_Gabelbach
attr inifile omnetpp.ini
attr iterationvars "$replM=2, $biWeight=0.45"
attr iterationvarsf replM=2,biWeight=0.45-
attr measurement "$replM=2, $biWeight=0.45"
attr network OsgEarthNet
attr processid 43544
attr repetition 5
attr replication #5
attr resultdir results
attr runnumber 17
attr seedset 17
itervar biWeight 0.45
itervar replM 2
param *.osgEarthScene.scene "\"Szenario_Hotel_Gabelbach.earth\""
param *.playgroundLatitude 50.6830269
param *.playgroundLongitude 10.8538055
param *.playgroundWidth 3500m
param *.playgroundHeight 3500m
param *.numUAVs 100
param *.cs[0].posX 3537m
param *.cs[0].posY 965m
param *.cs[0].posZ 538m
param *.cs[1].posX 312m
param *.cs[1].posY 1262m
param *.cs[1].posZ 539m
param *.cs[2].posX 2185m
param *.cs[2].posY 3026m
param *.cs[2].posZ 777m
param *.cs[3].posX 10m
param *.cs[3].posY 2200m
param *.cs[3].posZ 560m
param *.cs[4].posX 750m
param *.cs[4].posY 200m
param *.cs[4].posZ 540m
param *.cs[5].posX 2450m
param *.cs[5].posY 180m
param *.cs[5].posZ 524m
param *.cs[6].posX 3140m
param *.cs[6].posY 1790m
param *.cs[6].posZ 606m
param *.numCSs 7
param *.uav[*].replacementMethod 2
param *.uav[*].weightedSumWeight 0.45
param *.*.timeStep 10s
param *.uav[*].commandPreviewCommandCount 20
param *.missionControl.missionFiles "\"missions\\\\Szenario_WB_Hotel_Gabelbach_Mission_Hotel.waypoints,missions\\\\Szenario_WB_Hotel_Gabelbach_Mission_Kickelhahn.waypoints,missions\\\\Szenario_WB_Hotel_Gabelbach_Mission_Ilmenau_Sportplatz.waypoints,missions\\\\Szenario_WB_Hotel_Gabelbach_Mission_Manebach_Mitte.waypoints,missions\\\\Szenario_WB_Hotel_Gabelbach_Mission_Manebach_Sued.waypoints\""
param *.missionControl.missionFiles "\"missions\\\\Szenario_WB_Hotel_Gabelbach_Mission_Hotel.waypoints,missions\\\\Szenario_WB_Hotel_Gabelbach_Mission_Kickelhahn.waypoints,missions\\\\Szenario_WB_Hotel_Gabelbach_Mission_Ilmenau_Sportplatz.waypoints,missions\\\\Szenario_WB_Hotel_Gabelbach_Mission_Manebach_Mitte.waypoints,missions\\\\Szenario_WB_Hotel_Gabelbach_Mission_Manebach_Sued.waypoints,missions\\\\Szenario_WB_Hotel_Gabelbach_Hover_HoheSchlaufe.waypoints,missions\\\\Szenario_WB_Hotel_Gabelbach_Hover_Kickelhahn.waypoints,missions\\\\Szenario_WB_Hotel_Gabelbach_Hover_Gabelbachskopf.waypoints,missions\\\\Szenario_WB_Hotel_Gabelbach_Hover_Dachskopf.waypoints\""
param *.uav[0].startX 3537m
param *.uav[0].startY 965m
param *.uav[0].startZ 539m
param *.uav[1].startX 312m
param *.uav[1].startY 1262m
param *.uav[1].startZ 540m
param *.uav[2].startX 2185m
param *.uav[2].startY 3026m
param *.uav[2].startZ 778m
param *.uav[3].startX 3537m
param *.uav[3].startY 965m
param *.uav[3].startZ 539m
param *.uav[4].startX 312m
param *.uav[4].startY 1262m
param *.uav[4].startZ 540m
param *.uav[5].startX 2185m
param *.uav[5].startY 3026m
param *.uav[5].startZ 778m
param *.uav[6].startX 3537m
param *.uav[6].startY 965m
param *.uav[6].startZ 539m
param *.uav[7].startX 312m
param *.uav[7].startY 1262m
param *.uav[7].startZ 540m
param *.uav[8].startX 2185m
param *.uav[8].startY 3026m
param *.uav[8].startZ 778m
param *.uav[9].startX 3537m
param *.uav[9].startY 965m
param *.uav[9].startZ 539m
param *.uav[10].startX 3537m
param *.uav[10].startY 965m
param *.uav[10].startZ 539m
param *.uav[11].startX 312m
param *.uav[11].startY 1262m
param *.uav[11].startZ 540m
param *.uav[12].startX 2185m
param *.uav[12].startY 3026m
param *.uav[12].startZ 778m
param *.uav[13].startX 3537m
param *.uav[13].startY 965m
param *.uav[13].startZ 539m
param *.uav[14].startX 312m
param *.uav[14].startY 1262m
param *.uav[14].startZ 540m
param *.uav[15].startX 2185m
param *.uav[15].startY 3026m
param *.uav[15].startZ 778m
param *.uav[16].startX 3537m
param *.uav[16].startY 965m
param *.uav[16].startZ 539m
param *.uav[17].startX 312m
param *.uav[17].startY 1262m
param *.uav[17].startZ 540m
param *.uav[18].startX 2185m
param *.uav[18].startY 3026m
param *.uav[18].startZ 778m
param *.uav[19].startX 3537m
param *.uav[19].startY 965m
param *.uav[19].startZ 539m
param *.uav[20].startX 3537m
param *.uav[20].startY 965m
param *.uav[20].startZ 539m
param *.uav[21].startX 312m
param *.uav[21].startY 1262m
param *.uav[21].startZ 540m
param *.uav[22].startX 2185m
param *.uav[22].startY 3026m
param *.uav[22].startZ 778m
param *.uav[23].startX 3537m
param *.uav[23].startY 965m
param *.uav[23].startZ 539m
param *.uav[24].startX 312m
param *.uav[24].startY 1262m
param *.uav[24].startZ 540m
param *.uav[25].startX 2185m
param *.uav[25].startY 3026m
param *.uav[25].startZ 778m
param *.uav[26].startX 3537m
param *.uav[26].startY 965m
param *.uav[26].startZ 539m
param *.uav[27].startX 312m
param *.uav[27].startY 1262m
param *.uav[27].startZ 540m
param *.uav[28].startX 2185m
param *.uav[28].startY 3026m
param *.uav[28].startZ 778m
param *.uav[29].startX 3537m
param *.uav[29].startY 965m
param *.uav[29].startZ 539m
param *.uav[30].startX 3537m
param *.uav[30].startY 965m
param *.uav[30].startZ 539m
param *.uav[31].startX 312m
param *.uav[31].startY 1262m
param *.uav[31].startZ 540m
param *.uav[32].startX 2185m
param *.uav[32].startY 3026m
param *.uav[32].startZ 778m
param *.uav[33].startX 3537m
param *.uav[33].startY 965m
param *.uav[33].startZ 539m
param *.uav[34].startX 312m
param *.uav[34].startY 1262m
param *.uav[34].startZ 540m
param *.uav[35].startX 2185m
param *.uav[35].startY 3026m
param *.uav[35].startZ 778m
param *.uav[36].startX 3537m
param *.uav[36].startY 965m
param *.uav[36].startZ 539m
param *.uav[37].startX 312m
param *.uav[37].startY 1262m
param *.uav[37].startZ 540m
param *.uav[38].startX 2185m
param *.uav[38].startY 3026m
param *.uav[38].startZ 778m
param *.uav[39].startX 3537m
param *.uav[39].startY 965m
param *.uav[39].startZ 539m
param *.uav[40].startX 3537m
param *.uav[40].startY 965m
param *.uav[40].startZ 539m
param *.uav[41].startX 312m
param *.uav[41].startY 1262m
param *.uav[41].startZ 540m
param *.uav[42].startX 2185m
param *.uav[42].startY 3026m
param *.uav[42].startZ 778m
param *.uav[43].startX 3537m
param *.uav[43].startY 965m
param *.uav[43].startZ 539m
param *.uav[44].startX 312m
param *.uav[44].startY 1262m
param *.uav[44].startZ 540m
param *.uav[45].startX 2185m
param *.uav[45].startY 3026m
param *.uav[45].startZ 778m
param *.uav[46].startX 3537m
param *.uav[46].startY 965m
param *.uav[46].startZ 539m
param *.uav[47].startX 312m
param *.uav[47].startY 1262m
param *.uav[47].startZ 540m
param *.uav[48].startX 2185m
param *.uav[48].startY 3026m
param *.uav[48].startZ 778m
param *.uav[49].startX 3537m
param *.uav[49].startY 965m
param *.uav[49].startZ 539m
param *.uav[50].startX 3537m
param *.uav[50].startY 965m
param *.uav[50].startZ 539m
param *.uav[51].startX 312m
param *.uav[51].startY 1262m
param *.uav[51].startZ 540m
param *.uav[52].startX 2185m
param *.uav[52].startY 3026m
param *.uav[52].startZ 778m
param *.uav[53].startX 3537m
param *.uav[53].startY 965m
param *.uav[53].startZ 539m
param *.uav[54].startX 312m
param *.uav[54].startY 1262m
param *.uav[54].startZ 540m
param *.uav[55].startX 2185m
param *.uav[55].startY 3026m
param *.uav[55].startZ 778m
param *.uav[56].startX 3537m
param *.uav[56].startY 965m
param *.uav[56].startZ 539m
param *.uav[57].startX 312m
param *.uav[57].startY 1262m
param *.uav[57].startZ 540m
param *.uav[58].startX 2185m
param *.uav[58].startY 3026m
param *.uav[58].startZ 778m
param *.uav[59].startX 3537m
param *.uav[59].startY 965m
param *.uav[59].startZ 539m
param *.uav[60].startX 3537m
param *.uav[60].startY 965m
param *.uav[60].startZ 539m
param *.uav[61].startX 312m
param *.uav[61].startY 1262m
param *.uav[61].startZ 540m
param *.uav[62].startX 2185m
param *.uav[62].startY 3026m
param *.uav[62].startZ 778m
param *.uav[63].startX 3537m
param *.uav[63].startY 965m
param *.uav[63].startZ 539m
param *.uav[64].startX 312m
param *.uav[64].startY 1262m
param *.uav[64].startZ 540m
param *.uav[65].startX 2185m
param *.uav[65].startY 3026m
param *.uav[65].startZ 778m
param *.uav[66].startX 3537m
param *.uav[66].startY 965m
param *.uav[66].startZ 539m
param *.uav[67].startX 312m
param *.uav[67].startY 1262m
param *.uav[67].startZ 540m
param *.uav[68].startX 2185m
param *.uav[68].startY 3026m
param *.uav[68].startZ 778m
param *.uav[69].startX 3537m
param *.uav[69].startY 965m
param *.uav[69].startZ 539m
param *.uav[70].startX 3537m
param *.uav[70].startY 965m
param *.uav[70].startZ 539m
param *.uav[71].startX 312m
param *.uav[71].startY 1262m
param *.uav[71].startZ 540m
param *.uav[72].startX 2185m
param *.uav[72].startY 3026m
param *.uav[72].startZ 778m
param *.uav[73].startX 3537m
param *.uav[73].startY 965m
param *.uav[73].startZ 539m
param *.uav[74].startX 312m
param *.uav[74].startY 1262m
param *.uav[74].startZ 540m
param *.uav[75].startX 2185m
param *.uav[75].startY 3026m
param *.uav[75].startZ 778m
param *.uav[76].startX 3537m
param *.uav[76].startY 965m
param *.uav[76].startZ 539m
param *.uav[77].startX 312m
param *.uav[77].startY 1262m
param *.uav[77].startZ 540m
param *.uav[78].startX 2185m
param *.uav[78].startY 3026m
param *.uav[78].startZ 778m
param *.uav[79].startX 3537m
param *.uav[79].startY 965m
param *.uav[79].startZ 539m
param *.uav[80].startX 3537m
param *.uav[80].startY 965m
param *.uav[80].startZ 539m
param *.uav[81].startX 312m
param *.uav[81].startY 1262m
param *.uav[81].startZ 540m
param *.uav[82].startX 2185m
param *.uav[82].startY 3026m
param *.uav[82].startZ 778m
param *.uav[83].startX 3537m
param *.uav[83].startY 965m
param *.uav[83].startZ 539m
param *.uav[84].startX 312m
param *.uav[84].startY 1262m
param *.uav[84].startZ 540m
param *.uav[85].startX 2185m
param *.uav[85].startY 3026m
param *.uav[85].startZ 778m
param *.uav[86].startX 3537m
param *.uav[86].startY 965m
param *.uav[86].startZ 539m
param *.uav[87].startX 312m
param *.uav[87].startY 1262m
param *.uav[87].startZ 540m
param *.uav[88].startX 2185m
param *.uav[88].startY 3026m
param *.uav[88].startZ 778m
param *.uav[89].startX 3537m
param *.uav[89].startY 965m
param *.uav[89].startZ 539m
param *.uav[90].startX 3537m
param *.uav[90].startY 965m
param *.uav[90].startZ 539m
param *.uav[91].startX 312m
param *.uav[91].startY 1262m
param *.uav[91].startZ 540m
param *.uav[92].startX 2185m
param *.uav[92].startY 3026m
param *.uav[92].startZ 778m
param *.uav[93].startX 3537m
param *.uav[93].startY 965m
param *.uav[93].startZ 539m
param *.uav[94].startX 312m
param *.uav[94].startY 1262m
param *.uav[94].startZ 540m
param *.uav[95].startX 2185m
param *.uav[95].startY 3026m
param *.uav[95].startZ 778m
param *.uav[96].startX 3537m
param *.uav[96].startY 965m
param *.uav[96].startZ 539m
param *.uav[97].startX 312m
param *.uav[97].startY 1262m
param *.uav[97].startZ 540m
param *.uav[98].startX 2185m
param *.uav[98].startY 3026m
param *.uav[98].startZ 778m
param *.uav[99].startX 3537m
param *.uav[99].startY 965m
param *.uav[99].startZ 539m
param *.osgEarthScene.scene "\"boston.earth\""
param *.playgroundLatitude 42.3558
param *.playgroundLongitude -71.0677
param *.playgroundWidth 400m
param *.playgroundHeight 200m
param *.channelController.connectionColor "\"#0000FF40\""
param *.channelController.showConnections false
param *.uav[*].modelURL "\"quadrocopter.small.obj.15.scale.0,0,90.rot\""
param *.uav[*].labelColor "\"#FF7C00CC\""
param *.uav[*].label2Color "\"#FF7C00EE\""
param *.uav[*].batteryCapacity 5200mAh
param *.uav[*].batteryRemaining uav[index].batteryCapacity
param *.uav[*].predictionQuantile 0.95
param *.uav[*].replacementMethod 2
param *.uav[*].weightedSumWeight 0.5
param *.cs[*].modelURL "\"chargingstation_v1.osgt.2.scale.0,0,0.rot.0,0,-15e-1.trans\""
param *.cs[*].spotsWaiting 999
param *.cs[*].spotsCharging 999
param *.cs[*].chargeEffectivenessPercentage 100
param *.cs[*].nonLinearPhaseStartPercentage 85
param *.cs[*].chargeCurrent 6.0A
param *.cs[*].prioritizeFastCharge true
param *.missionControl.replacementSearchMethod 0
param *.*.timeStep 9s

scalar OsgEarthNet.uav[0] utilizationSecMission 557.08549766445
scalar OsgEarthNet.uav[0] utilizationSecMaintenance 423.57904092458
scalar OsgEarthNet.uav[0] utilizationSecCharge 3600
scalar OsgEarthNet.uav[0] utilizationSecIdle 254619.33446141
scalar OsgEarthNet.uav[0] utilizationEnergyMission 2153.8994827271
scalar OsgEarthNet.uav[0] utilizationEnergyMaintenance 2076.7623519897
scalar OsgEarthNet.uav[0] utilizationEnergyCharge 4468.484375
scalar OsgEarthNet.uav[0] utilizationEnergyOverdrawMission 0
scalar OsgEarthNet.uav[0] utilizationEnergyOverdrawMaintenance 0
scalar OsgEarthNet.uav[0] utilizationCountMissions 1
scalar OsgEarthNet.uav[0] utilizationCountManeuversMission 9
scalar OsgEarthNet.uav[0] utilizationCountManeuversMaintenance 2
scalar OsgEarthNet.uav[0] utilizationCountChargeState 1
scalar OsgEarthNet.uav[0] utilizationCountOverdrawnAfterMission 0
scalar OsgEarthNet.uav[0] utilizationCountIdleState 2
scalar OsgEarthNet.uav[0] utilizationFail 0
scalar OsgEarthNet.uav[0] simulationTime 259200
scalar OsgEarthNet.uav[1] utilizationSecMission 27372.845868275
scalar OsgEarthNet.uav[1] utilizationSecMaintenance 14647.970750051
scalar OsgEarthNet.uav[1] utilizationSecCharge 153870
scalar OsgEarthNet.uav[1] utilizationSecIdle 63309.182381673
scalar OsgEarthNet.uav[1] utilizationEnergyMission 127253.79479568
scalar OsgEarthNet.uav[1] utilizationEnergyMaintenance 68169.545192719
scalar OsgEarthNet.uav[1] utilizationEnergyCharge 191991.3581543
scalar OsgEarthNet.uav[1] utilizationEnergyOverdrawMission 0
scalar OsgEarthNet.uav[1] utilizationEnergyOverdrawMaintenance 0
scalar OsgEarthNet.uav[1] utilizationCountMissions 42
scalar OsgEarthNet.uav[1] utilizationCountManeuversMission 467
scalar OsgEarthNet.uav[1] utilizationCountManeuversMaintenance 85
scalar OsgEarthNet.uav[1] utilizationCountChargeState 42
scalar OsgEarthNet.uav[1] utilizationCountOverdrawnAfterMission 0
scalar OsgEarthNet.uav[1] utilizationCountIdleState 43
scalar OsgEarthNet.uav[1] utilizationFail 0
scalar OsgEarthNet.uav[1] simulationTime 259200
scalar OsgEarthNet.uav[2] utilizationSecMission 946.1545473523
scalar OsgEarthNet.uav[2] utilizationSecMaintenance 162.42799022119
scalar OsgEarthNet.uav[2] utilizationSecCharge 3930
scalar OsgEarthNet.uav[2] utilizationSecIdle 254161.41646243
scalar OsgEarthNet.uav[2] utilizationEnergyMission 4335.2350616455
scalar OsgEarthNet.uav[2] utilizationEnergyMaintenance 687.64260101319
scalar OsgEarthNet.uav[2] utilizationEnergyCharge 4996.2827148438
scalar OsgEarthNet.uav[2] utilizationEnergyOverdrawMission 0
scalar OsgEarthNet.uav[2] utilizationEnergyOverdrawMaintenance 0
scalar OsgEarthNet.uav[2] utilizationCountMissions 1
scalar OsgEarthNet.uav[2] utilizationCountManeuversMission 15
scalar OsgEarthNet.uav[2] utilizationCountManeuversMaintenance 2
scalar OsgEarthNet.uav[2] utilizationCountChargeState 1
scalar OsgEarthNet.uav[2] utilizationCountOverdrawnAfterMission 0
scalar OsgEarthNet.uav[2] utilizationCountIdleState 2
scalar OsgEarthNet.uav[2] utilizationFail 0
scalar OsgEarthNet.uav[2] simulationTime 259200
scalar OsgEarthNet.uav[3] utilizationSecMission 702.6942798579
scalar OsgEarthNet.uav[3] utilizationSecMaintenance 282.29565405678
scalar OsgEarthNet.uav[3] utilizationSecCharge 3840
scalar OsgEarthNet.uav[3] utilizationSecIdle 254375.00906609
scalar OsgEarthNet.uav[3] utilizationEnergyMission 3464.3949279785
scalar OsgEarthNet.uav[3] utilizationEnergyMaintenance 1410.0579338074
scalar OsgEarthNet.uav[3] utilizationEnergyCharge 4874.4545898438
scalar OsgEarthNet.uav[3] utilizationEnergyOverdrawMission 0
scalar OsgEarthNet.uav[3] utilizationEnergyOverdrawMaintenance 0
scalar OsgEarthNet.uav[3] utilizationCountMissions 1
scalar OsgEarthNet.uav[3] utilizationCountManeuversMission 10
scalar OsgEarthNet.uav[3] utilizationCountManeuversMaintenance 2
scalar OsgEarthNet.uav[3] utilizationCountChargeState 1
scalar OsgEarthNet.uav[3] utilizationCountOverdrawnAfterMission 0
scalar OsgEarthNet.uav[3] utilizationCountIdleState 2
scalar OsgEarthNet.uav[3] utilizationFail 0
scalar OsgEarthNet.uav[3] simulationTime 259200
scalar OsgEarthNet.uav[4] utilizationSecMission 28472.403426864
scalar OsgEarthNet.uav[4] utilizationSecMaintenance 15740.514433263
scalar OsgEarthNet.uav[4] utilizationSecCharge 162871.70217717
scalar OsgEarthNet.uav[4] utilizationSecIdle 52115.378962708
scalar OsgEarthNet.uav[4] utilizationEnergyMission 132388.03342438
scalar OsgEarthNet.uav[4] utilizationEnergyMaintenance 73145.143562317
scalar OsgEarthNet.uav[4] utilizationEnergyCharge 203642.53173828
scalar OsgEarthNet.uav[4] utilizationEnergyOverdrawMission 0
scalar OsgEarthNet.uav[4] utilizationEnergyOverdrawMaintenance 0
scalar OsgEarthNet.uav[4] utilizationCountMissions 45
scalar OsgEarthNet.uav[4] utilizationCountManeuversMission 491
scalar OsgEarthNet.uav[4] utilizationCountManeuversMaintenance 90
scalar OsgEarthNet.uav[4] utilizationCountChargeState 45
scalar OsgEarthNet.uav[4] utilizationCountOverdrawnAfterMission 0
scalar OsgEarthNet.uav[4] utilizationCountIdleState 45
scalar OsgEarthNet.uav[4] utilizationFail 0
scalar OsgEarthNet.uav[4] simulationTime 259200
scalar OsgEarthNet.uav[5] utilizationSecMission 30049.935025522
scalar OsgEarthNet.uav[5] utilizationSecMaintenance 13822.813086173
scalar OsgEarthNet.uav[5] utilizationSecCharge 160828.07577789
scalar OsgEarthNet.uav[5] utilizationSecIdle 54499.175110411
scalar OsgEarthNet.uav[5] utilizationEnergyMission 137537.78513336
scalar OsgEarthNet.uav[5] utilizationEnergyMaintenance 64938.741428375
scalar OsgEarthNet.uav[5] utilizationEnergyCharge 200136.94384766
scalar OsgEarthNet.uav[5] utilizationEnergyOverdrawMission 0
scalar OsgEarthNet.uav[5] utilizationEnergyOverdrawMaintenance 0
scalar OsgEarthNet.uav[5] utilizationCountMissions 45
scalar OsgEarthNet.uav[5] utilizationCountManeuversMission 488
scalar OsgEarthNet.uav[5] utilizationCountManeuversMaintenance 90
scalar OsgEarthNet.uav[5] utilizationCountChargeState 45
scalar OsgEarthNet.uav[5] utilizationCountOverdrawnAfterMission 0
scalar OsgEarthNet.uav[5] utilizationCountIdleState 45
scalar OsgEarthNet.uav[5] utilizationFail 0
scalar OsgEarthNet.uav[5] simulationTime 259200
scalar OsgEarthNet.uav[6] utilizationSecMission 29577.582431171
scalar OsgEarthNet.uav[6] utilizationSecMaintenance 13326.051824502
scalar OsgEarthNet.uav[6] utilizationSecCharge 158934.85108338
scalar OsgEarthNet.uav[6] utilizationSecIdle 57361.51366095
scalar OsgEarthNet.uav[6] utilizationEnergyMission 135341.43289566
scalar OsgEarthNet.uav[6] utilizationEnergyMaintenance 62068.799282074
scalar OsgEarthNet.uav[6] utilizationEnergyCharge 197490.04248047
scalar OsgEarthNet.uav[6] utilizationEnergyOverdrawMission 0
scalar OsgEarthNet.uav[6] utilizationEnergyOverdrawMaintenance 0
scalar OsgEarthNet.uav[6] utilizationCountMissions 44
scalar OsgEarthNet.uav[6] utilizationCountManeuversMission 476
scalar OsgEarthNet.uav[6] utilizationCountManeuversMaintenance 88
scalar OsgEarthNet.uav[6] utilizationCountChargeState 44
scalar OsgEarthNet.uav[6] utilizationCountOverdrawnAfterMission 0
scalar OsgEarthNet.uav[6] utilizationCountIdleState 44
scalar OsgEarthNet.uav[6] utilizationFail 0
scalar OsgEarthNet.uav[6] simulationTime 259200
scalar OsgEarthNet.uav[7] utilizationSecMission 18851.356334612
scalar OsgEarthNet.uav[7] utilizationSecMaintenance 9171.5892139059
scalar OsgEarthNet.uav[7] utilizationSecCharge 102030
scalar OsgEarthNet.uav[7] utilizationSecIdle 129147.05345148
scalar OsgEarthNet.uav[7] utilizationEnergyMission 86013.02987334
scalar OsgEarthNet.uav[7] utilizationEnergyMaintenance 43305.817470551
scalar OsgEarthNet.uav[7] utilizationEnergyCharge 126843.62329102
scalar OsgEarthNet.uav[7] utilizationEnergyOverdrawMission 0
scalar OsgEarthNet.uav[7] utilizationEnergyOverdrawMaintenance 0
scalar OsgEarthNet.uav[7] utilizationCountMissions 28
scalar OsgEarthNet.uav[7] utilizationCountManeuversMission 302
scalar OsgEarthNet.uav[7] utilizationCountManeuversMaintenance 57
scalar OsgEarthNet.uav[7] utilizationCountChargeState 28
scalar OsgEarthNet.uav[7] utilizationCountOverdrawnAfterMission 0
scalar OsgEarthNet.uav[7] utilizationCountIdleState 29
scalar OsgEarthNet.uav[7] utilizationFail 0
scalar OsgEarthNet.uav[7] simulationTime 259200
scalar OsgEarthNet.uav[8] utilizationSecMission 21741.442850435
scalar OsgEarthNet.uav[8] utilizationSecMaintenance 10421.495609377
scalar OsgEarthNet.uav[8] utilizationSecCharge 115858.21238039
scalar OsgEarthNet.uav[8] utilizationSecIdle 111178.84815979
scalar OsgEarthNet.uav[8] utilizationEnergyMission 101083.97154236
scalar OsgEarthNet.uav[8] utilizationEnergyMaintenance 49074.330120087
scalar OsgEarthNet.uav[8] utilizationEnergyCharge 145315.37329102
scalar OsgEarthNet.uav[8] utilizationEnergyOverdrawMission 0
scalar OsgEarthNet.uav[8] utilizationEnergyOverdrawMaintenance 0
scalar OsgEarthNet.uav[8] utilizationCountMissions 32
scalar OsgEarthNet.uav[8] utilizationCountManeuversMission 349
scalar OsgEarthNet.uav[8] utilizationCountManeuversMaintenance 64
scalar OsgEarthNet.uav[8] utilizationCountChargeState 32
scalar OsgEarthNet.uav[8] utilizationCountOverdrawnAfterMission 0
scalar OsgEarthNet.uav[8] utilizationCountIdleState 32
scalar OsgEarthNet.uav[8] utilizationFail 0
scalar OsgEarthNet.uav[8] simulationTime 259200
scalar OsgEarthNet.uav[9] utilizationSecMission 836.77707522227
scalar OsgEarthNet.uav[9] utilizationSecMaintenance 217.0347828456
scalar OsgEarthNet.uav[9] utilizationSecCharge 3930
scalar OsgEarthNet.uav[9] utilizationSecIdle 254216.18714193
scalar OsgEarthNet.uav[9] utilizationEnergyMission 3915.8103790283
scalar OsgEarthNet.uav[9] utilizationEnergyMaintenance 1091.3574028015
scalar OsgEarthNet.uav[9] utilizationEnergyCharge 5007.1708984375
scalar OsgEarthNet.uav[9] utilizationEnergyOverdrawMission 0
scalar OsgEarthNet.uav[9] utilizationEnergyOverdrawMaintenance 0
scalar OsgEarthNet.uav[9] utilizationCountMissions 1
scalar OsgEarthNet.uav[9] utilizationCountManeuversMission 13
scalar OsgEarthNet.uav[9] utilizationCountManeuversMaintenance 2
scalar OsgEarthNet.uav[9] utilizationCountChargeState 1
scalar OsgEarthNet.uav[9] utilizationCountOverdrawnAfterMission 0
scalar OsgEarthNet.uav[9] utilizationCountIdleState 2
scalar OsgEarthNet.uav[9] utilizationFail 0
scalar OsgEarthNet.uav[9] simulationTime 259200
scalar OsgEarthNet.uav[10] utilizationSecMission 760.62515258028
scalar OsgEarthNet.uav[10] utilizationSecMaintenance 293.6438949726
scalar OsgEarthNet.uav[10] utilizationSecCharge 3930
scalar OsgEarthNet.uav[10] utilizationSecIdle 254215.72995245
scalar OsgEarthNet.uav[10] utilizationEnergyMission 3699.3472290039
scalar OsgEarthNet.uav[10] utilizationEnergyMaintenance 1357.566986084
scalar OsgEarthNet.uav[10] utilizationEnergyCharge 5056.912109375
scalar OsgEarthNet.uav[10] utilizationEnergyOverdrawMission 0
scalar OsgEarthNet.uav[10] utilizationEnergyOverdrawMaintenance 0
scalar OsgEarthNet.uav[10] utilizationCountMissions 1
scalar OsgEarthNet.uav[10] utilizationCountManeuversMission 12
scalar OsgEarthNet.uav[10] utilizationCountManeuversMaintenance 2
scalar OsgEarthNet.uav[10] utilizationCountChargeState 1
scalar OsgEarthNet.uav[10] utilizationCountOverdrawnAfterMission 0
scalar OsgEarthNet.uav[10] utilizationCountIdleState 2
scalar OsgEarthNet.uav[10] utilizationFail 0
scalar OsgEarthNet.uav[10] simulationTime 259200
scalar OsgEarthNet.uav[11] utilizationSecMission 581.2023559588
scalar OsgEarthNet.uav[11] utilizationSecMaintenance 387.12609113476
scalar OsgEarthNet.uav[11] utilizationSecCharge 3530
scalar OsgEarthNet.uav[11] utilizationSecIdle 254701.67055291
scalar OsgEarthNet.uav[11] utilizationEnergyMission 2529.8180084229
scalar OsgEarthNet.uav[11] utilizationEnergyMaintenance 1812.9204826355
scalar OsgEarthNet.uav[11] utilizationEnergyCharge 4342.7333984375
scalar OsgEarthNet.uav[11] utilizationEnergyOverdrawMission 0
scalar OsgEarthNet.uav[11] utilizationEnergyOverdrawMaintenance 0
scalar OsgEarthNet.uav[11] utilizationCountMissions 1
scalar OsgEarthNet.uav[11] utilizationCountManeuversMission 8
scalar OsgEarthNet.uav[11] utilizationCountManeuversMaintenance 2
scalar OsgEarthNet.uav[11] utilizationCountChargeState 1
scalar OsgEarthNet.uav[11] utilizationCountOverdrawnAfterMission 0
scalar OsgEarthNet.uav[11] utilizationCountIdleState 2
scalar OsgEarthNet.uav[11] utilizationFail 0
scalar OsgEarthNet.uav[11] simulationTime 259200
scalar OsgEarthNet.uav[12] utilizationSecMission 26896.702528808
scalar OsgEarthNet.uav[12] utilizationSecMaintenance 9749.4789491194
scalar OsgEarthNet.uav[12] utilizationSecCharge 133880
scalar OsgEarthNet.uav[12] utilizationSecIdle 88673.817522072
scalar OsgEarthNet.uav[12] utilizationEnergyMission 123044.24666595
scalar OsgEarthNet.uav[12] utilizationEnergyMaintenance 44896.490562439
scalar OsgEarthNet.uav[12] utilizationEnergyCharge 167764.51806641
scalar OsgEarthNet.uav[12] utilizationEnergyOverdrawMission 0
scalar OsgEarthNet.uav[12] utilizationEnergyOverdrawMaintenance 0
scalar OsgEarthNet.uav[12] utilizationCountMissions 36
scalar OsgEarthNet.uav[12] utilizationCountManeuversMission 427
scalar OsgEarthNet.uav[12] utilizationCountManeuversMaintenance 72
scalar OsgEarthNet.uav[12] utilizationCountChargeState 36
scalar OsgEarthNet.uav[12] utilizationCountOverdrawnAfterMission 0
scalar OsgEarthNet.uav[12] utilizationCountIdleState 37
scalar OsgEarthNet.uav[12] utilizationFail 0
scalar OsgEarthNet.uav[12] simulationTime 259200
scalar OsgEarthNet.uav[13] utilizationSecMission 684.4732299383
scalar OsgEarthNet.uav[13] utilizationSecMaintenance 298.56834692969
scalar OsgEarthNet.uav[13] utilizationSecCharge 3770
scalar OsgEarthNet.uav[13] utilizationSecIdle 254446.95742313
scalar OsgEarthNet.uav[13] utilizationEnergyMission 3248.1226654053
scalar OsgEarthNet.uav[13] utilizationEnergyMaintenance 1512.9216537476
scalar OsgEarthNet.uav[13] utilizationEnergyCharge 4761.0444335938
scalar OsgEarthNet.uav[13] utilizationEnergyOverdrawMission 0
scalar OsgEarthNet.uav[13] utilizationEnergyOverdrawMaintenance 0
scalar OsgEarthNet.uav[13] utilizationCountMissions 1
scalar OsgEarthNet.uav[13] utilizationCountManeuversMission 11
scalar OsgEarthNet.uav[13] utilizationCountManeuversMaintenance 2
scalar OsgEarthNet.uav[13] utilizationCountChargeState 1
scalar OsgEarthNet.uav[13] utilizationCountOverdrawnAfterMission 0
scalar OsgEarthNet.uav[13] utilizationCountIdleState 2
scalar OsgEarthNet.uav[13] utilizationFail 0
scalar OsgEarthNet.uav[13] simulationTime 259200
scalar OsgEarthNet.uav[14] utilizationSecMission 28295.829459284
scalar OsgEarthNet.uav[14] utilizationSecMaintenance 13874.698867223
scalar OsgEarthNet.uav[14] utilizationSecCharge 158071.11806623
scalar OsgEarthNet.uav[14] utilizationSecIdle 58958.352607263
scalar OsgEarthNet.uav[14] utilizationEnergyMission 132508.30981827
scalar OsgEarthNet.uav[14] utilizationEnergyMaintenance 64924.837490082
scalar OsgEarthNet.uav[14] utilizationEnergyCharge 196961.91699219
scalar OsgEarthNet.uav[14] utilizationEnergyOverdrawMission 0
scalar OsgEarthNet.uav[14] utilizationEnergyOverdrawMaintenance 0
scalar OsgEarthNet.uav[14] utilizationCountMissions 44
scalar OsgEarthNet.uav[14] utilizationCountManeuversMission 482
scalar OsgEarthNet.uav[14] utilizationCountManeuversMaintenance 88
scalar OsgEarthNet.uav[14] utilizationCountChargeState 44
scalar OsgEarthNet.uav[14] utilizationCountOverdrawnAfterMission 0
scalar OsgEarthNet.uav[14] utilizationCountIdleState 44
scalar OsgEarthNet.uav[14] utilizationFail 0
scalar OsgEarthNet.uav[14] simulationTime 259200
scalar OsgEarthNet.uav[15] utilizationSecMission 1514.5726658684
scalar OsgEarthNet.uav[15] utilizationSecMaintenance 541.64423497324
scalar OsgEarthNet.uav[15] utilizationSecCharge 7760
scalar OsgEarthNet.uav[15] utilizationSecIdle 249383.78209916
scalar OsgEarthNet.uav[15] utilizationEnergyMission 7161.417892456
scalar OsgEarthNet.uav[15] utilizationEnergyMaintenance 2586.1000900269
scalar OsgEarthNet.uav[15] utilizationEnergyCharge 9871.546875
scalar OsgEarthNet.uav[15] utilizationEnergyOverdrawMission 0
scalar OsgEarthNet.uav[15] utilizationEnergyOverdrawMaintenance 0
scalar OsgEarthNet.uav[15] utilizationCountMissions 2
scalar OsgEarthNet.uav[15] utilizationCountManeuversMission 26
scalar OsgEarthNet.uav[15] utilizationCountManeuversMaintenance 4
scalar OsgEarthNet.uav[15] utilizationCountChargeState 2
scalar OsgEarthNet.uav[15] utilizationCountOverdrawnAfterMission 0
scalar OsgEarthNet.uav[15] utilizationCountIdleState 3
scalar OsgEarthNet.uav[15] utilizationFail 0
scalar OsgEarthNet.uav[15] simulationTime 259200
scalar OsgEarthNet.uav[16] utilizationSecMission 684.4732299383
scalar OsgEarthNet.uav[16] utilizationSecMaintenance 298.56834692969
scalar OsgEarthNet.uav[16] utilizationSecCharge 3750
scalar OsgEarthNet.uav[16] utilizationSecIdle 254466.95742313
scalar OsgEarthNet.uav[16] utilizationEnergyMission 3358.3832244873
scalar OsgEarthNet.uav[16] utilizationEnergyMaintenance 1329.2480697632
scalar OsgEarthNet.uav[16] utilizationEnergyCharge 4687.634765625
scalar OsgEarthNet.uav[16] utilizationEnergyOverdrawMission 0
scalar OsgEarthNet.uav[16] utilizationEnergyOverdrawMaintenance 0
scalar OsgEarthNet.uav[16] utilizationCountMissions 1
scalar OsgEarthNet.uav[16] utilizationCountManeuversMission 11
scalar OsgEarthNet.uav[16] utilizationCountManeuversMaintenance 2
scalar OsgEarthNet.uav[16] utilizationCountChargeState 1
scalar OsgEarthNet.uav[16] utilizationCountOverdrawnAfterMission 0
scalar OsgEarthNet.uav[16] utilizationCountIdleState 2
scalar OsgEarthNet.uav[16] utilizationFail 0
scalar OsgEarthNet.uav[16] simulationTime 259200
scalar OsgEarthNet.uav[17] utilizationSecMission 23373.294217703
scalar OsgEarthNet.uav[17] utilizationSecMaintenance 13485.360254499
scalar OsgEarthNet.uav[17] utilizationSecCharge 137480.15404099
scalar OsgEarthNet.uav[17] utilizationSecIdle 84861.190486804
scalar OsgEarthNet.uav[17] utilizationEnergyMission 108687.64006042
scalar OsgEarthNet.uav[17] utilizationEnergyMaintenance 63790.392250061
scalar OsgEarthNet.uav[17] utilizationEnergyCharge 171865.58837891
scalar OsgEarthNet.uav[17] utilizationEnergyOverdrawMission 0
scalar OsgEarthNet.uav[17] utilizationEnergyOverdrawMaintenance 0
scalar OsgEarthNet.uav[17] utilizationCountMissions 38
scalar OsgEarthNet.uav[17] utilizationCountManeuversMission 392
scalar OsgEarthNet.uav[17] utilizationCountManeuversMaintenance 76
scalar OsgEarthNet.uav[17] utilizationCountChargeState 38
scalar OsgEarthNet.uav[17] utilizationCountOverdrawnAfterMission 0
scalar OsgEarthNet.uav[17] utilizationCountIdleState 38
scalar OsgEarthNet.uav[17] utilizationFail 0
scalar OsgEarthNet.uav[17] simulationTime 259200
scalar OsgEarthNet.uav[18] utilizationSecMission 829.90295093042
scalar OsgEarthNet.uav[18] utilizationSecMaintenance 218.07310244337
scalar OsgEarthNet.uav[18] utilizationSecCharge 3880
scalar OsgEarthNet.uav[18] utilizationSecIdle 254272.02294663
scalar OsgEarthNet.uav[18] utilizationEnergyMission 3950.2046203613
scalar OsgEarthNet.uav[18] utilizationEnergyMaintenance 968.1258354187
scalar OsgEarthNet.uav[18] utilizationEnergyCharge 4918.3325195312
scalar OsgEarthNet.uav[18] utilizationEnergyOverdrawMission 0
scalar OsgEarthNet.uav[18] utilizationEnergyOverdrawMaintenance 0
scalar OsgEarthNet.uav[18] utilizationCountMissions 1
scalar OsgEarthNet.uav[18] utilizationCountManeuversMission 12
scalar OsgEarthNet.uav[18] utilizationCountManeuversMaintenance 2
scalar OsgEarthNet.uav[18] utilizationCountChargeState 1
scalar OsgEarthNet.uav[18] utilizationCountOverdrawnAfterMission 0
scalar OsgEarthNet.uav[18] utilizationCountIdleState 2
scalar OsgEarthNet.uav[18] utilizationFail 0
scalar OsgEarthNet.uav[18] simulationTime 259200
scalar OsgEarthNet.uav[19] utilizationSecMission 684.4732299383
scalar OsgEarthNet.uav[19] utilizationSecMaintenance 298.56834692969
scalar OsgEarthNet.uav[19] utilizationSecCharge 3850
scalar OsgEarthNet.uav[19] utilizationSecIdle 254366.95742313
scalar OsgEarthNet.uav[19] utilizationEnergyMission 3352.7703857422
scalar OsgEarthNet.uav[19] utilizationEnergyMaintenance 1506.5690536499
scalar OsgEarthNet.uav[19] utilizationEnergyCharge 4859.3369140625
scalar OsgEarthNet.uav[19] utilizationEnergyOverdrawMission 0
scalar OsgEarthNet.uav[19] utilizationEnergyOverdrawMaintenance 0
scalar OsgEarthNet.uav[19] utilizationCountMissions 1
scalar OsgEarthNet.uav[19] utilizationCountManeuversMission 11
scalar OsgEarthNet.uav[19] utilizationCountManeuversMaintenance 2
scalar OsgEarthNet.uav[19] utilizationCountChargeState 1
scalar OsgEarthNet.uav[19] utilizationCountOverdrawnAfterMission 0
scalar OsgEarthNet.uav[19] utilizationCountIdleState 2
scalar OsgEarthNet.uav[19] utilizationFail 0
scalar OsgEarthNet.uav[19] simulationTime 259200
scalar OsgEarthNet.uav[20] utilizationSecMission 836.77707522227
scalar OsgEarthNet.uav[20] utilizationSecMaintenance 217.0347828456
scalar OsgEarthNet.uav[20] utilizationSecCharge 3920
scalar OsgEarthNet.uav[20] utilizationSecIdle 254226.18714193
scalar OsgEarthNet.uav[20] utilizationEnergyMission 3880.122253418
scalar OsgEarthNet.uav[20] utilizationEnergyMaintenance 1115.9575920105
scalar OsgEarthNet.uav[20] utilizationEnergyCharge 4996.0810546875
scalar OsgEarthNet.uav[20] utilizationEnergyOverdrawMission 0
scalar OsgEarthNet.uav[20] utilizationEnergyOverdrawMaintenance 0
scalar OsgEarthNet.uav[20] utilizationCountMissions 1
scalar OsgEarthNet.uav[20] utilizationCountManeuversMission 13
scalar OsgEarthNet.uav[20] utilizationCountManeuversMaintenance 2
scalar OsgEarthNet.uav[20] utilizationCountChargeState 1
scalar OsgEarthNet.uav[20] utilizationCountOverdrawnAfterMission 0
scalar OsgEarthNet.uav[20] utilizationCountIdleState 2
scalar OsgEarthNet.uav[20] utilizationFail 0
scalar OsgEarthNet.uav[20] simulationTime 259200
scalar OsgEarthNet.uav[21] utilizationSecMission 27272.028125347
scalar OsgEarthNet.uav[21] utilizationSecMaintenance 12429.989834371
scalar OsgEarthNet.uav[21] utilizationSecCharge 147580
scalar OsgEarthNet.uav[21] utilizationSecIdle 71917.981040282
scalar OsgEarthNet.uav[21] utilizationEnergyMission 126500.83099365
scalar OsgEarthNet.uav[21] utilizationEnergyMaintenance 57844.361949921
scalar OsgEarthNet.uav[21] utilizationEnergyCharge 184448.01074219
scalar OsgEarthNet.uav[21] utilizationEnergyOverdrawMission 0
scalar OsgEarthNet.uav[21] utilizationEnergyOverdrawMaintenance 0
scalar OsgEarthNet.uav[21] utilizationCountMissions 40
scalar OsgEarthNet.uav[21] utilizationCountManeuversMission 446
scalar OsgEarthNet.uav[21] utilizationCountManeuversMaintenance 80
scalar OsgEarthNet.uav[21] utilizationCountChargeState 40
scalar OsgEarthNet.uav[21] utilizationCountOverdrawnAfterMission 0
scalar OsgEarthNet.uav[21] utilizationCountIdleState 41
scalar OsgEarthNet.uav[21] utilizationFail 0
scalar OsgEarthNet.uav[21] simulationTime 259200
scalar OsgEarthNet.uav[22] utilizationSecMission 694.00169469977
scalar OsgEarthNet.uav[22] utilizationSecMaintenance 338.49695459722
scalar OsgEarthNet.uav[22] utilizationSecCharge 3740
scalar OsgEarthNet.uav[22] utilizationSecIdle 254427.5003507
scalar OsgEarthNet.uav[22] utilizationEnergyMission 3141.8149414063
scalar OsgEarthNet.uav[22] utilizationEnergyMaintenance 1563.7453117371
scalar OsgEarthNet.uav[22] utilizationEnergyCharge 4705.5610351562
scalar OsgEarthNet.uav[22] utilizationEnergyOverdrawMission 0
scalar OsgEarthNet.uav[22] utilizationEnergyOverdrawMaintenance 0
scalar OsgEarthNet.uav[22] utilizationCountMissions 1
scalar OsgEarthNet.uav[22] utilizationCountManeuversMission 13
scalar OsgEarthNet.uav[22] utilizationCountManeuversMaintenance 2
scalar OsgEarthNet.uav[22] utilizationCountChargeState 1
scalar OsgEarthNet.uav[22] utilizationCountOverdrawnAfterMission 0
scalar OsgEarthNet.uav[22] utilizationCountIdleState 2
scalar OsgEarthNet.uav[22] utilizationFail 0
scalar OsgEarthNet.uav[22] simulationTime 259200
scalar OsgEarthNet.uav[23] utilizationSecMission 23367.318734984
scalar OsgEarthNet.uav[23] utilizationSecMaintenance 11623.728785212
scalar OsgEarthNet.uav[23] utilizationSecCharge 129500
scalar OsgEarthNet.uav[23] utilizationSecIdle 94708.951479804
scalar OsgEarthNet.uav[23] utilizationEnergyMission 106826.48563385
scalar OsgEarthNet.uav[23] utilizationEnergyMaintenance 54878.238643646
scalar OsgEarthNet.uav[23] utilizationEnergyCharge 162107.14257812
scalar OsgEarthNet.uav[23] utilizationEnergyOverdrawMission 0
scalar OsgEarthNet.uav[23] utilizationEnergyOverdrawMaintenance 0
scalar OsgEarthNet.uav[23] utilizationCountMissions 35
scalar OsgEarthNet.uav[23] utilizationCountManeuversMission 379
scalar OsgEarthNet.uav[23] utilizationCountManeuversMaintenance 70
scalar OsgEarthNet.uav[23] utilizationCountChargeState 35
scalar OsgEarthNet.uav[23] utilizationCountOverdrawnAfterMission 0
scalar OsgEarthNet.uav[23] utilizationCountIdleState 36
scalar OsgEarthNet.uav[23] utilizationFail 0
scalar OsgEarthNet.uav[23] simulationTime 259200
scalar OsgEarthNet.uav[24] utilizationSecMission 7865.1301114766
scalar OsgEarthNet.uav[24] utilizationSecMaintenance 3278.0153376124
scalar OsgEarthNet.uav[24] utilizationSecCharge 40990
scalar OsgEarthNet.uav[24] utilizationSecIdle 207066.85355091
scalar OsgEarthNet.uav[24] utilizationEnergyMission 36160.724647522
scalar OsgEarthNet.uav[24] utilizationEnergyMaintenance 15437.087753296
scalar OsgEarthNet.uav[24] utilizationEnergyCharge 51425.623046875
scalar OsgEarthNet.uav[24] utilizationEnergyOverdrawMission 0
scalar OsgEarthNet.uav[24] utilizationEnergyOverdrawMaintenance 0
scalar OsgEarthNet.uav[24] utilizationCountMissions 11
scalar OsgEarthNet.uav[24] utilizationCountManeuversMission 131
scalar OsgEarthNet.uav[24] utilizationCountManeuversMaintenance 22
scalar OsgEarthNet.uav[24] utilizationCountChargeState 11
scalar OsgEarthNet.uav[24] utilizationCountOverdrawnAfterMission 0
scalar OsgEarthNet.uav[24] utilizationCountIdleState 12
scalar OsgEarthNet.uav[24] utilizationFail 0
scalar OsgEarthNet.uav[24] simulationTime 259200
scalar OsgEarthNet.uav[25] utilizationSecMission 694.00169469977
scalar OsgEarthNet.uav[25] utilizationSecMaintenance 338.49695459722
scalar OsgEarthNet.uav[25] utilizationSecCharge 3750
scalar OsgEarthNet.uav[25] utilizationSecIdle 254417.5003507
scalar OsgEarthNet.uav[25] utilizationEnergyMission 3196.3407974243
scalar OsgEarthNet.uav[25] utilizationEnergyMaintenance 1539.1508293152
scalar OsgEarthNet.uav[25] utilizationEnergyCharge 4735.4931640625
scalar OsgEarthNet.uav[25] utilizationEnergyOverdrawMission 0
scalar OsgEarthNet.uav[25] utilizationEnergyOverdrawMaintenance 0
scalar OsgEarthNet.uav[25] utilizationCountMissions 1
scalar OsgEarthNet.uav[25] utilizationCountManeuversMission 13
scalar OsgEarthNet.uav[25] utilizationCountManeuversMaintenance 2
scalar OsgEarthNet.uav[25] utilizationCountChargeState 1
scalar OsgEarthNet.uav[25] utilizationCountOverdrawnAfterMission 0
scalar OsgEarthNet.uav[25] utilizationCountIdleState 2
scalar OsgEarthNet.uav[25] utilizationFail 0
scalar OsgEarthNet.uav[25] simulationTime 259200
scalar OsgEarthNet.uav[26] utilizationSecMission 684.4732299383
scalar OsgEarthNet.uav[26] utilizationSecMaintenance 298.56834692969
scalar OsgEarthNet.uav[26] utilizationSecCharge 3690
scalar OsgEarthNet.uav[26] utilizationSecIdle 254526.95742313
scalar OsgEarthNet.uav[26] utilizationEnergyMission 3130.4655456543
scalar OsgEarthNet.uav[26] utilizationEnergyMaintenance 1518.2139511108
scalar OsgEarthNet.uav[26] utilizationEnergyCharge 4648.681640625
scalar OsgEarthNet.uav[26] utilizationEnergyOverdrawMission 0
scalar OsgEarthNet.uav[26] utilizationEnergyOverdrawMaintenance 0
scalar OsgEarthNet.uav[26] utilizationCountMissions 1
scalar OsgEarthNet.uav[26] utilizationCountManeuversMission 11
scalar OsgEarthNet.uav[26] utilizationCountManeuversMaintenance 2
scalar OsgEarthNet.uav[26] utilizationCountChargeState 1
scalar OsgEarthNet.uav[26] utilizationCountOverdrawnAfterMission 0
scalar OsgEarthNet.uav[26] utilizationCountIdleState 2
scalar OsgEarthNet.uav[26] utilizationFail 0
scalar OsgEarthNet.uav[26] simulationTime 259200
scalar OsgEarthNet.uav[27] utilizationSecMission 28965.030103361
scalar OsgEarthNet.uav[27] utilizationSecMaintenance 13988.836849534
scalar OsgEarthNet.uav[27] utilizationSecCharge 160170
scalar OsgEarthNet.uav[27] utilizationSecIdle 56076.132047105
scalar OsgEarthNet.uav[27] utilizationEnergyMission 134217.35948563
scalar OsgEarthNet.uav[27] utilizationEnergyMaintenance 65005.343074799
scalar OsgEarthNet.uav[27] utilizationEnergyCharge 199100.74487305
scalar OsgEarthNet.uav[27] utilizationEnergyOverdrawMission 0
scalar OsgEarthNet.uav[27] utilizationEnergyOverdrawMaintenance 0
scalar OsgEarthNet.uav[27] utilizationCountMissions 44
scalar OsgEarthNet.uav[27] utilizationCountManeuversMission 487
scalar OsgEarthNet.uav[27] utilizationCountManeuversMaintenance 88
scalar OsgEarthNet.uav[27] utilizationCountChargeState 44
scalar OsgEarthNet.uav[27] utilizationCountOverdrawnAfterMission 0
scalar OsgEarthNet.uav[27] utilizationCountIdleState 45
scalar OsgEarthNet.uav[27] utilizationFail 0
scalar OsgEarthNet.uav[27] simulationTime 259200
scalar OsgEarthNet.uav[28] utilizationSecMission 887.1741082606
scalar OsgEarthNet.uav[28] utilizationSecMaintenance 171.13387461676
scalar OsgEarthNet.uav[28] utilizationSecCharge 3810
scalar OsgEarthNet.uav[28] utilizationSecIdle 254331.69101712
scalar OsgEarthNet.uav[28] utilizationEnergyMission 3977.9497680664
scalar OsgEarthNet.uav[28] utilizationEnergyMaintenance 864.78942108154
scalar OsgEarthNet.uav[28] utilizationEnergyCharge 4852.8505859375
scalar OsgEarthNet.uav[28] utilizationEnergyOverdrawMission 0
scalar OsgEarthNet.uav[28] utilizationEnergyOverdrawMaintenance 0
scalar OsgEarthNet.uav[28] utilizationCountMissions 1
scalar OsgEarthNet.uav[28] utilizationCountManeuversMission 14
scalar OsgEarthNet.uav[28] utilizationCountManeuversMaintenance 2
scalar OsgEarthNet.uav[28] utilizationCountChargeState 1
scalar OsgEarthNet.uav[28] utilizationCountOverdrawnAfterMission 0
scalar OsgEarthNet.uav[28] utilizationCountIdleState 2
scalar OsgEarthNet.uav[28] utilizationFail 0
scalar OsgEarthNet.uav[28] simulationTime 259200
scalar OsgEarthNet.uav[29] utilizationSecMission 24815.60013386
scalar OsgEarthNet.uav[29] utilizationSecMaintenance 10380.534037499
scalar OsgEarthNet.uav[29] utilizationSecCharge 127457.69860727
scalar OsgEarthNet.uav[29] utilizationSecIdle 96546.166221374
scalar OsgEarthNet.uav[29] utilizationEnergyMission 114173.89737701
scalar OsgEarthNet.uav[29] utilizationEnergyMaintenance 49433.640701294
scalar OsgEarthNet.uav[29] utilizationEnergyCharge 159902.78643799
scalar OsgEarthNet.uav[29] utilizationEnergyOverdrawMission 0
scalar OsgEarthNet.uav[29] utilizationEnergyOverdrawMaintenance 0
scalar OsgEarthNet.uav[29] utilizationCountMissions 35
scalar OsgEarthNet.uav[29] utilizationCountManeuversMission 404
scalar OsgEarthNet.uav[29] utilizationCountManeuversMaintenance 70
scalar OsgEarthNet.uav[29] utilizationCountChargeState 35
scalar OsgEarthNet.uav[29] utilizationCountOverdrawnAfterMission 0
scalar OsgEarthNet.uav[29] utilizationCountIdleState 35
scalar OsgEarthNet.uav[29] utilizationFail 0
scalar OsgEarthNet.uav[29] simulationTime 259200
scalar OsgEarthNet.uav[30] utilizationSecMission 760.62515258028
scalar OsgEarthNet.uav[30] utilizationSecMaintenance 291.95923480269
scalar OsgEarthNet.uav[30] utilizationSecCharge 3880
scalar OsgEarthNet.uav[30] utilizationSecIdle 254267.41461262
scalar OsgEarthNet.uav[30] utilizationEnergyMission 3445.1602859497
scalar OsgEarthNet.uav[30] utilizationEnergyMaintenance 1463.4438705444
scalar OsgEarthNet.uav[30] utilizationEnergyCharge 4908.607421875
scalar OsgEarthNet.uav[30] utilizationEnergyOverdrawMission 0
scalar OsgEarthNet.uav[30] utilizationEnergyOverdrawMaintenance 0
scalar OsgEarthNet.uav[30] utilizationCountMissions 1
scalar OsgEarthNet.uav[30] utilizationCountManeuversMission 12
scalar OsgEarthNet.uav[30] utilizationCountManeuversMaintenance 2
scalar OsgEarthNet.uav[30] utilizationCountChargeState 1
scalar OsgEarthNet.uav[30] utilizationCountOverdrawnAfterMission 0
scalar OsgEarthNet.uav[30] utilizationCountIdleState 2
scalar OsgEarthNet.uav[30] utilizationFail 0
scalar OsgEarthNet.uav[30] simulationTime 259200
scalar OsgEarthNet.uav[31] utilizationSecMission 24515.11413483
scalar OsgEarthNet.uav[31] utilizationSecMaintenance 10302.293509267
scalar OsgEarthNet.uav[31] utilizationSecCharge 126687.39816739
scalar OsgEarthNet.uav[31] utilizationSecIdle 97695.193188514
scalar OsgEarthNet.uav[31] utilizationEnergyMission 112650.42146301
scalar OsgEarthNet.uav[31] utilizationEnergyMaintenance 48808.515052795
scalar OsgEarthNet.uav[31] utilizationEnergyCharge 158742.77661133
scalar OsgEarthNet.uav[31] utilizationEnergyOverdrawMission 0
scalar OsgEarthNet.uav[31] utilizationEnergyOverdrawMaintenance 0
scalar OsgEarthNet.uav[31] utilizationCountMissions 35
scalar OsgEarthNet.uav[31] utilizationCountManeuversMission 397
scalar OsgEarthNet.uav[31] utilizationCountManeuversMaintenance 70
scalar OsgEarthNet.uav[31] utilizationCountChargeState 35
scalar OsgEarthNet.uav[31] utilizationCountOverdrawnAfterMission 0
scalar OsgEarthNet.uav[31] utilizationCountIdleState 35
scalar OsgEarthNet.uav[31] utilizationFail 0
scalar OsgEarthNet.uav[31] simulationTime 259200
scalar OsgEarthNet.uav[32] utilizationSecMission 14508.475043487
scalar OsgEarthNet.uav[32] utilizationSecMaintenance 7274.0669737013
scalar OsgEarthNet.uav[32] utilizationSecCharge 81196.748925722
scalar OsgEarthNet.uav[32] utilizationSecIdle 156220.70805709
scalar OsgEarthNet.uav[32] utilizationEnergyMission 68357.811332703
scalar OsgEarthNet.uav[32] utilizationEnergyMaintenance 34036.841766357
scalar OsgEarthNet.uav[32] utilizationEnergyCharge 101897.23144531
scalar OsgEarthNet.uav[32] utilizationEnergyOverdrawMission 0
scalar OsgEarthNet.uav[32] utilizationEnergyOverdrawMaintenance 0
scalar OsgEarthNet.uav[32] utilizationCountMissions 22
scalar OsgEarthNet.uav[32] utilizationCountManeuversMission 238
scalar OsgEarthNet.uav[32] utilizationCountManeuversMaintenance 44
scalar OsgEarthNet.uav[32] utilizationCountChargeState 22
scalar OsgEarthNet.uav[32] utilizationCountOverdrawnAfterMission 0
scalar OsgEarthNet.uav[32] utilizationCountIdleState 22
scalar OsgEarthNet.uav[32] utilizationFail 0
scalar OsgEarthNet.uav[32] simulationTime 259200
scalar OsgEarthNet.uav[33] utilizationSecMission 760.62515258028
scalar OsgEarthNet.uav[33] utilizationSecMaintenance 291.95923480269
scalar OsgEarthNet.uav[33] utilizationSecCharge 3830
scalar OsgEarthNet.uav[33] utilizationSecIdle 254317.41461262
scalar OsgEarthNet.uav[33] utilizationEnergyMission 3412.1089630127
scalar OsgEarthNet.uav[33] utilizationEnergyMaintenance 1420.9789962769
scalar OsgEarthNet.uav[33] utilizationEnergyCharge 4833.0864257812
scalar OsgEarthNet.uav[33] utilizationEnergyOverdrawMission 0
scalar OsgEarthNet.uav[33] utilizationEnergyOverdrawMaintenance 0
scalar OsgEarthNet.uav[33] utilizationCountMissions 1
scalar OsgEarthNet.uav[33] utilizationCountManeuversMission 12
scalar OsgEarthNet.uav[33] utilizationCountManeuversMaintenance 2
scalar OsgEarthNet.uav[33] utilizationCountChargeState 1
scalar OsgEarthNet.uav[33] utilizationCountOverdrawnAfterMission 0
scalar OsgEarthNet.uav[33] utilizationCountIdleState 2
scalar OsgEarthNet.uav[33] utilizationFail 0
scalar OsgEarthNet.uav[33] simulationTime 259200
scalar OsgEarthNet.uav[34] utilizationSecMission 454.19906291044
scalar OsgEarthNet.uav[34] utilizationSecMaintenance 531.61543982806
scalar OsgEarthNet.uav[34] utilizationSecCharge 3610
scalar OsgEarthNet.uav[34] utilizationSecIdle 254604.18449726
scalar OsgEarthNet.uav[34] utilizationEnergyMission 2077.1885070801
scalar OsgEarthNet.uav[34] utilizationEnergyMaintenance 2352.8936386108
scalar OsgEarthNet.uav[34] utilizationEnergyCharge 4430.0849609375
scalar OsgEarthNet.uav[34] utilizationEnergyOverdrawMission 0
scalar OsgEarthNet.uav[34] utilizationEnergyOverdrawMaintenance 0
scalar OsgEarthNet.uav[34] utilizationCountMissions 1
scalar OsgEarthNet.uav[34] utilizationCountManeuversMission 8
scalar OsgEarthNet.uav[34] utilizationCountManeuversMaintenance 2
scalar OsgEarthNet.uav[34] utilizationCountChargeState 1
scalar OsgEarthNet.uav[34] utilizationCountOverdrawnAfterMission 0
scalar OsgEarthNet.uav[34] utilizationCountIdleState 2
scalar OsgEarthNet.uav[34] utilizationFail 0
scalar OsgEarthNet.uav[34] simulationTime 259200
scalar OsgEarthNet.uav[35] utilizationSecMission 887.1741082606
scalar OsgEarthNet.uav[35] utilizationSecMaintenance 171.13387461676
scalar OsgEarthNet.uav[35] utilizationSecCharge 3870
scalar OsgEarthNet.uav[35] utilizationSecIdle 254271.69101712
scalar OsgEarthNet.uav[35] utilizationEnergyMission 4018.2724151611
scalar OsgEarthNet.uav[35] utilizationEnergyMaintenance 838.11254119873
scalar OsgEarthNet.uav[35] utilizationEnergyCharge 4914.20703125
scalar OsgEarthNet.uav[35] utilizationEnergyOverdrawMission 0
scalar OsgEarthNet.uav[35] utilizationEnergyOverdrawMaintenance 0
scalar OsgEarthNet.uav[35] utilizationCountMissions 1
scalar OsgEarthNet.uav[35] utilizationCountManeuversMission 14
scalar OsgEarthNet.uav[35] utilizationCountManeuversMaintenance 2
scalar OsgEarthNet.uav[35] utilizationCountChargeState 1
scalar OsgEarthNet.uav[35] utilizationCountOverdrawnAfterMission 0
scalar OsgEarthNet.uav[35] utilizationCountIdleState 2
scalar OsgEarthNet.uav[35] utilizationFail 0
scalar OsgEarthNet.uav[35] simulationTime 259200
scalar OsgEarthNet.uav[36] utilizationSecMission 702.6942798579
scalar OsgEarthNet.uav[36] utilizationSecMaintenance 282.29565405678
scalar OsgEarthNet.uav[36] utilizationSecCharge 3780
scalar OsgEarthNet.uav[36] utilizationSecIdle 254435.00906609
scalar OsgEarthNet.uav[36] utilizationEnergyMission 3238.578125
scalar OsgEarthNet.uav[36] utilizationEnergyMaintenance 1511.4971122742
scalar OsgEarthNet.uav[36] utilizationEnergyCharge 4750.0756835938
scalar OsgEarthNet.uav[36] utilizationEnergyOverdrawMission 0
scalar OsgEarthNet.uav[36] utilizationEnergyOverdrawMaintenance 0
scalar OsgEarthNet.uav[36] utilizationCountMissions 1
scalar OsgEarthNet.uav[36] utilizationCountManeuversMission 10
scalar OsgEarthNet.uav[36] utilizationCountManeuversMaintenance 2
scalar OsgEarthNet.uav[36] utilizationCountChargeState 1
scalar OsgEarthNet.uav[36] utilizationCountOverdrawnAfterMission 0
scalar OsgEarthNet.uav[36] utilizationCountIdleState 2
scalar OsgEarthNet.uav[36] utilizationFail 0
scalar OsgEarthNet.uav[36] simulationTime 259200
scalar OsgEarthNet.uav[37] utilizationSecMission 26317.263845937
scalar OsgEarthNet.uav[37] utilizationSecMaintenance 13577.244146761
scalar OsgEarthNet.uav[37] utilizationSecCharge 149440
scalar OsgEarthNet.uav[37] utilizationSecIdle 69865.491007302
scalar OsgEarthNet.uav[37] utilizationEnergyMission 122147.7967453
scalar OsgEarthNet.uav[37] utilizationEnergyMaintenance 63262.906669617
scalar OsgEarthNet.uav[37] utilizationEnergyCharge 185727.61499023
scalar OsgEarthNet.uav[37] utilizationEnergyOverdrawMission 0
scalar OsgEarthNet.uav[37] utilizationEnergyOverdrawMaintenance 0
scalar OsgEarthNet.uav[37] utilizationCountMissions 41
scalar OsgEarthNet.uav[37] utilizationCountManeuversMission 444
scalar OsgEarthNet.uav[37] utilizationCountManeuversMaintenance 82
scalar OsgEarthNet.uav[37] utilizationCountChargeState 41
scalar OsgEarthNet.uav[37] utilizationCountOverdrawnAfterMission 0
scalar OsgEarthNet.uav[37] utilizationCountIdleState 42
scalar OsgEarthNet.uav[37] utilizationFail 0
scalar OsgEarthNet.uav[37] simulationTime 259200
scalar OsgEarthNet.uav[38] utilizationSecMission 694.00169469977
scalar OsgEarthNet.uav[38] utilizationSecMaintenance 338.49695459722
scalar OsgEarthNet.uav[38] utilizationSecCharge 3750
scalar OsgEarthNet.uav[38] utilizationSecIdle 254417.5003507
scalar OsgEarthNet.uav[38] utilizationEnergyMission 3164.454750061
scalar OsgEarthNet.uav[38] utilizationEnergyMaintenance 1524.6936149597
scalar OsgEarthNet.uav[38] utilizationEnergyCharge 4689.1459960938
scalar OsgEarthNet.uav[38] utilizationEnergyOverdrawMission 0
scalar OsgEarthNet.uav[38] utilizationEnergyOverdrawMaintenance 0
scalar OsgEarthNet.uav[38] utilizationCountMissions 1
scalar OsgEarthNet.uav[38] utilizationCountManeuversMission 13
scalar OsgEarthNet.uav[38] utilizationCountManeuversMaintenance 2
scalar OsgEarthNet.uav[38] utilizationCountChargeState 1
scalar OsgEarthNet.uav[38] utilizationCountOverdrawnAfterMission 0
scalar OsgEarthNet.uav[38] utilizationCountIdleState 2
scalar OsgEarthNet.uav[38] utilizationFail 0
scalar OsgEarthNet.uav[38] simulationTime 259200
scalar OsgEarthNet.uav[39] utilizationSecMission 702.6942798579
scalar OsgEarthNet.uav[39] utilizationSecMaintenance 282.29565405678
scalar OsgEarthNet.uav[39] utilizationSecCharge 3590
scalar OsgEarthNet.uav[39] utilizationSecIdle 254625.00906609
scalar OsgEarthNet.uav[39] utilizationEnergyMission 3224.1179504395
scalar OsgEarthNet.uav[39] utilizationEnergyMaintenance 1221.9388237
scalar OsgEarthNet.uav[39] utilizationEnergyCharge 4446.0537109375
scalar OsgEarthNet.uav[39] utilizationEnergyOverdrawMission 0
scalar OsgEarthNet.uav[39] utilizationEnergyOverdrawMaintenance 0
scalar OsgEarthNet.uav[39] utilizationCountMissions 1
scalar OsgEarthNet.uav[39] utilizationCountManeuversMission 10
scalar OsgEarthNet.uav[39] utilizationCountManeuversMaintenance 2
scalar OsgEarthNet.uav[39] utilizationCountChargeState 1
scalar OsgEarthNet.uav[39] utilizationCountOverdrawnAfterMission 0
scalar OsgEarthNet.uav[39] utilizationCountIdleState 2
scalar OsgEarthNet.uav[39] utilizationFail 0
scalar OsgEarthNet.uav[39] simulationTime 259200
scalar OsgEarthNet.uav[40] utilizationSecMission 750.20472747826
scalar OsgEarthNet.uav[40] utilizationSecMaintenance 335.16822070369
scalar OsgEarthNet.uav[40] utilizationSecCharge 3840
scalar OsgEarthNet.uav[40] utilizationSecIdle 254274.62605182
scalar OsgEarthNet.uav[40] utilizationEnergyMission 3277.9936981201
scalar OsgEarthNet.uav[40] utilizationEnergyMaintenance 1556.5497550964
scalar OsgEarthNet.uav[40] utilizationEnergyCharge 4834.5439453125
scalar OsgEarthNet.uav[40] utilizationEnergyOverdrawMission 0
scalar OsgEarthNet.uav[40] utilizationEnergyOverdrawMaintenance 0
scalar OsgEarthNet.uav[40] utilizationCountMissions 1
scalar OsgEarthNet.uav[40] utilizationCountManeuversMission 11
scalar OsgEarthNet.uav[40] utilizationCountManeuversMaintenance 2
scalar OsgEarthNet.uav[40] utilizationCountChargeState 1
scalar OsgEarthNet.uav[40] utilizationCountOverdrawnAfterMission 0
scalar OsgEarthNet.uav[40] utilizationCountIdleState 2
scalar OsgEarthNet.uav[40] utilizationFail 0
scalar OsgEarthNet.uav[40] simulationTime 259200
scalar OsgEarthNet.uav[41] utilizationSecMission 27413.382751577
scalar OsgEarthNet.uav[41] utilizationSecMaintenance 14666.6905263
scalar OsgEarthNet.uav[41] utilizationSecCharge 157392.61063591
scalar OsgEarthNet.uav[41] utilizationSecIdle 59727.315086215
scalar OsgEarthNet.uav[41] utilizationEnergyMission 127880.2982254
scalar OsgEarthNet.uav[41] utilizationEnergyMaintenance 68353.403175354
scalar OsgEarthNet.uav[41] utilizationEnergyCharge 196060.88769531
scalar OsgEarthNet.uav[41] utilizationEnergyOverdrawMission 0
scalar OsgEarthNet.uav[41] utilizationEnergyOverdrawMaintenance 0
scalar OsgEarthNet.uav[41] utilizationCountMissions 43
scalar OsgEarthNet.uav[41] utilizationCountManeuversMission 445
scalar OsgEarthNet.uav[41] utilizationCountManeuversMaintenance 86
scalar OsgEarthNet.uav[41] utilizationCountChargeState 43
scalar OsgEarthNet.uav[41] utilizationCountOverdrawnAfterMission 0
scalar OsgEarthNet.uav[41] utilizationCountIdleState 43
scalar OsgEarthNet.uav[41] utilizationFail 0
scalar OsgEarthNet.uav[41] simulationTime 259200
scalar OsgEarthNet.uav[42] utilizationSecMission 28362.844765642
scalar OsgEarthNet.uav[42] utilizationSecMaintenance 15591.118135589
scalar OsgEarthNet.uav[42] utilizationSecCharge 162690
scalar OsgEarthNet.uav[42] utilizationSecIdle 52556.036098769
scalar OsgEarthNet.uav[42] utilizationEnergyMission 130593.82276916
scalar OsgEarthNet.uav[42] utilizationEnergyMaintenance 73385.401096368
scalar OsgEarthNet.uav[42] utilizationEnergyCharge 203211.18945312
scalar OsgEarthNet.uav[42] utilizationEnergyOverdrawMission 0
scalar OsgEarthNet.uav[42] utilizationEnergyOverdrawMaintenance 0
scalar OsgEarthNet.uav[42] utilizationCountMissions 44
scalar OsgEarthNet.uav[42] utilizationCountManeuversMission 462
scalar OsgEarthNet.uav[42] utilizationCountManeuversMaintenance 89
scalar OsgEarthNet.uav[42] utilizationCountChargeState 44
scalar OsgEarthNet.uav[42] utilizationCountOverdrawnAfterMission 0
scalar OsgEarthNet.uav[42] utilizationCountIdleState 45
scalar OsgEarthNet.uav[42] utilizationFail 0
scalar OsgEarthNet.uav[42] simulationTime 259200
scalar OsgEarthNet.uav[43] utilizationSecMission 760.62515258028
scalar OsgEarthNet.uav[43] utilizationSecMaintenance 291.95923480269
scalar OsgEarthNet.uav[43] utilizationSecCharge 3970
scalar OsgEarthNet.uav[43] utilizationSecIdle 254177.41461262
scalar OsgEarthNet.uav[43] utilizationEnergyMission 3654.6216430664
scalar OsgEarthNet.uav[43] utilizationEnergyMaintenance 1425.9209823608
scalar OsgEarthNet.uav[43] utilizationEnergyCharge 5080.5424804688
scalar OsgEarthNet.uav[43] utilizationEnergyOverdrawMission 0
scalar OsgEarthNet.uav[43] utilizationEnergyOverdrawMaintenance 0
scalar OsgEarthNet.uav[43] utilizationCountMissions 1
scalar OsgEarthNet.uav[43] utilizationCountManeuversMission 12
scalar OsgEarthNet.uav[43] utilizationCountManeuversMaintenance 2
scalar OsgEarthNet.uav[43] utilizationCountChargeState 1
scalar OsgEarthNet.uav[43] utilizationCountOverdrawnAfterMission 0
scalar OsgEarthNet.uav[43] utilizationCountIdleState 2
scalar OsgEarthNet.uav[43] utilizationFail 0
scalar OsgEarthNet.uav[43] simulationTime 259200
scalar OsgEarthNet.uav[44] utilizationSecMission 32038.228660645
scalar OsgEarthNet.uav[44] utilizationSecMaintenance 13079.770339355
scalar OsgEarthNet.uav[44] utilizationSecCharge 166850
scalar OsgEarthNet.uav[44] utilizationSecIdle 47232
scalar OsgEarthNet.uav[44] utilizationEnergyMission 148813.90121172
scalar OsgEarthNet.uav[44] utilizationEnergyMaintenance 61811.040126801
scalar OsgEarthNet.uav[44] utilizationEnergyCharge 208944.07617188
scalar OsgEarthNet.uav[44] utilizationEnergyOverdrawMission 0
scalar OsgEarthNet.uav[44] utilizationEnergyOverdrawMaintenance 0
scalar OsgEarthNet.uav[44] utilizationCountMissions 45
scalar OsgEarthNet.uav[44] utilizationCountManeuversMission 541
scalar OsgEarthNet.uav[44] utilizationCountManeuversMaintenance 90
scalar OsgEarthNet.uav[44] utilizationCountChargeState 45
scalar OsgEarthNet.uav[44] utilizationCountOverdrawnAfterMission 0
scalar OsgEarthNet.uav[44] utilizationCountIdleState 46
scalar OsgEarthNet.uav[44] utilizationFail 0
scalar OsgEarthNet.uav[44] simulationTime 259200
scalar OsgEarthNet.uav[45] utilizationSecMission 31340.000616938
scalar OsgEarthNet.uav[45] utilizationSecMaintenance 12197.888023807
scalar OsgEarthNet.uav[45] utilizationSecCharge 160980.11035926
scalar OsgEarthNet.uav[45] utilizationSecIdle 54682
scalar OsgEarthNet.uav[45] utilizationEnergyMission 144944.01463481
scalar OsgEarthNet.uav[45] utilizationEnergyMaintenance 56640.155532837
scalar OsgEarthNet.uav[45] utilizationEnergyCharge 200887.88867188
scalar OsgEarthNet.uav[45] utilizationEnergyOverdrawMission 0
scalar OsgEarthNet.uav[45] utilizationEnergyOverdrawMaintenance 0
scalar OsgEarthNet.uav[45] utilizationCountMissions 44
scalar OsgEarthNet.uav[45] utilizationCountManeuversMission 508
scalar OsgEarthNet.uav[45] utilizationCountManeuversMaintenance 87
scalar OsgEarthNet.uav[45] utilizationCountChargeState 44
scalar OsgEarthNet.uav[45] utilizationCountOverdrawnAfterMission 0
scalar OsgEarthNet.uav[45] utilizationCountIdleState 44
scalar OsgEarthNet.uav[45] utilizationFail 0
scalar OsgEarthNet.uav[45] simulationTime 259200
scalar OsgEarthNet.uav[46] utilizationSecMission 760.62515258028
scalar OsgEarthNet.uav[46] utilizationSecMaintenance 291.95923480269
scalar OsgEarthNet.uav[46] utilizationSecCharge 3640
scalar OsgEarthNet.uav[46] utilizationSecIdle 254507.41461262
scalar OsgEarthNet.uav[46] utilizationEnergyMission 3183.5075302124
scalar OsgEarthNet.uav[46] utilizationEnergyMaintenance 1346.3406295776
scalar OsgEarthNet.uav[46] utilizationEnergyCharge 4529.8452148438
scalar OsgEarthNet.uav[46] utilizationEnergyOverdrawMission 0
scalar OsgEarthNet.uav[46] utilizationEnergyOverdrawMaintenance 0
scalar OsgEarthNet.uav[46] utilizationCountMissions 1
scalar OsgEarthNet.uav[46] utilizationCountManeuversMission 12
scalar OsgEarthNet.uav[46] utilizationCountManeuversMaintenance 2
scalar OsgEarthNet.uav[46] utilizationCountChargeState 1
scalar OsgEarthNet.uav[46] utilizationCountOverdrawnAfterMission 0
scalar OsgEarthNet.uav[46] utilizationCountIdleState 2
scalar OsgEarthNet.uav[46] utilizationFail 0
scalar OsgEarthNet.uav[46] simulationTime 259200
scalar OsgEarthNet.uav[47] utilizationSecMission 26937.264768695
scalar OsgEarthNet.uav[47] utilizationSecMaintenance 12359.580212115
scalar OsgEarthNet.uav[47] utilizationSecCharge 146340
scalar OsgEarthNet.uav[47] utilizationSecIdle 73563.15401919
scalar OsgEarthNet.uav[47] utilizationEnergyMission 124750.05196381
scalar OsgEarthNet.uav[47] utilizationEnergyMaintenance 57918.906845093
scalar OsgEarthNet.uav[47] utilizationEnergyCharge 182294.98852539
scalar OsgEarthNet.uav[47] utilizationEnergyOverdrawMission 0
scalar OsgEarthNet.uav[47] utilizationEnergyOverdrawMaintenance 0
scalar OsgEarthNet.uav[47] utilizationCountMissions 40
scalar OsgEarthNet.uav[47] utilizationCountManeuversMission 433
scalar OsgEarthNet.uav[47] utilizationCountManeuversMaintenance 80
scalar OsgEarthNet.uav[47] utilizationCountChargeState 40
scalar OsgEarthNet.uav[47] utilizationCountOverdrawnAfterMission 0
scalar OsgEarthNet.uav[47] utilizationCountIdleState 41
scalar OsgEarthNet.uav[47] utilizationFail 0
scalar OsgEarthNet.uav[47] simulationTime 259200
scalar OsgEarthNet.uav[48] utilizationSecMission 887.1741082606
scalar OsgEarthNet.uav[48] utilizationSecMaintenance 148.2728194454
scalar OsgEarthNet.uav[48] utilizationSecCharge 3780
scalar OsgEarthNet.uav[48] utilizationSecIdle 254384.55207229
scalar OsgEarthNet.uav[48] utilizationEnergyMission 4110.8558959961
scalar OsgEarthNet.uav[48] utilizationEnergyMaintenance 737.02602386474
scalar OsgEarthNet.uav[48] utilizationEnergyCharge 4743.8803710938
scalar OsgEarthNet.uav[48] utilizationEnergyOverdrawMission 0
scalar OsgEarthNet.uav[48] utilizationEnergyOverdrawMaintenance 0
scalar OsgEarthNet.uav[48] utilizationCountMissions 1
scalar OsgEarthNet.uav[48] utilizationCountManeuversMission 14
scalar OsgEarthNet.uav[48] utilizationCountManeuversMaintenance 2
scalar OsgEarthNet.uav[48] utilizationCountChargeState 1
scalar OsgEarthNet.uav[48] utilizationCountOverdrawnAfterMission 0
scalar OsgEarthNet.uav[48] utilizationCountIdleState 2
scalar OsgEarthNet.uav[48] utilizationFail 0
scalar OsgEarthNet.uav[48] simulationTime 259200
scalar OsgEarthNet.uav[49] utilizationSecMission 32156.404877989
scalar OsgEarthNet.uav[49] utilizationSecMaintenance 13473.670172127
scalar OsgEarthNet.uav[49] utilizationSecCharge 166817.92394988
scalar OsgEarthNet.uav[49] utilizationSecIdle 46752
scalar OsgEarthNet.uav[49] utilizationEnergyMission 149810.50575256
scalar OsgEarthNet.uav[49] utilizationEnergyMaintenance 62993.12702179
scalar OsgEarthNet.uav[49] utilizationEnergyCharge 208768.37426758
scalar OsgEarthNet.uav[49] utilizationEnergyOverdrawMission 0
scalar OsgEarthNet.uav[49] utilizationEnergyOverdrawMaintenance 0
scalar OsgEarthNet.uav[49] utilizationCountMissions 46
scalar OsgEarthNet.uav[49] utilizationCountManeuversMission 527
scalar OsgEarthNet.uav[49] utilizationCountManeuversMaintenance 91
scalar OsgEarthNet.uav[49] utilizationCountChargeState 46
scalar OsgEarthNet.uav[49] utilizationCountOverdrawnAfterMission 0
scalar OsgEarthNet.uav[49] utilizationCountIdleState 46
scalar OsgEarthNet.uav[49] utilizationFail 0
scalar OsgEarthNet.uav[49] simulationTime 259200
scalar OsgEarthNet.uav[50] utilizationSecMission 836.77707522227
scalar OsgEarthNet.uav[50] utilizationSecMaintenance 217.0347828456
scalar OsgEarthNet.uav[50] utilizationSecCharge 3770
scalar OsgEarthNet.uav[50] utilizationSecIdle 254376.18714193
scalar OsgEarthNet.uav[50] utilizationEnergyMission 3734.4488220215
scalar OsgEarthNet.uav[50] utilizationEnergyMaintenance 1030.7280387878
scalar OsgEarthNet.uav[50] utilizationEnergyCharge 4765.1787109375
scalar OsgEarthNet.uav[50] utilizationEnergyOverdrawMission 0
scalar OsgEarthNet.uav[50] utilizationEnergyOverdrawMaintenance 0
scalar OsgEarthNet.uav[50] utilizationCountMissions 1
scalar OsgEarthNet.uav[50] utilizationCountManeuversMission 13
scalar OsgEarthNet.uav[50] utilizationCountManeuversMaintenance 2
scalar OsgEarthNet.uav[50] utilizationCountChargeState 1
scalar OsgEarthNet.uav[50] utilizationCountOverdrawnAfterMission 0
scalar OsgEarthNet.uav[50] utilizationCountIdleState 2
scalar OsgEarthNet.uav[50] utilizationFail 0
scalar OsgEarthNet.uav[50] simulationTime 259200
scalar OsgEarthNet.uav[51] utilizationSecMission 29761.621486513
scalar OsgEarthNet.uav[51] utilizationSecMaintenance 13969.217891782
scalar OsgEarthNet.uav[51] utilizationSecCharge 160614.54773219
scalar OsgEarthNet.uav[51] utilizationSecIdle 54854.611889516
scalar OsgEarthNet.uav[51] utilizationEnergyMission 137642.93688965
scalar OsgEarthNet.uav[51] utilizationEnergyMaintenance 65311.516902924
scalar OsgEarthNet.uav[51] utilizationEnergyCharge 201527.44262695
scalar OsgEarthNet.uav[51] utilizationEnergyOverdrawMission 0
scalar OsgEarthNet.uav[51] utilizationEnergyOverdrawMaintenance 0
scalar OsgEarthNet.uav[51] utilizationCountMissions 44
scalar OsgEarthNet.uav[51] utilizationCountManeuversMission 478
scalar OsgEarthNet.uav[51] utilizationCountManeuversMaintenance 88
scalar OsgEarthNet.uav[51] utilizationCountChargeState 44
scalar OsgEarthNet.uav[51] utilizationCountOverdrawnAfterMission 0
scalar OsgEarthNet.uav[51] utilizationCountIdleState 44
scalar OsgEarthNet.uav[51] utilizationFail 0
scalar OsgEarthNet.uav[51] simulationTime 259200
scalar OsgEarthNet.uav[52] utilizationSecMission 30097.885180114
scalar OsgEarthNet.uav[52] utilizationSecMaintenance 11372.402596248
scalar OsgEarthNet.uav[52] utilizationSecCharge 150748.25826492
scalar OsgEarthNet.uav[52] utilizationSecIdle 66981.452958717
scalar OsgEarthNet.uav[52] utilizationEnergyMission 138968.27844238
scalar OsgEarthNet.uav[52] utilizationEnergyMaintenance 52754.216377258
scalar OsgEarthNet.uav[52] utilizationEnergyCharge 189795.81115723
scalar OsgEarthNet.uav[52] utilizationEnergyOverdrawMission 0
scalar OsgEarthNet.uav[52] utilizationEnergyOverdrawMaintenance 0
scalar OsgEarthNet.uav[52] utilizationCountMissions 41
scalar OsgEarthNet.uav[52] utilizationCountManeuversMission 489
scalar OsgEarthNet.uav[52] utilizationCountManeuversMaintenance 82
scalar OsgEarthNet.uav[52] utilizationCountChargeState 41
scalar OsgEarthNet.uav[52] utilizationCountOverdrawnAfterMission 0
scalar OsgEarthNet.uav[52] utilizationCountIdleState 41
scalar OsgEarthNet.uav[52] utilizationFail 0
scalar OsgEarthNet.uav[52] simulationTime 259200
scalar OsgEarthNet.uav[53] utilizationSecMission 760.62515258028
scalar OsgEarthNet.uav[53] utilizationSecMaintenance 223.6438949726
scalar OsgEarthNet.uav[53] utilizationSecCharge 3810
scalar OsgEarthNet.uav[53] utilizationSecIdle 254405.72995245
scalar OsgEarthNet.uav[53] utilizationEnergyMission 3734.0913391113
scalar OsgEarthNet.uav[53] utilizationEnergyMaintenance 1092.4772148132
scalar OsgEarthNet.uav[53] utilizationEnergyCharge 4826.5698242188
scalar OsgEarthNet.uav[53] utilizationEnergyOverdrawMission 0
scalar OsgEarthNet.uav[53] utilizationEnergyOverdrawMaintenance 0
scalar OsgEarthNet.uav[53] utilizationCountMissions 1
scalar OsgEarthNet.uav[53] utilizationCountManeuversMission 12
scalar OsgEarthNet.uav[53] utilizationCountManeuversMaintenance 2
scalar OsgEarthNet.uav[53] utilizationCountChargeState 1
scalar OsgEarthNet.uav[53] utilizationCountOverdrawnAfterMission 0
scalar OsgEarthNet.uav[53] utilizationCountIdleState 2
scalar OsgEarthNet.uav[53] utilizationFail 0
scalar OsgEarthNet.uav[53] simulationTime 259200
scalar OsgEarthNet.uav[54] utilizationSecMission 655.55330183502
scalar OsgEarthNet.uav[54] utilizationSecMaintenance 334.5505930207
scalar OsgEarthNet.uav[54] utilizationSecCharge 3860
scalar OsgEarthNet.uav[54] utilizationSecIdle 254349.89510514
scalar OsgEarthNet.uav[54] utilizationEnergyMission 3175.8266906738
scalar OsgEarthNet.uav[54] utilizationEnergyMaintenance 1707.5148429871
scalar OsgEarthNet.uav[54] utilizationEnergyCharge 4883.341796875
scalar OsgEarthNet.uav[54] utilizationEnergyOverdrawMission 0
scalar OsgEarthNet.uav[54] utilizationEnergyOverdrawMaintenance 0
scalar OsgEarthNet.uav[54] utilizationCountMissions 1
scalar OsgEarthNet.uav[54] utilizationCountManeuversMission 10
scalar OsgEarthNet.uav[54] utilizationCountManeuversMaintenance 2
scalar OsgEarthNet.uav[54] utilizationCountChargeState 1
scalar OsgEarthNet.uav[54] utilizationCountOverdrawnAfterMission 0
scalar OsgEarthNet.uav[54] utilizationCountIdleState 2
scalar OsgEarthNet.uav[54] utilizationFail 0
scalar OsgEarthNet.uav[54] simulationTime 259200
scalar OsgEarthNet.uav[55] utilizationSecMission 694.00169469977
scalar OsgEarthNet.uav[55] utilizationSecMaintenance 338.49695459722
scalar OsgEarthNet.uav[55] utilizationSecCharge 3830
scalar OsgEarthNet.uav[55] utilizationSecIdle 254337.5003507
scalar OsgEarthNet.uav[55] utilizationEnergyMission 3200.4430847168
scalar OsgEarthNet.uav[55] utilizationEnergyMaintenance 1659.8256340027
scalar OsgEarthNet.uav[55] utilizationEnergyCharge 4860.2700195312
scalar OsgEarthNet.uav[55] utilizationEnergyOverdrawMission 0
scalar OsgEarthNet.uav[55] utilizationEnergyOverdrawMaintenance 0
scalar OsgEarthNet.uav[55] utilizationCountMissions 1
scalar OsgEarthNet.uav[55] utilizationCountManeuversMission 13
scalar OsgEarthNet.uav[55] utilizationCountManeuversMaintenance 2
scalar OsgEarthNet.uav[55] utilizationCountChargeState 1
scalar OsgEarthNet.uav[55] utilizationCountOverdrawnAfterMission 0
scalar OsgEarthNet.uav[55] utilizationCountIdleState 2
scalar OsgEarthNet.uav[55] utilizationFail 0
scalar OsgEarthNet.uav[55] simulationTime 259200
scalar OsgEarthNet.uav[56] utilizationSecMission 2543.3491915429
scalar OsgEarthNet.uav[56] utilizationSecMaintenance 1418.0538234559
scalar OsgEarthNet.uav[56] utilizationSecCharge 14780
scalar OsgEarthNet.uav[56] utilizationSecIdle 240458.595985
scalar OsgEarthNet.uav[56] utilizationEnergyMission 11780.919891357
scalar OsgEarthNet.uav[56] utilizationEnergyMaintenance 6649.4070701599
scalar OsgEarthNet.uav[56] utilizationEnergyCharge 18430.328125
scalar OsgEarthNet.uav[56] utilizationEnergyOverdrawMission 0
scalar OsgEarthNet.uav[56] utilizationEnergyOverdrawMaintenance 0
scalar OsgEarthNet.uav[56] utilizationCountMissions 4
scalar OsgEarthNet.uav[56] utilizationCountManeuversMission 40
scalar OsgEarthNet.uav[56] utilizationCountManeuversMaintenance 8
scalar OsgEarthNet.uav[56] utilizationCountChargeState 4
scalar OsgEarthNet.uav[56] utilizationCountOverdrawnAfterMission 0
scalar OsgEarthNet.uav[56] utilizationCountIdleState 5
scalar OsgEarthNet.uav[56] utilizationFail 0
scalar OsgEarthNet.uav[56] simulationTime 259200
scalar OsgEarthNet.uav[57] utilizationSecMission 29916.672271264
scalar OsgEarthNet.uav[57] utilizationSecMaintenance 13779.549243531
scalar OsgEarthNet.uav[57] utilizationSecCharge 158857.09667732
scalar OsgEarthNet.uav[57] utilizationSecIdle 56646.680807888
scalar OsgEarthNet.uav[57] utilizationEnergyMission 137119.79315948
scalar OsgEarthNet.uav[57] utilizationEnergyMaintenance 64431.642333984
scalar OsgEarthNet.uav[57] utilizationEnergyCharge 198436.16235352
scalar OsgEarthNet.uav[57] utilizationEnergyOverdrawMission 0
scalar OsgEarthNet.uav[57] utilizationEnergyOverdrawMaintenance 0
scalar OsgEarthNet.uav[57] utilizationCountMissions 44
scalar OsgEarthNet.uav[57] utilizationCountManeuversMission 512
scalar OsgEarthNet.uav[57] utilizationCountManeuversMaintenance 88
scalar OsgEarthNet.uav[57] utilizationCountChargeState 44
scalar OsgEarthNet.uav[57] utilizationCountOverdrawnAfterMission 0
scalar OsgEarthNet.uav[57] utilizationCountIdleState 44
scalar OsgEarthNet.uav[57] utilizationFail 0
scalar OsgEarthNet.uav[57] simulationTime 259200
scalar OsgEarthNet.uav[58] utilizationSecMission 621.17604176187
scalar OsgEarthNet.uav[58] utilizationSecMaintenance 313.76167006775
scalar OsgEarthNet.uav[58] utilizationSecCharge 3480
scalar OsgEarthNet.uav[58] utilizationSecIdle 254785.06128817
scalar OsgEarthNet.uav[58] utilizationEnergyMission 2926.9286270142
scalar OsgEarthNet.uav[58] utilizationEnergyMaintenance 1362.4131584167
scalar OsgEarthNet.uav[58] utilizationEnergyCharge 4289.3393554688
scalar OsgEarthNet.uav[58] utilizationEnergyOverdrawMission 0
scalar OsgEarthNet.uav[58] utilizationEnergyOverdrawMaintenance 0
scalar OsgEarthNet.uav[58] utilizationCountMissions 1
scalar OsgEarthNet.uav[58] utilizationCountManeuversMission 12
scalar OsgEarthNet.uav[58] utilizationCountManeuversMaintenance 2
scalar OsgEarthNet.uav[58] utilizationCountChargeState 1
scalar OsgEarthNet.uav[58] utilizationCountOverdrawnAfterMission 0
scalar OsgEarthNet.uav[58] utilizationCountIdleState 2
scalar OsgEarthNet.uav[58] utilizationFail 0
scalar OsgEarthNet.uav[58] simulationTime 259200
scalar OsgEarthNet.uav[59] utilizationSecMission 836.77707522227
scalar OsgEarthNet.uav[59] utilizationSecMaintenance 217.0347828456
scalar OsgEarthNet.uav[59] utilizationSecCharge 3930
scalar OsgEarthNet.uav[59] utilizationSecIdle 254216.18714193
scalar OsgEarthNet.uav[59] utilizationEnergyMission 3910.0244293213
scalar OsgEarthNet.uav[59] utilizationEnergyMaintenance 1110.0131340027
scalar OsgEarthNet.uav[59] utilizationEnergyCharge 5020.041015625
scalar OsgEarthNet.uav[59] utilizationEnergyOverdrawMission 0
scalar OsgEarthNet.uav[59] utilizationEnergyOverdrawMaintenance 0
scalar OsgEarthNet.uav[59] utilizationCountMissions 1
scalar OsgEarthNet.uav[59] utilizationCountManeuversMission 13
scalar OsgEarthNet.uav[59] utilizationCountManeuversMaintenance 2
scalar OsgEarthNet.uav[59] utilizationCountChargeState 1
scalar OsgEarthNet.uav[59] utilizationCountOverdrawnAfterMission 0
scalar OsgEarthNet.uav[59] utilizationCountIdleState 2
scalar OsgEarthNet.uav[59] utilizationFail 0
scalar OsgEarthNet.uav[59] simulationTime 259200
scalar OsgEarthNet.uav[60] utilizationSecMission 29254.072079078
scalar OsgEarthNet.uav[60] utilizationSecMaintenance 13400.13760468
scalar OsgEarthNet.uav[60] utilizationSecCharge 158250
scalar OsgEarthNet.uav[60] utilizationSecIdle 58295.789316241
scalar OsgEarthNet.uav[60] utilizationEnergyMission 135351.25933838
scalar OsgEarthNet.uav[60] utilizationEnergyMaintenance 62583.995426178
scalar OsgEarthNet.uav[60] utilizationEnergyCharge 197647.42138672
scalar OsgEarthNet.uav[60] utilizationEnergyOverdrawMission 0
scalar OsgEarthNet.uav[60] utilizationEnergyOverdrawMaintenance 0
scalar OsgEarthNet.uav[60] utilizationCountMissions 43
scalar OsgEarthNet.uav[60] utilizationCountManeuversMission 464
scalar OsgEarthNet.uav[60] utilizationCountManeuversMaintenance 85
scalar OsgEarthNet.uav[60] utilizationCountChargeState 43
scalar OsgEarthNet.uav[60] utilizationCountOverdrawnAfterMission 0
scalar OsgEarthNet.uav[60] utilizationCountIdleState 44
scalar OsgEarthNet.uav[60] utilizationFail 0
scalar OsgEarthNet.uav[60] simulationTime 259200
scalar OsgEarthNet.uav[61] utilizationSecMission 528.55000878666
scalar OsgEarthNet.uav[61] utilizationSecMaintenance 478.92797493542
scalar OsgEarthNet.uav[61] utilizationSecCharge 3700
scalar OsgEarthNet.uav[61] utilizationSecIdle 254492.52101628
scalar OsgEarthNet.uav[61] utilizationEnergyMission 2422.7989654541
scalar OsgEarthNet.uav[61] utilizationEnergyMaintenance 2207.2389144898
scalar OsgEarthNet.uav[61] utilizationEnergyCharge 4630.0390625
scalar OsgEarthNet.uav[61] utilizationEnergyOverdrawMission 0
scalar OsgEarthNet.uav[61] utilizationEnergyOverdrawMaintenance 0
scalar OsgEarthNet.uav[61] utilizationCountMissions 1
scalar OsgEarthNet.uav[61] utilizationCountManeuversMission 10
scalar OsgEarthNet.uav[61] utilizationCountManeuversMaintenance 2
scalar OsgEarthNet.uav[61] utilizationCountChargeState 1
scalar OsgEarthNet.uav[61] utilizationCountOverdrawnAfterMission 0
scalar OsgEarthNet.uav[61] utilizationCountIdleState 2
scalar OsgEarthNet.uav[61] utilizationFail 0
scalar OsgEarthNet.uav[61] simulationTime 259200
scalar OsgEarthNet.uav[62] utilizationSecMission 26338.209624055
scalar OsgEarthNet.uav[62] utilizationSecMaintenance 10832.417457646
scalar OsgEarthNet.uav[62] utilizationSecCharge 137473.3486503
scalar OsgEarthNet.uav[62] utilizationSecIdle 84556.023268001
scalar OsgEarthNet.uav[62] utilizationEnergyMission 121130.58409119
scalar OsgEarthNet.uav[62] utilizationEnergyMaintenance 51539.324954987
scalar OsgEarthNet.uav[62] utilizationEnergyCharge 172146.54980469
scalar OsgEarthNet.uav[62] utilizationEnergyOverdrawMission 0
scalar OsgEarthNet.uav[62] utilizationEnergyOverdrawMaintenance 0
scalar OsgEarthNet.uav[62] utilizationCountMissions 38
scalar OsgEarthNet.uav[62] utilizationCountManeuversMission 427
scalar OsgEarthNet.uav[62] utilizationCountManeuversMaintenance 76
scalar OsgEarthNet.uav[62] utilizationCountChargeState 38
scalar OsgEarthNet.uav[62] utilizationCountOverdrawnAfterMission 0
scalar OsgEarthNet.uav[62] utilizationCountIdleState 38
scalar OsgEarthNet.uav[62] utilizationFail 0
scalar OsgEarthNet.uav[62] simulationTime 259200
scalar OsgEarthNet.uav[63] utilizationSecMission 735.14326557473
scalar OsgEarthNet.uav[63] utilizationSecMaintenance 350.53687742834
scalar OsgEarthNet.uav[63] utilizationSecCharge 3970
scalar OsgEarthNet.uav[63] utilizationSecIdle 254144.318857
scalar OsgEarthNet.uav[63] utilizationEnergyMission 3407.9090881348
scalar OsgEarthNet.uav[63] utilizationEnergyMaintenance 1647.9717941284
scalar OsgEarthNet.uav[63] utilizationEnergyCharge 5099.9985351562
scalar OsgEarthNet.uav[63] utilizationEnergyOverdrawMission 0
scalar OsgEarthNet.uav[63] utilizationEnergyOverdrawMaintenance 0
scalar OsgEarthNet.uav[63] utilizationCountMissions 1
scalar OsgEarthNet.uav[63] utilizationCountManeuversMission 11
scalar OsgEarthNet.uav[63] utilizationCountManeuversMaintenance 2
scalar OsgEarthNet.uav[63] utilizationCountChargeState 1
scalar OsgEarthNet.uav[63] utilizationCountOverdrawnAfterMission 0
scalar OsgEarthNet.uav[63] utilizationCountIdleState 2
scalar OsgEarthNet.uav[63] utilizationFail 0
scalar OsgEarthNet.uav[63] simulationTime 259200
scalar OsgEarthNet.uav[64] utilizationSecMission 27134.009527802
scalar OsgEarthNet.uav[64] utilizationSecMaintenance 13408.991595441
scalar OsgEarthNet.uav[64] utilizationSecCharge 150453.13520618
scalar OsgEarthNet.uav[64] utilizationSecIdle 68203.862670577
scalar OsgEarthNet.uav[64] utilizationEnergyMission 125774.59487915
scalar OsgEarthNet.uav[64] utilizationEnergyMaintenance 63355.160564423
scalar OsgEarthNet.uav[64] utilizationEnergyCharge 188935.10961914
scalar OsgEarthNet.uav[64] utilizationEnergyOverdrawMission 0
scalar OsgEarthNet.uav[64] utilizationEnergyOverdrawMaintenance 0
scalar OsgEarthNet.uav[64] utilizationCountMissions 41
scalar OsgEarthNet.uav[64] utilizationCountManeuversMission 447
scalar OsgEarthNet.uav[64] utilizationCountManeuversMaintenance 82
scalar OsgEarthNet.uav[64] utilizationCountChargeState 41
scalar OsgEarthNet.uav[64] utilizationCountOverdrawnAfterMission 0
scalar OsgEarthNet.uav[64] utilizationCountIdleState 41
scalar OsgEarthNet.uav[64] utilizationFail 0
scalar OsgEarthNet.uav[64] simulationTime 259200
scalar OsgEarthNet.uav[65] utilizationSecMission 30339.438734247
scalar OsgEarthNet.uav[65] utilizationSecMaintenance 12671.461544095
scalar OsgEarthNet.uav[65] utilizationSecCharge 160081.64845763
scalar OsgEarthNet.uav[65] utilizationSecIdle 56107.450264031
[...]
scalar OsgEarthNet.uav[82] utilizationSecIdle 83786.447572472
scalar OsgEarthNet.uav[82] utilizationEnergyMission 126109.31416702
scalar OsgEarthNet.uav[82] utilizationEnergyMaintenance 50073.658210754
scalar OsgEarthNet.uav[82] utilizationEnergyCharge 172102.99658203
scalar OsgEarthNet.uav[82] utilizationEnergyOverdrawMission 0
scalar OsgEarthNet.uav[82] utilizationEnergyOverdrawMaintenance 0
scalar OsgEarthNet.uav[82] utilizationCountMissions 38
scalar OsgEarthNet.uav[82] utilizationCountManeuversMission 448
scalar OsgEarthNet.uav[82] utilizationCountManeuversMaintenance 76
scalar OsgEarthNet.uav[82] utilizationCountChargeState 38
scalar OsgEarthNet.uav[82] utilizationCountOverdrawnAfterMission 0
scalar OsgEarthNet.uav[82] utilizationCountIdleState 38
scalar OsgEarthNet.uav[82] utilizationFail 0
scalar OsgEarthNet.uav[82] simulationTime 259200
scalar OsgEarthNet.uav[83] utilizationSecMission 750.20472747826
scalar OsgEarthNet.uav[83] utilizationSecMaintenance 261.68051383311
scalar OsgEarthNet.uav[83] utilizationSecCharge 3780
scalar OsgEarthNet.uav[83] utilizationSecIdle 254408.11375869
scalar OsgEarthNet.uav[83] utilizationEnergyMission 3499.3916931152
scalar OsgEarthNet.uav[83] utilizationEnergyMaintenance 1279.7893180847
scalar OsgEarthNet.uav[83] utilizationEnergyCharge 4779.18359375
scalar OsgEarthNet.uav[83] utilizationEnergyOverdrawMission 0
scalar OsgEarthNet.uav[83] utilizationEnergyOverdrawMaintenance 0
scalar OsgEarthNet.uav[83] utilizationCountMissions 1
scalar OsgEarthNet.uav[83] utilizationCountManeuversMission 11
scalar OsgEarthNet.uav[83] utilizationCountManeuversMaintenance 2
scalar OsgEarthNet.uav[83] utilizationCountChargeState 1
scalar OsgEarthNet.uav[83] utilizationCountOverdrawnAfterMission 0
scalar OsgEarthNet.uav[83] utilizationCountIdleState 2
scalar OsgEarthNet.uav[83] utilizationFail 0
scalar OsgEarthNet.uav[83] simulationTime 259200
scalar OsgEarthNet.uav[84] utilizationSecMission 9138.8083787674
scalar OsgEarthNet.uav[84] utilizationSecMaintenance 4748.0106912345
scalar OsgEarthNet.uav[84] utilizationSecCharge 51410
scalar OsgEarthNet.uav[84] utilizationSecIdle 193903.17993
scalar OsgEarthNet.uav[84] utilizationEnergyMission 42417.532165527
scalar OsgEarthNet.uav[84] utilizationEnergyMaintenance 21835.651569366
scalar OsgEarthNet.uav[84] utilizationEnergyCharge 64212.901367188
scalar OsgEarthNet.uav[84] utilizationEnergyOverdrawMission 0
scalar OsgEarthNet.uav[84] utilizationEnergyOverdrawMaintenance 0
scalar OsgEarthNet.uav[84] utilizationCountMissions 14
scalar OsgEarthNet.uav[84] utilizationCountManeuversMission 155
scalar OsgEarthNet.uav[84] utilizationCountManeuversMaintenance 28
scalar OsgEarthNet.uav[84] utilizationCountChargeState 14
scalar OsgEarthNet.uav[84] utilizationCountOverdrawnAfterMission 0
scalar OsgEarthNet.uav[84] utilizationCountIdleState 15
scalar OsgEarthNet.uav[84] utilizationFail 0
scalar OsgEarthNet.uav[84] simulationTime 259200
scalar OsgEarthNet.uav[85] utilizationSecMission 11345.546686931
scalar OsgEarthNet.uav[85] utilizationSecMaintenance 6076.3417331005
scalar OsgEarthNet.uav[85] utilizationSecCharge 65320
scalar OsgEarthNet.uav[85] utilizationSecIdle 176458.11057997
scalar OsgEarthNet.uav[85] utilizationEnergyMission 52249.573272705
scalar OsgEarthNet.uav[85] utilizationEnergyMaintenance 28817.218772888
scalar OsgEarthNet.uav[85] utilizationEnergyCharge 81126.006835938
scalar OsgEarthNet.uav[85] utilizationEnergyOverdrawMission 0
scalar OsgEarthNet.uav[85] utilizationEnergyOverdrawMaintenance 0
scalar OsgEarthNet.uav[85] utilizationCountMissions 18
scalar OsgEarthNet.uav[85] utilizationCountManeuversMission 193
scalar OsgEarthNet.uav[85] utilizationCountManeuversMaintenance 36
scalar OsgEarthNet.uav[85] utilizationCountChargeState 18
scalar OsgEarthNet.uav[85] utilizationCountOverdrawnAfterMission 0
scalar OsgEarthNet.uav[85] utilizationCountIdleState 19
scalar OsgEarthNet.uav[85] utilizationFail 0
scalar OsgEarthNet.uav[85] simulationTime 259200
scalar OsgEarthNet.uav[86] utilizationSecMission 684.4732299383
scalar OsgEarthNet.uav[86] utilizationSecMaintenance 298.56834692969
scalar OsgEarthNet.uav[86] utilizationSecCharge 3730
scalar OsgEarthNet.uav[86] utilizationSecIdle 254486.95742313
scalar OsgEarthNet.uav[86] utilizationEnergyMission 3300.7892913818
scalar OsgEarthNet.uav[86] utilizationEnergyMaintenance 1444.0566635132
scalar OsgEarthNet.uav[86] utilizationEnergyCharge 4744.845703125
scalar OsgEarthNet.uav[86] utilizationEnergyOverdrawMission 0
scalar OsgEarthNet.uav[86] utilizationEnergyOverdrawMaintenance 0
scalar OsgEarthNet.uav[86] utilizationCountMissions 1
scalar OsgEarthNet.uav[86] utilizationCountManeuversMission 11
scalar OsgEarthNet.uav[86] utilizationCountManeuversMaintenance 2
scalar OsgEarthNet.uav[86] utilizationCountChargeState 1
scalar OsgEarthNet.uav[86] utilizationCountOverdrawnAfterMission 0
scalar OsgEarthNet.uav[86] utilizationCountIdleState 2
scalar OsgEarthNet.uav[86] utilizationFail 0
scalar OsgEarthNet.uav[86] simulationTime 259200
scalar OsgEarthNet.uav[87] utilizationSecMission 28230.929144121
scalar OsgEarthNet.uav[87] utilizationSecMaintenance 14453.02796635
scalar OsgEarthNet.uav[87] utilizationSecCharge 158992.28286734
scalar OsgEarthNet.uav[87] utilizationSecIdle 57523.759022191
scalar OsgEarthNet.uav[87] utilizationEnergyMission 131897.76881027
scalar OsgEarthNet.uav[87] utilizationEnergyMaintenance 66831.69984436
scalar OsgEarthNet.uav[87] utilizationEnergyCharge 198797.07861328
scalar OsgEarthNet.uav[87] utilizationEnergyOverdrawMission 0
scalar OsgEarthNet.uav[87] utilizationEnergyOverdrawMaintenance 0
scalar OsgEarthNet.uav[87] utilizationCountMissions 43
scalar OsgEarthNet.uav[87] utilizationCountManeuversMission 479
scalar OsgEarthNet.uav[87] utilizationCountManeuversMaintenance 86
scalar OsgEarthNet.uav[87] utilizationCountChargeState 43
scalar OsgEarthNet.uav[87] utilizationCountOverdrawnAfterMission 0
scalar OsgEarthNet.uav[87] utilizationCountIdleState 43
scalar OsgEarthNet.uav[87] utilizationFail 0
scalar OsgEarthNet.uav[87] simulationTime 259200
scalar OsgEarthNet.uav[88] utilizationSecMission 694.00169469977
scalar OsgEarthNet.uav[88] utilizationSecMaintenance 338.49695459722
scalar OsgEarthNet.uav[88] utilizationSecCharge 3690
scalar OsgEarthNet.uav[88] utilizationSecIdle 254477.5003507
scalar OsgEarthNet.uav[88] utilizationEnergyMission 3034.9418411255
scalar OsgEarthNet.uav[88] utilizationEnergyMaintenance 1575.2815666199
scalar OsgEarthNet.uav[88] utilizationEnergyCharge 4610.2216796875
scalar OsgEarthNet.uav[88] utilizationEnergyOverdrawMission 0
scalar OsgEarthNet.uav[88] utilizationEnergyOverdrawMaintenance 0
scalar OsgEarthNet.uav[88] utilizationCountMissions 1
scalar OsgEarthNet.uav[88] utilizationCountManeuversMission 13
scalar OsgEarthNet.uav[88] utilizationCountManeuversMaintenance 2
scalar OsgEarthNet.uav[88] utilizationCountChargeState 1
scalar OsgEarthNet.uav[88] utilizationCountOverdrawnAfterMission 0
scalar OsgEarthNet.uav[88] utilizationCountIdleState 2
scalar OsgEarthNet.uav[88] utilizationFail 0
scalar OsgEarthNet.uav[88] simulationTime 259200
scalar OsgEarthNet.uav[89] utilizationSecMission 684.4732299383
scalar OsgEarthNet.uav[89] utilizationSecMaintenance 298.56834692969
scalar OsgEarthNet.uav[89] utilizationSecCharge 3800
scalar OsgEarthNet.uav[89] utilizationSecIdle 254416.95742313
scalar OsgEarthNet.uav[89] utilizationEnergyMission 3281.150352478
scalar OsgEarthNet.uav[89] utilizationEnergyMaintenance 1513.4586410522
scalar OsgEarthNet.uav[89] utilizationEnergyCharge 4794.6123046875
scalar OsgEarthNet.uav[89] utilizationEnergyOverdrawMission 0
scalar OsgEarthNet.uav[89] utilizationEnergyOverdrawMaintenance 0
scalar OsgEarthNet.uav[89] utilizationCountMissions 1
scalar OsgEarthNet.uav[89] utilizationCountManeuversMission 11
scalar OsgEarthNet.uav[89] utilizationCountManeuversMaintenance 2
scalar OsgEarthNet.uav[89] utilizationCountChargeState 1
scalar OsgEarthNet.uav[89] utilizationCountOverdrawnAfterMission 0
scalar OsgEarthNet.uav[89] utilizationCountIdleState 2
scalar OsgEarthNet.uav[89] utilizationFail 0
scalar OsgEarthNet.uav[89] simulationTime 259200
scalar OsgEarthNet.uav[90] utilizationSecMission 750.20472747826
scalar OsgEarthNet.uav[90] utilizationSecMaintenance 335.16822070369
scalar OsgEarthNet.uav[90] utilizationSecCharge 3790
scalar OsgEarthNet.uav[90] utilizationSecIdle 254324.62605182
scalar OsgEarthNet.uav[90] utilizationEnergyMission 3206.3857269287
scalar OsgEarthNet.uav[90] utilizationEnergyMaintenance 1579.5919303894
scalar OsgEarthNet.uav[90] utilizationEnergyCharge 4785.9819335938
scalar OsgEarthNet.uav[90] utilizationEnergyOverdrawMission 0
scalar OsgEarthNet.uav[90] utilizationEnergyOverdrawMaintenance 0
scalar OsgEarthNet.uav[90] utilizationCountMissions 1
scalar OsgEarthNet.uav[90] utilizationCountManeuversMission 11
scalar OsgEarthNet.uav[90] utilizationCountManeuversMaintenance 2
scalar OsgEarthNet.uav[90] utilizationCountChargeState 1
scalar OsgEarthNet.uav[90] utilizationCountOverdrawnAfterMission 0
scalar OsgEarthNet.uav[90] utilizationCountIdleState 2
scalar OsgEarthNet.uav[90] utilizationFail 0
scalar OsgEarthNet.uav[90] simulationTime 259200
scalar OsgEarthNet.uav[91] utilizationSecMission 15522.812395493
scalar OsgEarthNet.uav[91] utilizationSecMaintenance 7050.3543530582
scalar OsgEarthNet.uav[91] utilizationSecCharge 84320
scalar OsgEarthNet.uav[91] utilizationSecIdle 152306.83225145
scalar OsgEarthNet.uav[91] utilizationEnergyMission 71598.487236023
scalar OsgEarthNet.uav[91] utilizationEnergyMaintenance 33689.10402298
scalar OsgEarthNet.uav[91] utilizationEnergyCharge 105224.00219727
scalar OsgEarthNet.uav[91] utilizationEnergyOverdrawMission 0
scalar OsgEarthNet.uav[91] utilizationEnergyOverdrawMaintenance 0
scalar OsgEarthNet.uav[91] utilizationCountMissions 23
scalar OsgEarthNet.uav[91] utilizationCountManeuversMission 252
scalar OsgEarthNet.uav[91] utilizationCountManeuversMaintenance 46
scalar OsgEarthNet.uav[91] utilizationCountChargeState 23
scalar OsgEarthNet.uav[91] utilizationCountOverdrawnAfterMission 0
scalar OsgEarthNet.uav[91] utilizationCountIdleState 24
scalar OsgEarthNet.uav[91] utilizationFail 0
scalar OsgEarthNet.uav[91] simulationTime 259200
scalar OsgEarthNet.uav[92] utilizationSecMission 29914.581095077
scalar OsgEarthNet.uav[92] utilizationSecMaintenance 11977.345829714
scalar OsgEarthNet.uav[92] utilizationSecCharge 154012.61642181
scalar OsgEarthNet.uav[92] utilizationSecIdle 63295.455653403
scalar OsgEarthNet.uav[92] utilizationEnergyMission 138336.84163666
scalar OsgEarthNet.uav[92] utilizationEnergyMaintenance 56164.088962555
scalar OsgEarthNet.uav[92] utilizationEnergyCharge 193670.35986328
scalar OsgEarthNet.uav[92] utilizationEnergyOverdrawMission 0
scalar OsgEarthNet.uav[92] utilizationEnergyOverdrawMaintenance 0
scalar OsgEarthNet.uav[92] utilizationCountMissions 42
scalar OsgEarthNet.uav[92] utilizationCountManeuversMission 468
scalar OsgEarthNet.uav[92] utilizationCountManeuversMaintenance 84
scalar OsgEarthNet.uav[92] utilizationCountChargeState 42
scalar OsgEarthNet.uav[92] utilizationCountOverdrawnAfterMission 0
scalar OsgEarthNet.uav[92] utilizationCountIdleState 42
scalar OsgEarthNet.uav[92] utilizationFail 0
scalar OsgEarthNet.uav[92] simulationTime 259200
scalar OsgEarthNet.uav[93] utilizationSecMission 28243.543311778
scalar OsgEarthNet.uav[93] utilizationSecMaintenance 12133.045798839
scalar OsgEarthNet.uav[93] utilizationSecCharge 147609.41902036
scalar OsgEarthNet.uav[93] utilizationSecIdle 71213.990869017
scalar OsgEarthNet.uav[93] utilizationEnergyMission 129811.69050598
scalar OsgEarthNet.uav[93] utilizationEnergyMaintenance 57241.50743866
scalar OsgEarthNet.uav[93] utilizationEnergyCharge 184462.91772461
scalar OsgEarthNet.uav[93] utilizationEnergyOverdrawMission 0
scalar OsgEarthNet.uav[93] utilizationEnergyOverdrawMaintenance 0
scalar OsgEarthNet.uav[93] utilizationCountMissions 41
scalar OsgEarthNet.uav[93] utilizationCountManeuversMission 457
scalar OsgEarthNet.uav[93] utilizationCountManeuversMaintenance 82
scalar OsgEarthNet.uav[93] utilizationCountChargeState 41
scalar OsgEarthNet.uav[93] utilizationCountOverdrawnAfterMission 0
scalar OsgEarthNet.uav[93] utilizationCountIdleState 41
scalar OsgEarthNet.uav[93] utilizationFail 0
scalar OsgEarthNet.uav[93] simulationTime 259200
scalar OsgEarthNet.uav[94] utilizationSecMission 24968.245336319
scalar OsgEarthNet.uav[94] utilizationSecMaintenance 13774.565878588
scalar OsgEarthNet.uav[94] utilizationSecCharge 144730
scalar OsgEarthNet.uav[94] utilizationSecIdle 75727.187785093
scalar OsgEarthNet.uav[94] utilizationEnergyMission 114944.41158295
scalar OsgEarthNet.uav[94] utilizationEnergyMaintenance 64975.914786003
scalar OsgEarthNet.uav[94] utilizationEnergyCharge 179399.8984375
scalar OsgEarthNet.uav[94] utilizationEnergyOverdrawMission 0
scalar OsgEarthNet.uav[94] utilizationEnergyOverdrawMaintenance 0
scalar OsgEarthNet.uav[94] utilizationCountMissions 40
scalar OsgEarthNet.uav[94] utilizationCountManeuversMission 412
scalar OsgEarthNet.uav[94] utilizationCountManeuversMaintenance 81
scalar OsgEarthNet.uav[94] utilizationCountChargeState 40
scalar OsgEarthNet.uav[94] utilizationCountOverdrawnAfterMission 0
scalar OsgEarthNet.uav[94] utilizationCountIdleState 41
scalar OsgEarthNet.uav[94] utilizationFail 0
scalar OsgEarthNet.uav[94] simulationTime 259200
scalar OsgEarthNet.uav[95] utilizationSecMission 30953.568456548
scalar OsgEarthNet.uav[95] utilizationSecMaintenance 13984.430543452
scalar OsgEarthNet.uav[95] utilizationSecCharge 164860
scalar OsgEarthNet.uav[95] utilizationSecIdle 49402
scalar OsgEarthNet.uav[95] utilizationEnergyMission 143688.11263638
scalar OsgEarthNet.uav[95] utilizationEnergyMaintenance 65245.126735687
scalar OsgEarthNet.uav[95] utilizationEnergyCharge 205481.01391602
scalar OsgEarthNet.uav[95] utilizationEnergyOverdrawMission 0
scalar OsgEarthNet.uav[95] utilizationEnergyOverdrawMaintenance 0
scalar OsgEarthNet.uav[95] utilizationCountMissions 45
scalar OsgEarthNet.uav[95] utilizationCountManeuversMission 499
scalar OsgEarthNet.uav[95] utilizationCountManeuversMaintenance 90
scalar OsgEarthNet.uav[95] utilizationCountChargeState 45
scalar OsgEarthNet.uav[95] utilizationCountOverdrawnAfterMission 0
scalar OsgEarthNet.uav[95] utilizationCountIdleState 46
scalar OsgEarthNet.uav[95] utilizationFail 0
scalar OsgEarthNet.uav[95] simulationTime 259200
scalar OsgEarthNet.uav[96] utilizationSecMission 3368.4093768111
scalar OsgEarthNet.uav[96] utilizationSecMaintenance 1620.1894739494
scalar OsgEarthNet.uav[96] utilizationSecCharge 18460
scalar OsgEarthNet.uav[96] utilizationSecIdle 235751.40014924
scalar OsgEarthNet.uav[96] utilizationEnergyMission 15403.444458008
scalar OsgEarthNet.uav[96] utilizationEnergyMaintenance 7180.0380935669
scalar OsgEarthNet.uav[96] utilizationEnergyCharge 23035.668457031
scalar OsgEarthNet.uav[96] utilizationEnergyOverdrawMission 0
scalar OsgEarthNet.uav[96] utilizationEnergyOverdrawMaintenance 0
scalar OsgEarthNet.uav[96] utilizationCountMissions 5
scalar OsgEarthNet.uav[96] utilizationCountManeuversMission 56
scalar OsgEarthNet.uav[96] utilizationCountManeuversMaintenance 10
scalar OsgEarthNet.uav[96] utilizationCountChargeState 5
scalar OsgEarthNet.uav[96] utilizationCountOverdrawnAfterMission 0
scalar OsgEarthNet.uav[96] utilizationCountIdleState 6
scalar OsgEarthNet.uav[96] utilizationFail 0
scalar OsgEarthNet.uav[96] simulationTime 259200
scalar OsgEarthNet.uav[97] utilizationSecMission 31335.492573761
scalar OsgEarthNet.uav[97] utilizationSecMaintenance 12053.566251407
scalar OsgEarthNet.uav[97] utilizationSecCharge 158415.76049487
scalar OsgEarthNet.uav[97] utilizationSecIdle 57395.179679963
scalar OsgEarthNet.uav[97] utilizationEnergyMission 145595.09753418
scalar OsgEarthNet.uav[97] utilizationEnergyMaintenance 56259.259963989
scalar OsgEarthNet.uav[97] utilizationEnergyCharge 197836.75079346
scalar OsgEarthNet.uav[97] utilizationEnergyOverdrawMission 0
scalar OsgEarthNet.uav[97] utilizationEnergyOverdrawMaintenance 0
scalar OsgEarthNet.uav[97] utilizationCountMissions 44
scalar OsgEarthNet.uav[97] utilizationCountManeuversMission 528
scalar OsgEarthNet.uav[97] utilizationCountManeuversMaintenance 88
scalar OsgEarthNet.uav[97] utilizationCountChargeState 44
scalar OsgEarthNet.uav[97] utilizationCountOverdrawnAfterMission 0
scalar OsgEarthNet.uav[97] utilizationCountIdleState 44
scalar OsgEarthNet.uav[97] utilizationFail 0
scalar OsgEarthNet.uav[97] simulationTime 259200
scalar OsgEarthNet.uav[98] utilizationSecMission 27946.991015212
scalar OsgEarthNet.uav[98] utilizationSecMaintenance 14509.085622762
scalar OsgEarthNet.uav[98] utilizationSecCharge 157817.68052641
scalar OsgEarthNet.uav[98] utilizationSecIdle 58926.241835621
scalar OsgEarthNet.uav[98] utilizationEnergyMission 129262.15582275
scalar OsgEarthNet.uav[98] utilizationEnergyMaintenance 68266.354545593
scalar OsgEarthNet.uav[98] utilizationEnergyCharge 196545.61694336
scalar OsgEarthNet.uav[98] utilizationEnergyOverdrawMission 0
scalar OsgEarthNet.uav[98] utilizationEnergyOverdrawMaintenance 0
scalar OsgEarthNet.uav[98] utilizationCountMissions 44
scalar OsgEarthNet.uav[98] utilizationCountManeuversMission 451
scalar OsgEarthNet.uav[98] utilizationCountManeuversMaintenance 88
scalar OsgEarthNet.uav[98] utilizationCountChargeState 44
scalar OsgEarthNet.uav[98] utilizationCountOverdrawnAfterMission 0
scalar OsgEarthNet.uav[98] utilizationCountIdleState 44
scalar OsgEarthNet.uav[98] utilizationFail 0
scalar OsgEarthNet.uav[98] simulationTime 259200
scalar OsgEarthNet.uav[99] utilizationSecMission 8051.9889507528
scalar OsgEarthNet.uav[99] utilizationSecMaintenance 5282.7048961733
scalar OsgEarthNet.uav[99] utilizationSecCharge 48880
scalar OsgEarthNet.uav[99] utilizationSecIdle 196985.30515307
scalar OsgEarthNet.uav[99] utilizationEnergyMission 37175.822792053
scalar OsgEarthNet.uav[99] utilizationEnergyMaintenance 24302.149929047
scalar OsgEarthNet.uav[99] utilizationEnergyCharge 61737.369628906
scalar OsgEarthNet.uav[99] utilizationEnergyOverdrawMission 0
scalar OsgEarthNet.uav[99] utilizationEnergyOverdrawMaintenance 0
scalar OsgEarthNet.uav[99] utilizationCountMissions 13
scalar OsgEarthNet.uav[99] utilizationCountManeuversMission 133
scalar OsgEarthNet.uav[99] utilizationCountManeuversMaintenance 26
scalar OsgEarthNet.uav[99] utilizationCountChargeState 13
scalar OsgEarthNet.uav[99] utilizationCountOverdrawnAfterMission 0
scalar OsgEarthNet.uav[99] utilizationCountIdleState 14
scalar OsgEarthNet.uav[99] utilizationFail 0
scalar OsgEarthNet.uav[99] simulationTime 259200
scalar OsgEarthNet.cs[0] usedPower 503537.90528304
scalar OsgEarthNet.cs[0] chargedPower 503537.90528304
scalar OsgEarthNet.cs[0] chargedMobileNodes 108
scalar OsgEarthNet.cs[0] reservations 109
scalar OsgEarthNet.cs[1] usedPower 1070340.7761301
scalar OsgEarthNet.cs[1] chargedPower 1070340.7761301
scalar OsgEarthNet.cs[1] chargedMobileNodes 230
scalar OsgEarthNet.cs[1] reservations 233
scalar OsgEarthNet.cs[2] usedPower 2594114.8004908
scalar OsgEarthNet.cs[2] chargedPower 2594114.8004908
scalar OsgEarthNet.cs[2] chargedMobileNodes 546
scalar OsgEarthNet.cs[2] reservations 555
scalar OsgEarthNet.cs[3] usedPower 895958.90553568
scalar OsgEarthNet.cs[3] chargedPower 895958.90553568
scalar OsgEarthNet.cs[3] chargedMobileNodes 201
scalar OsgEarthNet.cs[3] reservations 203
scalar OsgEarthNet.cs[4] usedPower 685393.71725176
scalar OsgEarthNet.cs[4] chargedPower 685393.71725176
scalar OsgEarthNet.cs[4] chargedMobileNodes 151
scalar OsgEarthNet.cs[4] reservations 154
scalar OsgEarthNet.cs[5] usedPower 472618.38220708
scalar OsgEarthNet.cs[5] chargedPower 472618.38220708
scalar OsgEarthNet.cs[5] chargedMobileNodes 101
scalar OsgEarthNet.cs[5] reservations 101
scalar OsgEarthNet.cs[6] usedPower 2439724.6154529
scalar OsgEarthNet.cs[6] chargedPower 2439724.6154529
scalar OsgEarthNet.cs[6] chargedMobileNodes 531
scalar OsgEarthNet.cs[6] reservations 540

