version 2
run Szenario_Hotel_Gabelbach-57-20180709-15:09:42-45880
attr configname Szenario_Hotel_Gabelbach
attr datetime 20180709-15:09:42
attr experiment Szenario_Hotel_Gabelbach
attr inifile omnetpp.ini
attr iterationvars "$replM=2, $biWeight=0.6"
attr iterationvarsf replM=2,biWeight=0.6-
attr measurement "$replM=2, $biWeight=0.6"
attr network OsgEarthNet
attr processid 45880
attr repetition 9
attr replication #9
attr resultdir results
attr runnumber 57
attr seedset 57
itervar biWeight 0.6
itervar replM 2
param *.osgEarthScene.scene "\"Szenario_Hotel_Gabelbach.earth\""
param *.playgroundLatitude 50.6830269
param *.playgroundLongitude 10.8538055
param *.playgroundWidth 3500m
param *.playgroundHeight 3500m
param *.numUAVs 100
param *.cs[0].posX 3537m
param *.cs[0].posY 965m
param *.cs[0].posZ 538m
param *.cs[1].posX 312m
param *.cs[1].posY 1262m
param *.cs[1].posZ 539m
param *.cs[2].posX 2185m
param *.cs[2].posY 3026m
param *.cs[2].posZ 777m
param *.cs[3].posX 10m
param *.cs[3].posY 2200m
param *.cs[3].posZ 560m
param *.cs[4].posX 750m
param *.cs[4].posY 200m
param *.cs[4].posZ 540m
param *.cs[5].posX 2450m
param *.cs[5].posY 180m
param *.cs[5].posZ 524m
param *.cs[6].posX 3140m
param *.cs[6].posY 1790m
param *.cs[6].posZ 606m
param *.numCSs 7
param *.uav[*].replacementMethod 2
param *.uav[*].weightedSumWeight 0.6
param *.*.timeStep 10s
param *.uav[*].commandPreviewCommandCount 20
param *.missionControl.missionFiles "\"missions\\\\Szenario_WB_Hotel_Gabelbach_Mission_Hotel.waypoints,missions\\\\Szenario_WB_Hotel_Gabelbach_Mission_Kickelhahn.waypoints,missions\\\\Szenario_WB_Hotel_Gabelbach_Mission_Ilmenau_Sportplatz.waypoints,missions\\\\Szenario_WB_Hotel_Gabelbach_Mission_Manebach_Mitte.waypoints,missions\\\\Szenario_WB_Hotel_Gabelbach_Mission_Manebach_Sued.waypoints\""
param *.missionControl.missionFiles "\"missions\\\\Szenario_WB_Hotel_Gabelbach_Mission_Hotel.waypoints,missions\\\\Szenario_WB_Hotel_Gabelbach_Mission_Kickelhahn.waypoints,missions\\\\Szenario_WB_Hotel_Gabelbach_Mission_Ilmenau_Sportplatz.waypoints,missions\\\\Szenario_WB_Hotel_Gabelbach_Mission_Manebach_Mitte.waypoints,missions\\\\Szenario_WB_Hotel_Gabelbach_Mission_Manebach_Sued.waypoints,missions\\\\Szenario_WB_Hotel_Gabelbach_Hover_HoheSchlaufe.waypoints,missions\\\\Szenario_WB_Hotel_Gabelbach_Hover_Kickelhahn.waypoints,missions\\\\Szenario_WB_Hotel_Gabelbach_Hover_Gabelbachskopf.waypoints,missions\\\\Szenario_WB_Hotel_Gabelbach_Hover_Dachskopf.waypoints\""
param *.uav[0].startX 3537m
param *.uav[0].startY 965m
param *.uav[0].startZ 539m
param *.uav[1].startX 312m
param *.uav[1].startY 1262m
param *.uav[1].startZ 540m
param *.uav[2].startX 2185m
param *.uav[2].startY 3026m
param *.uav[2].startZ 778m
param *.uav[3].startX 3537m
param *.uav[3].startY 965m
param *.uav[3].startZ 539m
param *.uav[4].startX 312m
param *.uav[4].startY 1262m
param *.uav[4].startZ 540m
param *.uav[5].startX 2185m
param *.uav[5].startY 3026m
param *.uav[5].startZ 778m
param *.uav[6].startX 3537m
param *.uav[6].startY 965m
param *.uav[6].startZ 539m
param *.uav[7].startX 312m
param *.uav[7].startY 1262m
param *.uav[7].startZ 540m
param *.uav[8].startX 2185m
param *.uav[8].startY 3026m
param *.uav[8].startZ 778m
param *.uav[9].startX 3537m
param *.uav[9].startY 965m
param *.uav[9].startZ 539m
param *.uav[10].startX 3537m
param *.uav[10].startY 965m
param *.uav[10].startZ 539m
param *.uav[11].startX 312m
param *.uav[11].startY 1262m
param *.uav[11].startZ 540m
param *.uav[12].startX 2185m
param *.uav[12].startY 3026m
param *.uav[12].startZ 778m
param *.uav[13].startX 3537m
param *.uav[13].startY 965m
param *.uav[13].startZ 539m
param *.uav[14].startX 312m
param *.uav[14].startY 1262m
param *.uav[14].startZ 540m
param *.uav[15].startX 2185m
param *.uav[15].startY 3026m
param *.uav[15].startZ 778m
param *.uav[16].startX 3537m
param *.uav[16].startY 965m
param *.uav[16].startZ 539m
param *.uav[17].startX 312m
param *.uav[17].startY 1262m
param *.uav[17].startZ 540m
param *.uav[18].startX 2185m
param *.uav[18].startY 3026m
param *.uav[18].startZ 778m
param *.uav[19].startX 3537m
param *.uav[19].startY 965m
param *.uav[19].startZ 539m
param *.uav[20].startX 3537m
param *.uav[20].startY 965m
param *.uav[20].startZ 539m
param *.uav[21].startX 312m
param *.uav[21].startY 1262m
param *.uav[21].startZ 540m
param *.uav[22].startX 2185m
param *.uav[22].startY 3026m
param *.uav[22].startZ 778m
param *.uav[23].startX 3537m
param *.uav[23].startY 965m
param *.uav[23].startZ 539m
param *.uav[24].startX 312m
param *.uav[24].startY 1262m
param *.uav[24].startZ 540m
param *.uav[25].startX 2185m
param *.uav[25].startY 3026m
param *.uav[25].startZ 778m
param *.uav[26].startX 3537m
param *.uav[26].startY 965m
param *.uav[26].startZ 539m
param *.uav[27].startX 312m
param *.uav[27].startY 1262m
param *.uav[27].startZ 540m
param *.uav[28].startX 2185m
param *.uav[28].startY 3026m
param *.uav[28].startZ 778m
param *.uav[29].startX 3537m
param *.uav[29].startY 965m
param *.uav[29].startZ 539m
param *.uav[30].startX 3537m
param *.uav[30].startY 965m
param *.uav[30].startZ 539m
param *.uav[31].startX 312m
param *.uav[31].startY 1262m
param *.uav[31].startZ 540m
param *.uav[32].startX 2185m
param *.uav[32].startY 3026m
param *.uav[32].startZ 778m
param *.uav[33].startX 3537m
param *.uav[33].startY 965m
param *.uav[33].startZ 539m
param *.uav[34].startX 312m
param *.uav[34].startY 1262m
param *.uav[34].startZ 540m
param *.uav[35].startX 2185m
param *.uav[35].startY 3026m
param *.uav[35].startZ 778m
param *.uav[36].startX 3537m
param *.uav[36].startY 965m
param *.uav[36].startZ 539m
param *.uav[37].startX 312m
param *.uav[37].startY 1262m
param *.uav[37].startZ 540m
param *.uav[38].startX 2185m
param *.uav[38].startY 3026m
param *.uav[38].startZ 778m
param *.uav[39].startX 3537m
param *.uav[39].startY 965m
param *.uav[39].startZ 539m
param *.uav[40].startX 3537m
param *.uav[40].startY 965m
param *.uav[40].startZ 539m
param *.uav[41].startX 312m
param *.uav[41].startY 1262m
param *.uav[41].startZ 540m
param *.uav[42].startX 2185m
param *.uav[42].startY 3026m
param *.uav[42].startZ 778m
param *.uav[43].startX 3537m
param *.uav[43].startY 965m
param *.uav[43].startZ 539m
param *.uav[44].startX 312m
param *.uav[44].startY 1262m
param *.uav[44].startZ 540m
param *.uav[45].startX 2185m
param *.uav[45].startY 3026m
param *.uav[45].startZ 778m
param *.uav[46].startX 3537m
param *.uav[46].startY 965m
param *.uav[46].startZ 539m
param *.uav[47].startX 312m
param *.uav[47].startY 1262m
param *.uav[47].startZ 540m
param *.uav[48].startX 2185m
param *.uav[48].startY 3026m
param *.uav[48].startZ 778m
param *.uav[49].startX 3537m
param *.uav[49].startY 965m
param *.uav[49].startZ 539m
param *.uav[50].startX 3537m
param *.uav[50].startY 965m
param *.uav[50].startZ 539m
param *.uav[51].startX 312m
param *.uav[51].startY 1262m
param *.uav[51].startZ 540m
param *.uav[52].startX 2185m
param *.uav[52].startY 3026m
param *.uav[52].startZ 778m
param *.uav[53].startX 3537m
param *.uav[53].startY 965m
param *.uav[53].startZ 539m
param *.uav[54].startX 312m
param *.uav[54].startY 1262m
param *.uav[54].startZ 540m
param *.uav[55].startX 2185m
param *.uav[55].startY 3026m
param *.uav[55].startZ 778m
param *.uav[56].startX 3537m
param *.uav[56].startY 965m
param *.uav[56].startZ 539m
param *.uav[57].startX 312m
param *.uav[57].startY 1262m
param *.uav[57].startZ 540m
param *.uav[58].startX 2185m
param *.uav[58].startY 3026m
param *.uav[58].startZ 778m
param *.uav[59].startX 3537m
param *.uav[59].startY 965m
param *.uav[59].startZ 539m
param *.uav[60].startX 3537m
param *.uav[60].startY 965m
param *.uav[60].startZ 539m
param *.uav[61].startX 312m
param *.uav[61].startY 1262m
param *.uav[61].startZ 540m
param *.uav[62].startX 2185m
param *.uav[62].startY 3026m
param *.uav[62].startZ 778m
param *.uav[63].startX 3537m
param *.uav[63].startY 965m
param *.uav[63].startZ 539m
param *.uav[64].startX 312m
param *.uav[64].startY 1262m
param *.uav[64].startZ 540m
param *.uav[65].startX 2185m
param *.uav[65].startY 3026m
param *.uav[65].startZ 778m
param *.uav[66].startX 3537m
param *.uav[66].startY 965m
param *.uav[66].startZ 539m
param *.uav[67].startX 312m
param *.uav[67].startY 1262m
param *.uav[67].startZ 540m
param *.uav[68].startX 2185m
param *.uav[68].startY 3026m
param *.uav[68].startZ 778m
param *.uav[69].startX 3537m
param *.uav[69].startY 965m
param *.uav[69].startZ 539m
param *.uav[70].startX 3537m
param *.uav[70].startY 965m
param *.uav[70].startZ 539m
param *.uav[71].startX 312m
param *.uav[71].startY 1262m
param *.uav[71].startZ 540m
param *.uav[72].startX 2185m
param *.uav[72].startY 3026m
param *.uav[72].startZ 778m
param *.uav[73].startX 3537m
param *.uav[73].startY 965m
param *.uav[73].startZ 539m
param *.uav[74].startX 312m
param *.uav[74].startY 1262m
param *.uav[74].startZ 540m
param *.uav[75].startX 2185m
param *.uav[75].startY 3026m
param *.uav[75].startZ 778m
param *.uav[76].startX 3537m
param *.uav[76].startY 965m
param *.uav[76].startZ 539m
param *.uav[77].startX 312m
param *.uav[77].startY 1262m
param *.uav[77].startZ 540m
param *.uav[78].startX 2185m
param *.uav[78].startY 3026m
param *.uav[78].startZ 778m
param *.uav[79].startX 3537m
param *.uav[79].startY 965m
param *.uav[79].startZ 539m
param *.uav[80].startX 3537m
param *.uav[80].startY 965m
param *.uav[80].startZ 539m
param *.uav[81].startX 312m
param *.uav[81].startY 1262m
param *.uav[81].startZ 540m
param *.uav[82].startX 2185m
param *.uav[82].startY 3026m
param *.uav[82].startZ 778m
param *.uav[83].startX 3537m
param *.uav[83].startY 965m
param *.uav[83].startZ 539m
param *.uav[84].startX 312m
param *.uav[84].startY 1262m
param *.uav[84].startZ 540m
param *.uav[85].startX 2185m
param *.uav[85].startY 3026m
param *.uav[85].startZ 778m
param *.uav[86].startX 3537m
param *.uav[86].startY 965m
param *.uav[86].startZ 539m
param *.uav[87].startX 312m
param *.uav[87].startY 1262m
param *.uav[87].startZ 540m
param *.uav[88].startX 2185m
param *.uav[88].startY 3026m
param *.uav[88].startZ 778m
param *.uav[89].startX 3537m
param *.uav[89].startY 965m
param *.uav[89].startZ 539m
param *.uav[90].startX 3537m
param *.uav[90].startY 965m
param *.uav[90].startZ 539m
param *.uav[91].startX 312m
param *.uav[91].startY 1262m
param *.uav[91].startZ 540m
param *.uav[92].startX 2185m
param *.uav[92].startY 3026m
param *.uav[92].startZ 778m
param *.uav[93].startX 3537m
param *.uav[93].startY 965m
param *.uav[93].startZ 539m
param *.uav[94].startX 312m
param *.uav[94].startY 1262m
param *.uav[94].startZ 540m
param *.uav[95].startX 2185m
param *.uav[95].startY 3026m
param *.uav[95].startZ 778m
param *.uav[96].startX 3537m
param *.uav[96].startY 965m
param *.uav[96].startZ 539m
param *.uav[97].startX 312m
param *.uav[97].startY 1262m
param *.uav[97].startZ 540m
param *.uav[98].startX 2185m
param *.uav[98].startY 3026m
param *.uav[98].startZ 778m
param *.uav[99].startX 3537m
param *.uav[99].startY 965m
param *.uav[99].startZ 539m
param *.osgEarthScene.scene "\"boston.earth\""
param *.playgroundLatitude 42.3558
param *.playgroundLongitude -71.0677
param *.playgroundWidth 400m
param *.playgroundHeight 200m
param *.channelController.connectionColor "\"#0000FF40\""
param *.channelController.showConnections false
param *.uav[*].modelURL "\"quadrocopter.small.obj.15.scale.0,0,90.rot\""
param *.uav[*].labelColor "\"#FF7C00CC\""
param *.uav[*].label2Color "\"#FF7C00EE\""
param *.uav[*].batteryCapacity 5200mAh
param *.uav[*].batteryRemaining uav[index].batteryCapacity
param *.uav[*].predictionQuantile 0.95
param *.uav[*].replacementMethod 2
param *.uav[*].weightedSumWeight 0.5
param *.cs[*].modelURL "\"chargingstation_v1.osgt.2.scale.0,0,0.rot.0,0,-15e-1.trans\""
param *.cs[*].spotsWaiting 999
param *.cs[*].spotsCharging 999
param *.cs[*].chargeEffectivenessPercentage 100
param *.cs[*].nonLinearPhaseStartPercentage 85
param *.cs[*].chargeCurrent 6.0A
param *.cs[*].prioritizeFastCharge true
param *.missionControl.replacementSearchMethod 0
param *.*.timeStep 9s

scalar OsgEarthNet.uav[0] utilizationSecMission 698.84532193436
scalar OsgEarthNet.uav[0] utilizationSecMaintenance 323.03163670533
scalar OsgEarthNet.uav[0] utilizationSecCharge 3610
scalar OsgEarthNet.uav[0] utilizationSecIdle 254568.12204136
scalar OsgEarthNet.uav[0] utilizationEnergyMission 2942.0639953613
scalar OsgEarthNet.uav[0] utilizationEnergyMaintenance 1524.4870834351
scalar OsgEarthNet.uav[0] utilizationEnergyCharge 4466.5561523438
scalar OsgEarthNet.uav[0] utilizationEnergyOverdrawMission 0
scalar OsgEarthNet.uav[0] utilizationEnergyOverdrawMaintenance 0
scalar OsgEarthNet.uav[0] utilizationCountMissions 1
scalar OsgEarthNet.uav[0] utilizationCountManeuversMission 10
scalar OsgEarthNet.uav[0] utilizationCountManeuversMaintenance 2
scalar OsgEarthNet.uav[0] utilizationCountChargeState 1
scalar OsgEarthNet.uav[0] utilizationCountOverdrawnAfterMission 0
scalar OsgEarthNet.uav[0] utilizationCountIdleState 2
scalar OsgEarthNet.uav[0] utilizationFail 0
scalar OsgEarthNet.uav[0] simulationTime 259200
scalar OsgEarthNet.uav[1] utilizationSecMission 27565.063129917
scalar OsgEarthNet.uav[1] utilizationSecMaintenance 13944.951369575
scalar OsgEarthNet.uav[1] utilizationSecCharge 153030
scalar OsgEarthNet.uav[1] utilizationSecIdle 64659.984500508
scalar OsgEarthNet.uav[1] utilizationEnergyMission 127408.7803154
scalar OsgEarthNet.uav[1] utilizationEnergyMaintenance 65148.427562714
scalar OsgEarthNet.uav[1] utilizationEnergyCharge 192014.33789062
scalar OsgEarthNet.uav[1] utilizationEnergyOverdrawMission 0
scalar OsgEarthNet.uav[1] utilizationEnergyOverdrawMaintenance 0
scalar OsgEarthNet.uav[1] utilizationCountMissions 41
scalar OsgEarthNet.uav[1] utilizationCountManeuversMission 456
scalar OsgEarthNet.uav[1] utilizationCountManeuversMaintenance 82
scalar OsgEarthNet.uav[1] utilizationCountChargeState 41
scalar OsgEarthNet.uav[1] utilizationCountOverdrawnAfterMission 0
scalar OsgEarthNet.uav[1] utilizationCountIdleState 42
scalar OsgEarthNet.uav[1] utilizationFail 0
scalar OsgEarthNet.uav[1] simulationTime 259200
scalar OsgEarthNet.uav[2] utilizationSecMission 694.00169469977
scalar OsgEarthNet.uav[2] utilizationSecMaintenance 338.49695459722
scalar OsgEarthNet.uav[2] utilizationSecCharge 3830
scalar OsgEarthNet.uav[2] utilizationSecIdle 254337.5003507
scalar OsgEarthNet.uav[2] utilizationEnergyMission 3366.7727203369
scalar OsgEarthNet.uav[2] utilizationEnergyMaintenance 1499.9876213074
scalar OsgEarthNet.uav[2] utilizationEnergyCharge 4866.7587890625
scalar OsgEarthNet.uav[2] utilizationEnergyOverdrawMission 0
scalar OsgEarthNet.uav[2] utilizationEnergyOverdrawMaintenance 0
scalar OsgEarthNet.uav[2] utilizationCountMissions 1
scalar OsgEarthNet.uav[2] utilizationCountManeuversMission 13
scalar OsgEarthNet.uav[2] utilizationCountManeuversMaintenance 2
scalar OsgEarthNet.uav[2] utilizationCountChargeState 1
scalar OsgEarthNet.uav[2] utilizationCountOverdrawnAfterMission 0
scalar OsgEarthNet.uav[2] utilizationCountIdleState 2
scalar OsgEarthNet.uav[2] utilizationFail 0
scalar OsgEarthNet.uav[2] simulationTime 259200
scalar OsgEarthNet.uav[3] utilizationSecMission 750.20472747826
scalar OsgEarthNet.uav[3] utilizationSecMaintenance 261.68051383311
scalar OsgEarthNet.uav[3] utilizationSecCharge 3830
scalar OsgEarthNet.uav[3] utilizationSecIdle 254358.11375869
scalar OsgEarthNet.uav[3] utilizationEnergyMission 3504.0820007324
scalar OsgEarthNet.uav[3] utilizationEnergyMaintenance 1349.1813774109
scalar OsgEarthNet.uav[3] utilizationEnergyCharge 4853.2612304688
scalar OsgEarthNet.uav[3] utilizationEnergyOverdrawMission 0
scalar OsgEarthNet.uav[3] utilizationEnergyOverdrawMaintenance 0
scalar OsgEarthNet.uav[3] utilizationCountMissions 1
scalar OsgEarthNet.uav[3] utilizationCountManeuversMission 11
scalar OsgEarthNet.uav[3] utilizationCountManeuversMaintenance 2
scalar OsgEarthNet.uav[3] utilizationCountChargeState 1
scalar OsgEarthNet.uav[3] utilizationCountOverdrawnAfterMission 0
scalar OsgEarthNet.uav[3] utilizationCountIdleState 2
scalar OsgEarthNet.uav[3] utilizationFail 0
scalar OsgEarthNet.uav[3] simulationTime 259200
scalar OsgEarthNet.uav[4] utilizationSecMission 30565.509272473
scalar OsgEarthNet.uav[4] utilizationSecMaintenance 10703.05769795
scalar OsgEarthNet.uav[4] utilizationSecCharge 153660
scalar OsgEarthNet.uav[4] utilizationSecIdle 64271.432029578
scalar OsgEarthNet.uav[4] utilizationEnergyMission 142500.13573456
scalar OsgEarthNet.uav[4] utilizationEnergyMaintenance 50179.002754211
scalar OsgEarthNet.uav[4] utilizationEnergyCharge 193065.12744141
scalar OsgEarthNet.uav[4] utilizationEnergyOverdrawMission 0
scalar OsgEarthNet.uav[4] utilizationEnergyOverdrawMaintenance 0
scalar OsgEarthNet.uav[4] utilizationCountMissions 41
scalar OsgEarthNet.uav[4] utilizationCountManeuversMission 480
scalar OsgEarthNet.uav[4] utilizationCountManeuversMaintenance 82
scalar OsgEarthNet.uav[4] utilizationCountChargeState 41
scalar OsgEarthNet.uav[4] utilizationCountOverdrawnAfterMission 0
scalar OsgEarthNet.uav[4] utilizationCountIdleState 42
scalar OsgEarthNet.uav[4] utilizationFail 0
scalar OsgEarthNet.uav[4] simulationTime 259200
scalar OsgEarthNet.uav[5] utilizationSecMission 32646.861413052
scalar OsgEarthNet.uav[5] utilizationSecMaintenance 11876.895751327
scalar OsgEarthNet.uav[5] utilizationSecCharge 162730
scalar OsgEarthNet.uav[5] utilizationSecIdle 51946.241835621
scalar OsgEarthNet.uav[5] utilizationEnergyMission 151110.48562594
scalar OsgEarthNet.uav[5] utilizationEnergyMaintenance 57018.01291275
scalar OsgEarthNet.uav[5] utilizationEnergyCharge 205008.32519531
scalar OsgEarthNet.uav[5] utilizationEnergyOverdrawMission 0
scalar OsgEarthNet.uav[5] utilizationEnergyOverdrawMaintenance 0
scalar OsgEarthNet.uav[5] utilizationCountMissions 43
scalar OsgEarthNet.uav[5] utilizationCountManeuversMission 531
scalar OsgEarthNet.uav[5] utilizationCountManeuversMaintenance 87
scalar OsgEarthNet.uav[5] utilizationCountChargeState 43
scalar OsgEarthNet.uav[5] utilizationCountOverdrawnAfterMission 0
scalar OsgEarthNet.uav[5] utilizationCountIdleState 44
scalar OsgEarthNet.uav[5] utilizationFail 0
scalar OsgEarthNet.uav[5] simulationTime 259200
scalar OsgEarthNet.uav[6] utilizationSecMission 684.4732299383
scalar OsgEarthNet.uav[6] utilizationSecMaintenance 298.56834692969
scalar OsgEarthNet.uav[6] utilizationSecCharge 3810
scalar OsgEarthNet.uav[6] utilizationSecIdle 254406.95742313
scalar OsgEarthNet.uav[6] utilizationEnergyMission 3326.9245758057
scalar OsgEarthNet.uav[6] utilizationEnergyMaintenance 1445.0915756226
scalar OsgEarthNet.uav[6] utilizationEnergyCharge 4772.01953125
scalar OsgEarthNet.uav[6] utilizationEnergyOverdrawMission 0
scalar OsgEarthNet.uav[6] utilizationEnergyOverdrawMaintenance 0
scalar OsgEarthNet.uav[6] utilizationCountMissions 1
scalar OsgEarthNet.uav[6] utilizationCountManeuversMission 11
scalar OsgEarthNet.uav[6] utilizationCountManeuversMaintenance 2
scalar OsgEarthNet.uav[6] utilizationCountChargeState 1
scalar OsgEarthNet.uav[6] utilizationCountOverdrawnAfterMission 0
scalar OsgEarthNet.uav[6] utilizationCountIdleState 2
scalar OsgEarthNet.uav[6] utilizationFail 0
scalar OsgEarthNet.uav[6] simulationTime 259200
scalar OsgEarthNet.uav[7] utilizationSecMission 30090.683850352
scalar OsgEarthNet.uav[7] utilizationSecMaintenance 14906.221307741
scalar OsgEarthNet.uav[7] utilizationSecCharge 164821.09384191
scalar OsgEarthNet.uav[7] utilizationSecIdle 49382
scalar OsgEarthNet.uav[7] utilizationEnergyMission 140325.64688873
scalar OsgEarthNet.uav[7] utilizationEnergyMaintenance 69485.798870087
scalar OsgEarthNet.uav[7] utilizationEnergyCharge 206842.06079102
scalar OsgEarthNet.uav[7] utilizationEnergyOverdrawMission 0
scalar OsgEarthNet.uav[7] utilizationEnergyOverdrawMaintenance 0
scalar OsgEarthNet.uav[7] utilizationCountMissions 45
scalar OsgEarthNet.uav[7] utilizationCountManeuversMission 508
scalar OsgEarthNet.uav[7] utilizationCountManeuversMaintenance 89
scalar OsgEarthNet.uav[7] utilizationCountChargeState 45
scalar OsgEarthNet.uav[7] utilizationCountOverdrawnAfterMission 0
scalar OsgEarthNet.uav[7] utilizationCountIdleState 45
scalar OsgEarthNet.uav[7] utilizationFail 0
scalar OsgEarthNet.uav[7] simulationTime 259200
scalar OsgEarthNet.uav[8] utilizationSecMission 10500.187219244
scalar OsgEarthNet.uav[8] utilizationSecMaintenance 4523.799506371
scalar OsgEarthNet.uav[8] utilizationSecCharge 56240
scalar OsgEarthNet.uav[8] utilizationSecIdle 187936.01227439
scalar OsgEarthNet.uav[8] utilizationEnergyMission 49128.380203247
scalar OsgEarthNet.uav[8] utilizationEnergyMaintenance 21369.790588379
scalar OsgEarthNet.uav[8] utilizationEnergyCharge 70620.126953125
scalar OsgEarthNet.uav[8] utilizationEnergyOverdrawMission 0
scalar OsgEarthNet.uav[8] utilizationEnergyOverdrawMaintenance 0
scalar OsgEarthNet.uav[8] utilizationCountMissions 15
scalar OsgEarthNet.uav[8] utilizationCountManeuversMission 173
scalar OsgEarthNet.uav[8] utilizationCountManeuversMaintenance 30
scalar OsgEarthNet.uav[8] utilizationCountChargeState 15
scalar OsgEarthNet.uav[8] utilizationCountOverdrawnAfterMission 0
scalar OsgEarthNet.uav[8] utilizationCountIdleState 16
scalar OsgEarthNet.uav[8] utilizationFail 0
scalar OsgEarthNet.uav[8] simulationTime 259200
scalar OsgEarthNet.uav[9] utilizationSecMission 684.4732299383
scalar OsgEarthNet.uav[9] utilizationSecMaintenance 298.56834692969
scalar OsgEarthNet.uav[9] utilizationSecCharge 3690
scalar OsgEarthNet.uav[9] utilizationSecIdle 254526.95742313
scalar OsgEarthNet.uav[9] utilizationEnergyMission 3103.5719680786
scalar OsgEarthNet.uav[9] utilizationEnergyMaintenance 1515.4315109253
scalar OsgEarthNet.uav[9] utilizationEnergyCharge 4619.0034179688
scalar OsgEarthNet.uav[9] utilizationEnergyOverdrawMission 0
scalar OsgEarthNet.uav[9] utilizationEnergyOverdrawMaintenance 0
scalar OsgEarthNet.uav[9] utilizationCountMissions 1
scalar OsgEarthNet.uav[9] utilizationCountManeuversMission 11
scalar OsgEarthNet.uav[9] utilizationCountManeuversMaintenance 2
scalar OsgEarthNet.uav[9] utilizationCountChargeState 1
scalar OsgEarthNet.uav[9] utilizationCountOverdrawnAfterMission 0
scalar OsgEarthNet.uav[9] utilizationCountIdleState 2
scalar OsgEarthNet.uav[9] utilizationFail 0
scalar OsgEarthNet.uav[9] simulationTime 259200
scalar OsgEarthNet.uav[10] utilizationSecMission 760.62515258028
scalar OsgEarthNet.uav[10] utilizationSecMaintenance 291.95923480269
scalar OsgEarthNet.uav[10] utilizationSecCharge 3900
scalar OsgEarthNet.uav[10] utilizationSecIdle 254247.41461262
scalar OsgEarthNet.uav[10] utilizationEnergyMission 3474.334854126
scalar OsgEarthNet.uav[10] utilizationEnergyMaintenance 1489.6205673218
scalar OsgEarthNet.uav[10] utilizationEnergyCharge 4963.9565429688
scalar OsgEarthNet.uav[10] utilizationEnergyOverdrawMission 0
scalar OsgEarthNet.uav[10] utilizationEnergyOverdrawMaintenance 0
scalar OsgEarthNet.uav[10] utilizationCountMissions 1
scalar OsgEarthNet.uav[10] utilizationCountManeuversMission 12
scalar OsgEarthNet.uav[10] utilizationCountManeuversMaintenance 2
scalar OsgEarthNet.uav[10] utilizationCountChargeState 1
scalar OsgEarthNet.uav[10] utilizationCountOverdrawnAfterMission 0
scalar OsgEarthNet.uav[10] utilizationCountIdleState 2
scalar OsgEarthNet.uav[10] utilizationFail 0
scalar OsgEarthNet.uav[10] simulationTime 259200
scalar OsgEarthNet.uav[11] utilizationSecMission 16192.829291265
scalar OsgEarthNet.uav[11] utilizationSecMaintenance 8380.89026104
scalar OsgEarthNet.uav[11] utilizationSecCharge 92050
scalar OsgEarthNet.uav[11] utilizationSecIdle 142576.2794477
scalar OsgEarthNet.uav[11] utilizationEnergyMission 75599.191978455
scalar OsgEarthNet.uav[11] utilizationEnergyMaintenance 39400.459087372
scalar OsgEarthNet.uav[11] utilizationEnergyCharge 114984.36376953
scalar OsgEarthNet.uav[11] utilizationEnergyOverdrawMission 0
scalar OsgEarthNet.uav[11] utilizationEnergyOverdrawMaintenance 0
scalar OsgEarthNet.uav[11] utilizationCountMissions 25
scalar OsgEarthNet.uav[11] utilizationCountManeuversMission 273
scalar OsgEarthNet.uav[11] utilizationCountManeuversMaintenance 50
scalar OsgEarthNet.uav[11] utilizationCountChargeState 25
scalar OsgEarthNet.uav[11] utilizationCountOverdrawnAfterMission 0
scalar OsgEarthNet.uav[11] utilizationCountIdleState 26
scalar OsgEarthNet.uav[11] utilizationFail 0
scalar OsgEarthNet.uav[11] simulationTime 259200
scalar OsgEarthNet.uav[12] utilizationSecMission 887.1741082606
scalar OsgEarthNet.uav[12] utilizationSecMaintenance 181.20511066264
scalar OsgEarthNet.uav[12] utilizationSecCharge 3800
scalar OsgEarthNet.uav[12] utilizationSecIdle 254331.61978108
scalar OsgEarthNet.uav[12] utilizationEnergyMission 3957.5660705566
scalar OsgEarthNet.uav[12] utilizationEnergyMaintenance 859.49271774292
scalar OsgEarthNet.uav[12] utilizationEnergyCharge 4807.8999023438
scalar OsgEarthNet.uav[12] utilizationEnergyOverdrawMission 0
scalar OsgEarthNet.uav[12] utilizationEnergyOverdrawMaintenance 0
scalar OsgEarthNet.uav[12] utilizationCountMissions 1
scalar OsgEarthNet.uav[12] utilizationCountManeuversMission 14
scalar OsgEarthNet.uav[12] utilizationCountManeuversMaintenance 2
scalar OsgEarthNet.uav[12] utilizationCountChargeState 1
scalar OsgEarthNet.uav[12] utilizationCountOverdrawnAfterMission 0
scalar OsgEarthNet.uav[12] utilizationCountIdleState 2
scalar OsgEarthNet.uav[12] utilizationFail 0
scalar OsgEarthNet.uav[12] simulationTime 259200
scalar OsgEarthNet.uav[13] utilizationSecMission 760.62515258028
scalar OsgEarthNet.uav[13] utilizationSecMaintenance 291.95923480269
scalar OsgEarthNet.uav[13] utilizationSecCharge 3880
scalar OsgEarthNet.uav[13] utilizationSecIdle 254267.41461262
scalar OsgEarthNet.uav[13] utilizationEnergyMission 3544.0848846436
scalar OsgEarthNet.uav[13] utilizationEnergyMaintenance 1395.7967453003
scalar OsgEarthNet.uav[13] utilizationEnergyCharge 4939.8833007812
scalar OsgEarthNet.uav[13] utilizationEnergyOverdrawMission 0
scalar OsgEarthNet.uav[13] utilizationEnergyOverdrawMaintenance 0
scalar OsgEarthNet.uav[13] utilizationCountMissions 1
scalar OsgEarthNet.uav[13] utilizationCountManeuversMission 12
scalar OsgEarthNet.uav[13] utilizationCountManeuversMaintenance 2
scalar OsgEarthNet.uav[13] utilizationCountChargeState 1
scalar OsgEarthNet.uav[13] utilizationCountOverdrawnAfterMission 0
scalar OsgEarthNet.uav[13] utilizationCountIdleState 2
scalar OsgEarthNet.uav[13] utilizationFail 0
scalar OsgEarthNet.uav[13] simulationTime 259200
scalar OsgEarthNet.uav[14] utilizationSecMission 30005.263129506
scalar OsgEarthNet.uav[14] utilizationSecMaintenance 13267.328983667
scalar OsgEarthNet.uav[14] utilizationSecCharge 156260
scalar OsgEarthNet.uav[14] utilizationSecIdle 59667.406886827
scalar OsgEarthNet.uav[14] utilizationEnergyMission 139326.85868835
scalar OsgEarthNet.uav[14] utilizationEnergyMaintenance 61309.212857732
scalar OsgEarthNet.uav[14] utilizationEnergyCharge 195611.09472656
scalar OsgEarthNet.uav[14] utilizationEnergyOverdrawMission 0
scalar OsgEarthNet.uav[14] utilizationEnergyOverdrawMaintenance 0
scalar OsgEarthNet.uav[14] utilizationCountMissions 43
scalar OsgEarthNet.uav[14] utilizationCountManeuversMission 496
scalar OsgEarthNet.uav[14] utilizationCountManeuversMaintenance 86
scalar OsgEarthNet.uav[14] utilizationCountChargeState 42
scalar OsgEarthNet.uav[14] utilizationCountOverdrawnAfterMission 0
scalar OsgEarthNet.uav[14] utilizationCountIdleState 43
scalar OsgEarthNet.uav[14] utilizationFail 0
scalar OsgEarthNet.uav[14] simulationTime 259200
scalar OsgEarthNet.uav[15] utilizationSecMission 26132.423677676
scalar OsgEarthNet.uav[15] utilizationSecMaintenance 11307.37315902
scalar OsgEarthNet.uav[15] utilizationSecCharge 134298.80367892
scalar OsgEarthNet.uav[15] utilizationSecIdle 87461.398484386
scalar OsgEarthNet.uav[15] utilizationEnergyMission 120792.11244965
scalar OsgEarthNet.uav[15] utilizationEnergyMaintenance 52069.478019714
scalar OsgEarthNet.uav[15] utilizationEnergyCharge 168593.09460449
scalar OsgEarthNet.uav[15] utilizationEnergyOverdrawMission 0
scalar OsgEarthNet.uav[15] utilizationEnergyOverdrawMaintenance 0
scalar OsgEarthNet.uav[15] utilizationCountMissions 37
scalar OsgEarthNet.uav[15] utilizationCountManeuversMission 428
scalar OsgEarthNet.uav[15] utilizationCountManeuversMaintenance 74
scalar OsgEarthNet.uav[15] utilizationCountChargeState 37
scalar OsgEarthNet.uav[15] utilizationCountOverdrawnAfterMission 0
scalar OsgEarthNet.uav[15] utilizationCountIdleState 37
scalar OsgEarthNet.uav[15] utilizationFail 0
scalar OsgEarthNet.uav[15] simulationTime 259200
scalar OsgEarthNet.uav[16] utilizationSecMission 545.05972348896
scalar OsgEarthNet.uav[16] utilizationSecMaintenance 427.36308650536
scalar OsgEarthNet.uav[16] utilizationSecCharge 3660
scalar OsgEarthNet.uav[16] utilizationSecIdle 254567.57619001
scalar OsgEarthNet.uav[16] utilizationEnergyMission 2666.031539917
scalar OsgEarthNet.uav[16] utilizationEnergyMaintenance 1950.3866500854
scalar OsgEarthNet.uav[16] utilizationEnergyCharge 4550.462890625
scalar OsgEarthNet.uav[16] utilizationEnergyOverdrawMission 0
scalar OsgEarthNet.uav[16] utilizationEnergyOverdrawMaintenance 0
scalar OsgEarthNet.uav[16] utilizationCountMissions 1
scalar OsgEarthNet.uav[16] utilizationCountManeuversMission 9
scalar OsgEarthNet.uav[16] utilizationCountManeuversMaintenance 2
scalar OsgEarthNet.uav[16] utilizationCountChargeState 1
scalar OsgEarthNet.uav[16] utilizationCountOverdrawnAfterMission 0
scalar OsgEarthNet.uav[16] utilizationCountIdleState 2
scalar OsgEarthNet.uav[16] utilizationFail 0
scalar OsgEarthNet.uav[16] simulationTime 259200
scalar OsgEarthNet.uav[17] utilizationSecMission 29708.258278406
scalar OsgEarthNet.uav[17] utilizationSecMaintenance 12760.734080731
scalar OsgEarthNet.uav[17] utilizationSecCharge 156646.39475135
scalar OsgEarthNet.uav[17] utilizationSecIdle 60084.611889516
scalar OsgEarthNet.uav[17] utilizationEnergyMission 136777.63499069
scalar OsgEarthNet.uav[17] utilizationEnergyMaintenance 59538.523685455
scalar OsgEarthNet.uav[17] utilizationEnergyCharge 196673.17626953
scalar OsgEarthNet.uav[17] utilizationEnergyOverdrawMission 0
scalar OsgEarthNet.uav[17] utilizationEnergyOverdrawMaintenance 0
scalar OsgEarthNet.uav[17] utilizationCountMissions 42
scalar OsgEarthNet.uav[17] utilizationCountManeuversMission 484
scalar OsgEarthNet.uav[17] utilizationCountManeuversMaintenance 84
scalar OsgEarthNet.uav[17] utilizationCountChargeState 42
scalar OsgEarthNet.uav[17] utilizationCountOverdrawnAfterMission 0
scalar OsgEarthNet.uav[17] utilizationCountIdleState 42
scalar OsgEarthNet.uav[17] utilizationFail 0
scalar OsgEarthNet.uav[17] simulationTime 259200
scalar OsgEarthNet.uav[18] utilizationSecMission 30912.091506318
scalar OsgEarthNet.uav[18] utilizationSecMaintenance 13044.176528366
scalar OsgEarthNet.uav[18] utilizationSecCharge 161287.69486655
scalar OsgEarthNet.uav[18] utilizationSecIdle 53956.036098769
scalar OsgEarthNet.uav[18] utilizationEnergyMission 143092.6842041
scalar OsgEarthNet.uav[18] utilizationEnergyMaintenance 61293.940673828
scalar OsgEarthNet.uav[18] utilizationEnergyCharge 202163.91821289
scalar OsgEarthNet.uav[18] utilizationEnergyOverdrawMission 0
scalar OsgEarthNet.uav[18] utilizationEnergyOverdrawMaintenance 0
scalar OsgEarthNet.uav[18] utilizationCountMissions 44
scalar OsgEarthNet.uav[18] utilizationCountManeuversMission 514
scalar OsgEarthNet.uav[18] utilizationCountManeuversMaintenance 88
scalar OsgEarthNet.uav[18] utilizationCountChargeState 44
scalar OsgEarthNet.uav[18] utilizationCountOverdrawnAfterMission 0
scalar OsgEarthNet.uav[18] utilizationCountIdleState 44
scalar OsgEarthNet.uav[18] utilizationFail 0
scalar OsgEarthNet.uav[18] simulationTime 259200
scalar OsgEarthNet.uav[19] utilizationSecMission 684.4732299383
scalar OsgEarthNet.uav[19] utilizationSecMaintenance 298.56834692969
scalar OsgEarthNet.uav[19] utilizationSecCharge 3660
scalar OsgEarthNet.uav[19] utilizationSecIdle 254556.95742313
scalar OsgEarthNet.uav[19] utilizationEnergyMission 3202.1040344238
scalar OsgEarthNet.uav[19] utilizationEnergyMaintenance 1341.6725387573
scalar OsgEarthNet.uav[19] utilizationEnergyCharge 4543.7768554688
scalar OsgEarthNet.uav[19] utilizationEnergyOverdrawMission 0
scalar OsgEarthNet.uav[19] utilizationEnergyOverdrawMaintenance 0
scalar OsgEarthNet.uav[19] utilizationCountMissions 1
scalar OsgEarthNet.uav[19] utilizationCountManeuversMission 11
scalar OsgEarthNet.uav[19] utilizationCountManeuversMaintenance 2
scalar OsgEarthNet.uav[19] utilizationCountChargeState 1
scalar OsgEarthNet.uav[19] utilizationCountOverdrawnAfterMission 0
scalar OsgEarthNet.uav[19] utilizationCountIdleState 2
scalar OsgEarthNet.uav[19] utilizationFail 0
scalar OsgEarthNet.uav[19] simulationTime 259200
scalar OsgEarthNet.uav[20] utilizationSecMission 29042.890542289
scalar OsgEarthNet.uav[20] utilizationSecMaintenance 14939.941806148
scalar OsgEarthNet.uav[20] utilizationSecCharge 161745.16665156
scalar OsgEarthNet.uav[20] utilizationSecIdle 53472
scalar OsgEarthNet.uav[20] utilizationEnergyMission 133911.91136932
scalar OsgEarthNet.uav[20] utilizationEnergyMaintenance 70641.027694702
scalar OsgEarthNet.uav[20] utilizationEnergyCharge 203362.3449707
scalar OsgEarthNet.uav[20] utilizationEnergyOverdrawMission 0
scalar OsgEarthNet.uav[20] utilizationEnergyOverdrawMaintenance 0
scalar OsgEarthNet.uav[20] utilizationCountMissions 44
scalar OsgEarthNet.uav[20] utilizationCountManeuversMission 464
scalar OsgEarthNet.uav[20] utilizationCountManeuversMaintenance 87
scalar OsgEarthNet.uav[20] utilizationCountChargeState 44
scalar OsgEarthNet.uav[20] utilizationCountOverdrawnAfterMission 0
scalar OsgEarthNet.uav[20] utilizationCountIdleState 44
scalar OsgEarthNet.uav[20] utilizationFail 0
scalar OsgEarthNet.uav[20] simulationTime 259200
scalar OsgEarthNet.uav[21] utilizationSecMission 597.53391521556
scalar OsgEarthNet.uav[21] utilizationSecMaintenance 388.71128889908
scalar OsgEarthNet.uav[21] utilizationSecCharge 3540
scalar OsgEarthNet.uav[21] utilizationSecIdle 254673.75379589
scalar OsgEarthNet.uav[21] utilizationEnergyMission 2815.4444274902
scalar OsgEarthNet.uav[21] utilizationEnergyMaintenance 1806.7348899841
scalar OsgEarthNet.uav[21] utilizationEnergyCharge 4363.6049804688
scalar OsgEarthNet.uav[21] utilizationEnergyOverdrawMission 0
scalar OsgEarthNet.uav[21] utilizationEnergyOverdrawMaintenance 0
scalar OsgEarthNet.uav[21] utilizationCountMissions 1
scalar OsgEarthNet.uav[21] utilizationCountManeuversMission 9
scalar OsgEarthNet.uav[21] utilizationCountManeuversMaintenance 2
scalar OsgEarthNet.uav[21] utilizationCountChargeState 1
scalar OsgEarthNet.uav[21] utilizationCountOverdrawnAfterMission 0
scalar OsgEarthNet.uav[21] utilizationCountIdleState 2
scalar OsgEarthNet.uav[21] utilizationFail 0
scalar OsgEarthNet.uav[21] simulationTime 259200
scalar OsgEarthNet.uav[22] utilizationSecMission 29109.605656842
scalar OsgEarthNet.uav[22] utilizationSecMaintenance 14834.126101849
scalar OsgEarthNet.uav[22] utilizationSecCharge 162974.26724131
scalar OsgEarthNet.uav[22] utilizationSecIdle 52282
scalar OsgEarthNet.uav[22] utilizationEnergyMission 136013.5903929
scalar OsgEarthNet.uav[22] utilizationEnergyMaintenance 68367.434082031
scalar OsgEarthNet.uav[22] utilizationEnergyCharge 204185.27978516
scalar OsgEarthNet.uav[22] utilizationEnergyOverdrawMission 0
scalar OsgEarthNet.uav[22] utilizationEnergyOverdrawMaintenance 0
scalar OsgEarthNet.uav[22] utilizationCountMissions 44
scalar OsgEarthNet.uav[22] utilizationCountManeuversMission 475
scalar OsgEarthNet.uav[22] utilizationCountManeuversMaintenance 87
scalar OsgEarthNet.uav[22] utilizationCountChargeState 44
scalar OsgEarthNet.uav[22] utilizationCountOverdrawnAfterMission 0
scalar OsgEarthNet.uav[22] utilizationCountIdleState 44
scalar OsgEarthNet.uav[22] utilizationFail 0
scalar OsgEarthNet.uav[22] simulationTime 259200
scalar OsgEarthNet.uav[23] utilizationSecMission 702.6942798579
scalar OsgEarthNet.uav[23] utilizationSecMaintenance 282.29565405678
scalar OsgEarthNet.uav[23] utilizationSecCharge 3750
scalar OsgEarthNet.uav[23] utilizationSecIdle 254465.00906609
scalar OsgEarthNet.uav[23] utilizationEnergyMission 3386.1601409912
scalar OsgEarthNet.uav[23] utilizationEnergyMaintenance 1315.3692741394
scalar OsgEarthNet.uav[23] utilizationEnergyCharge 4701.5288085938
scalar OsgEarthNet.uav[23] utilizationEnergyOverdrawMission 0
scalar OsgEarthNet.uav[23] utilizationEnergyOverdrawMaintenance 0
scalar OsgEarthNet.uav[23] utilizationCountMissions 1
scalar OsgEarthNet.uav[23] utilizationCountManeuversMission 10
scalar OsgEarthNet.uav[23] utilizationCountManeuversMaintenance 2
scalar OsgEarthNet.uav[23] utilizationCountChargeState 1
scalar OsgEarthNet.uav[23] utilizationCountOverdrawnAfterMission 0
scalar OsgEarthNet.uav[23] utilizationCountIdleState 2
scalar OsgEarthNet.uav[23] utilizationFail 0
scalar OsgEarthNet.uav[23] simulationTime 259200
scalar OsgEarthNet.uav[24] utilizationSecMission 648.09208854277
scalar OsgEarthNet.uav[24] utilizationSecMaintenance 399.17886017656
scalar OsgEarthNet.uav[24] utilizationSecCharge 3740
scalar OsgEarthNet.uav[24] utilizationSecIdle 254412.72805128
scalar OsgEarthNet.uav[24] utilizationEnergyMission 2600.9462738037
scalar OsgEarthNet.uav[24] utilizationEnergyMaintenance 1957.3446464539
scalar OsgEarthNet.uav[24] utilizationEnergyCharge 4643.0415039062
scalar OsgEarthNet.uav[24] utilizationEnergyOverdrawMission 0
scalar OsgEarthNet.uav[24] utilizationEnergyOverdrawMaintenance 0
scalar OsgEarthNet.uav[24] utilizationCountMissions 1
scalar OsgEarthNet.uav[24] utilizationCountManeuversMission 10
scalar OsgEarthNet.uav[24] utilizationCountManeuversMaintenance 2
scalar OsgEarthNet.uav[24] utilizationCountChargeState 1
scalar OsgEarthNet.uav[24] utilizationCountOverdrawnAfterMission 0
scalar OsgEarthNet.uav[24] utilizationCountIdleState 2
scalar OsgEarthNet.uav[24] utilizationFail 0
scalar OsgEarthNet.uav[24] simulationTime 259200
scalar OsgEarthNet.uav[25] utilizationSecMission 694.00169469977
scalar OsgEarthNet.uav[25] utilizationSecMaintenance 338.49695459722
scalar OsgEarthNet.uav[25] utilizationSecCharge 3710
scalar OsgEarthNet.uav[25] utilizationSecIdle 254457.5003507
scalar OsgEarthNet.uav[25] utilizationEnergyMission 3112.2907714844
scalar OsgEarthNet.uav[25] utilizationEnergyMaintenance 1550.9060173035
scalar OsgEarthNet.uav[25] utilizationEnergyCharge 4663.2021484375
scalar OsgEarthNet.uav[25] utilizationEnergyOverdrawMission 0
scalar OsgEarthNet.uav[25] utilizationEnergyOverdrawMaintenance 0
scalar OsgEarthNet.uav[25] utilizationCountMissions 1
scalar OsgEarthNet.uav[25] utilizationCountManeuversMission 13
scalar OsgEarthNet.uav[25] utilizationCountManeuversMaintenance 2
scalar OsgEarthNet.uav[25] utilizationCountChargeState 1
scalar OsgEarthNet.uav[25] utilizationCountOverdrawnAfterMission 0
scalar OsgEarthNet.uav[25] utilizationCountIdleState 2
scalar OsgEarthNet.uav[25] utilizationFail 0
scalar OsgEarthNet.uav[25] simulationTime 259200
scalar OsgEarthNet.uav[26] utilizationSecMission 760.62515258028
scalar OsgEarthNet.uav[26] utilizationSecMaintenance 223.6438949726
scalar OsgEarthNet.uav[26] utilizationSecCharge 3830
scalar OsgEarthNet.uav[26] utilizationSecIdle 254385.72995245
scalar OsgEarthNet.uav[26] utilizationEnergyMission 3737.6079711914
scalar OsgEarthNet.uav[26] utilizationEnergyMaintenance 1079.1725883484
scalar OsgEarthNet.uav[26] utilizationEnergyCharge 4816.7827148438
scalar OsgEarthNet.uav[26] utilizationEnergyOverdrawMission 0
scalar OsgEarthNet.uav[26] utilizationEnergyOverdrawMaintenance 0
scalar OsgEarthNet.uav[26] utilizationCountMissions 1
scalar OsgEarthNet.uav[26] utilizationCountManeuversMission 12
scalar OsgEarthNet.uav[26] utilizationCountManeuversMaintenance 2
scalar OsgEarthNet.uav[26] utilizationCountChargeState 1
scalar OsgEarthNet.uav[26] utilizationCountOverdrawnAfterMission 0
scalar OsgEarthNet.uav[26] utilizationCountIdleState 2
scalar OsgEarthNet.uav[26] utilizationFail 0
scalar OsgEarthNet.uav[26] simulationTime 259200
scalar OsgEarthNet.uav[27] utilizationSecMission 24005.696295348
scalar OsgEarthNet.uav[27] utilizationSecMaintenance 11623.01728482
scalar OsgEarthNet.uav[27] utilizationSecCharge 129613.22858373
scalar OsgEarthNet.uav[27] utilizationSecIdle 93958.056836106
scalar OsgEarthNet.uav[27] utilizationEnergyMission 110255.07221222
scalar OsgEarthNet.uav[27] utilizationEnergyMaintenance 55087.554641724
scalar OsgEarthNet.uav[27] utilizationEnergyCharge 163939.80981445
scalar OsgEarthNet.uav[27] utilizationEnergyOverdrawMission 0
scalar OsgEarthNet.uav[27] utilizationEnergyOverdrawMaintenance 0
scalar OsgEarthNet.uav[27] utilizationCountMissions 35
scalar OsgEarthNet.uav[27] utilizationCountManeuversMission 406
scalar OsgEarthNet.uav[27] utilizationCountManeuversMaintenance 70
scalar OsgEarthNet.uav[27] utilizationCountChargeState 35
scalar OsgEarthNet.uav[27] utilizationCountOverdrawnAfterMission 0
scalar OsgEarthNet.uav[27] utilizationCountIdleState 35
scalar OsgEarthNet.uav[27] utilizationFail 0
scalar OsgEarthNet.uav[27] simulationTime 259200
scalar OsgEarthNet.uav[28] utilizationSecMission 694.00169469977
scalar OsgEarthNet.uav[28] utilizationSecMaintenance 338.49695459722
scalar OsgEarthNet.uav[28] utilizationSecCharge 3860
scalar OsgEarthNet.uav[28] utilizationSecIdle 254307.5003507
scalar OsgEarthNet.uav[28] utilizationEnergyMission 3260.1648406982
scalar OsgEarthNet.uav[28] utilizationEnergyMaintenance 1630.9778556824
scalar OsgEarthNet.uav[28] utilizationEnergyCharge 4891.146484375
scalar OsgEarthNet.uav[28] utilizationEnergyOverdrawMission 0
scalar OsgEarthNet.uav[28] utilizationEnergyOverdrawMaintenance 0
scalar OsgEarthNet.uav[28] utilizationCountMissions 1
scalar OsgEarthNet.uav[28] utilizationCountManeuversMission 13
scalar OsgEarthNet.uav[28] utilizationCountManeuversMaintenance 2
scalar OsgEarthNet.uav[28] utilizationCountChargeState 1
scalar OsgEarthNet.uav[28] utilizationCountOverdrawnAfterMission 0
scalar OsgEarthNet.uav[28] utilizationCountIdleState 2
scalar OsgEarthNet.uav[28] utilizationFail 0
scalar OsgEarthNet.uav[28] simulationTime 259200
scalar OsgEarthNet.uav[29] utilizationSecMission 19657.94466701
scalar OsgEarthNet.uav[29] utilizationSecMaintenance 9563.0381943586
scalar OsgEarthNet.uav[29] utilizationSecCharge 108180
scalar OsgEarthNet.uav[29] utilizationSecIdle 121799.01613863
scalar OsgEarthNet.uav[29] utilizationEnergyMission 91580.378669739
scalar OsgEarthNet.uav[29] utilizationEnergyMaintenance 44550.479164124
scalar OsgEarthNet.uav[29] utilizationEnergyCharge 135547.98291016
scalar OsgEarthNet.uav[29] utilizationEnergyOverdrawMission 0
scalar OsgEarthNet.uav[29] utilizationEnergyOverdrawMaintenance 0
scalar OsgEarthNet.uav[29] utilizationCountMissions 29
scalar OsgEarthNet.uav[29] utilizationCountManeuversMission 342
scalar OsgEarthNet.uav[29] utilizationCountManeuversMaintenance 58
scalar OsgEarthNet.uav[29] utilizationCountChargeState 29
scalar OsgEarthNet.uav[29] utilizationCountOverdrawnAfterMission 0
scalar OsgEarthNet.uav[29] utilizationCountIdleState 30
scalar OsgEarthNet.uav[29] utilizationFail 0
scalar OsgEarthNet.uav[29] simulationTime 259200
scalar OsgEarthNet.uav[30] utilizationSecMission 750.20472747826
scalar OsgEarthNet.uav[30] utilizationSecMaintenance 261.68051383311
scalar OsgEarthNet.uav[30] utilizationSecCharge 3860
scalar OsgEarthNet.uav[30] utilizationSecIdle 254328.11375869
scalar OsgEarthNet.uav[30] utilizationEnergyMission 3452.3929443359
scalar OsgEarthNet.uav[30] utilizationEnergyMaintenance 1446.3352165222
scalar OsgEarthNet.uav[30] utilizationEnergyCharge 4898.7309570312
scalar OsgEarthNet.uav[30] utilizationEnergyOverdrawMission 0
scalar OsgEarthNet.uav[30] utilizationEnergyOverdrawMaintenance 0
scalar OsgEarthNet.uav[30] utilizationCountMissions 1
scalar OsgEarthNet.uav[30] utilizationCountManeuversMission 11
scalar OsgEarthNet.uav[30] utilizationCountManeuversMaintenance 2
scalar OsgEarthNet.uav[30] utilizationCountChargeState 1
scalar OsgEarthNet.uav[30] utilizationCountOverdrawnAfterMission 0
scalar OsgEarthNet.uav[30] utilizationCountIdleState 2
scalar OsgEarthNet.uav[30] utilizationFail 0
scalar OsgEarthNet.uav[30] simulationTime 259200
scalar OsgEarthNet.uav[31] utilizationSecMission 28281.78286743
scalar OsgEarthNet.uav[31] utilizationSecMaintenance 14355.593430081
scalar OsgEarthNet.uav[31] utilizationSecCharge 158340
scalar OsgEarthNet.uav[31] utilizationSecIdle 58222.622702488
scalar OsgEarthNet.uav[31] utilizationEnergyMission 131454.12026215
scalar OsgEarthNet.uav[31] utilizationEnergyMaintenance 67874.009456635
scalar OsgEarthNet.uav[31] utilizationEnergyCharge 199194.53125
scalar OsgEarthNet.uav[31] utilizationEnergyOverdrawMission 0
scalar OsgEarthNet.uav[31] utilizationEnergyOverdrawMaintenance 0
scalar OsgEarthNet.uav[31] utilizationCountMissions 42
scalar OsgEarthNet.uav[31] utilizationCountManeuversMission 458
scalar OsgEarthNet.uav[31] utilizationCountManeuversMaintenance 84
scalar OsgEarthNet.uav[31] utilizationCountChargeState 42
scalar OsgEarthNet.uav[31] utilizationCountOverdrawnAfterMission 0
scalar OsgEarthNet.uav[31] utilizationCountIdleState 43
scalar OsgEarthNet.uav[31] utilizationFail 0
scalar OsgEarthNet.uav[31] simulationTime 259200
scalar OsgEarthNet.uav[32] utilizationSecMission 694.00169469977
scalar OsgEarthNet.uav[32] utilizationSecMaintenance 338.49695459722
scalar OsgEarthNet.uav[32] utilizationSecCharge 3790
scalar OsgEarthNet.uav[32] utilizationSecIdle 254377.5003507
scalar OsgEarthNet.uav[32] utilizationEnergyMission 3244.6433944702
scalar OsgEarthNet.uav[32] utilizationEnergyMaintenance 1537.3209342957
scalar OsgEarthNet.uav[32] utilizationEnergyCharge 4781.9638671875
scalar OsgEarthNet.uav[32] utilizationEnergyOverdrawMission 0
scalar OsgEarthNet.uav[32] utilizationEnergyOverdrawMaintenance 0
scalar OsgEarthNet.uav[32] utilizationCountMissions 1
scalar OsgEarthNet.uav[32] utilizationCountManeuversMission 13
scalar OsgEarthNet.uav[32] utilizationCountManeuversMaintenance 2
scalar OsgEarthNet.uav[32] utilizationCountChargeState 1
scalar OsgEarthNet.uav[32] utilizationCountOverdrawnAfterMission 0
scalar OsgEarthNet.uav[32] utilizationCountIdleState 2
scalar OsgEarthNet.uav[32] utilizationFail 0
scalar OsgEarthNet.uav[32] simulationTime 259200
scalar OsgEarthNet.uav[33] utilizationSecMission 581.19640448947
scalar OsgEarthNet.uav[33] utilizationSecMaintenance 393.71026136566
scalar OsgEarthNet.uav[33] utilizationSecCharge 3700
scalar OsgEarthNet.uav[33] utilizationSecIdle 254525.09233414
scalar OsgEarthNet.uav[33] utilizationEnergyMission 2521.800567627
scalar OsgEarthNet.uav[33] utilizationEnergyMaintenance 1989.8666915894
scalar OsgEarthNet.uav[33] utilizationEnergyCharge 4565.0234375
scalar OsgEarthNet.uav[33] utilizationEnergyOverdrawMission 0
scalar OsgEarthNet.uav[33] utilizationEnergyOverdrawMaintenance 0
scalar OsgEarthNet.uav[33] utilizationCountMissions 1
scalar OsgEarthNet.uav[33] utilizationCountManeuversMission 9
scalar OsgEarthNet.uav[33] utilizationCountManeuversMaintenance 2
scalar OsgEarthNet.uav[33] utilizationCountChargeState 1
scalar OsgEarthNet.uav[33] utilizationCountOverdrawnAfterMission 0
scalar OsgEarthNet.uav[33] utilizationCountIdleState 2
scalar OsgEarthNet.uav[33] utilizationFail 0
scalar OsgEarthNet.uav[33] simulationTime 259200
scalar OsgEarthNet.uav[34] utilizationSecMission 24399.37555572
scalar OsgEarthNet.uav[34] utilizationSecMaintenance 11735.212162305
scalar OsgEarthNet.uav[34] utilizationSecCharge 132860.67226787
scalar OsgEarthNet.uav[34] utilizationSecIdle 90204.739014102
scalar OsgEarthNet.uav[34] utilizationEnergyMission 112871.5268631
scalar OsgEarthNet.uav[34] utilizationEnergyMaintenance 55242.352035522
scalar OsgEarthNet.uav[34] utilizationEnergyCharge 167734.69506836
scalar OsgEarthNet.uav[34] utilizationEnergyOverdrawMission 0
scalar OsgEarthNet.uav[34] utilizationEnergyOverdrawMaintenance 0
scalar OsgEarthNet.uav[34] utilizationCountMissions 36
scalar OsgEarthNet.uav[34] utilizationCountManeuversMission 403
scalar OsgEarthNet.uav[34] utilizationCountManeuversMaintenance 72
scalar OsgEarthNet.uav[34] utilizationCountChargeState 36
scalar OsgEarthNet.uav[34] utilizationCountOverdrawnAfterMission 0
scalar OsgEarthNet.uav[34] utilizationCountIdleState 36
scalar OsgEarthNet.uav[34] utilizationFail 0
scalar OsgEarthNet.uav[34] simulationTime 259200
scalar OsgEarthNet.uav[35] utilizationSecMission 31799.246693769
scalar OsgEarthNet.uav[35] utilizationSecMaintenance 12697.569590982
scalar OsgEarthNet.uav[35] utilizationSecCharge 162391.18271525
scalar OsgEarthNet.uav[35] utilizationSecIdle 52312
scalar OsgEarthNet.uav[35] utilizationEnergyMission 147471.77735893
scalar OsgEarthNet.uav[35] utilizationEnergyMaintenance 58957.230163574
scalar OsgEarthNet.uav[35] utilizationEnergyCharge 204671.01733398
scalar OsgEarthNet.uav[35] utilizationEnergyOverdrawMission 0
scalar OsgEarthNet.uav[35] utilizationEnergyOverdrawMaintenance 0
scalar OsgEarthNet.uav[35] utilizationCountMissions 44
scalar OsgEarthNet.uav[35] utilizationCountManeuversMission 518
scalar OsgEarthNet.uav[35] utilizationCountManeuversMaintenance 87
scalar OsgEarthNet.uav[35] utilizationCountChargeState 44
scalar OsgEarthNet.uav[35] utilizationCountOverdrawnAfterMission 0
scalar OsgEarthNet.uav[35] utilizationCountIdleState 44
scalar OsgEarthNet.uav[35] utilizationFail 0
scalar OsgEarthNet.uav[35] simulationTime 259200
scalar OsgEarthNet.uav[36] utilizationSecMission 684.4732299383
scalar OsgEarthNet.uav[36] utilizationSecMaintenance 298.56834692969
scalar OsgEarthNet.uav[36] utilizationSecCharge 3810
scalar OsgEarthNet.uav[36] utilizationSecIdle 254406.95742313
scalar OsgEarthNet.uav[36] utilizationEnergyMission 3281.2050170898
scalar OsgEarthNet.uav[36] utilizationEnergyMaintenance 1542.0248031616
scalar OsgEarthNet.uav[36] utilizationEnergyCharge 4823.2319335938
scalar OsgEarthNet.uav[36] utilizationEnergyOverdrawMission 0
scalar OsgEarthNet.uav[36] utilizationEnergyOverdrawMaintenance 0
scalar OsgEarthNet.uav[36] utilizationCountMissions 1
scalar OsgEarthNet.uav[36] utilizationCountManeuversMission 11
scalar OsgEarthNet.uav[36] utilizationCountManeuversMaintenance 2
scalar OsgEarthNet.uav[36] utilizationCountChargeState 1
scalar OsgEarthNet.uav[36] utilizationCountOverdrawnAfterMission 0
scalar OsgEarthNet.uav[36] utilizationCountIdleState 2
scalar OsgEarthNet.uav[36] utilizationFail 0
scalar OsgEarthNet.uav[36] simulationTime 259200
scalar OsgEarthNet.uav[37] utilizationSecMission 27952.053086012
scalar OsgEarthNet.uav[37] utilizationSecMaintenance 13717.953171612
scalar OsgEarthNet.uav[37] utilizationSecCharge 151523.31193449
scalar OsgEarthNet.uav[37] utilizationSecIdle 66006.680807888
scalar OsgEarthNet.uav[37] utilizationEnergyMission 130525.82679749
scalar OsgEarthNet.uav[37] utilizationEnergyMaintenance 63132.775920868
scalar OsgEarthNet.uav[37] utilizationEnergyCharge 191032.45483398
scalar OsgEarthNet.uav[37] utilizationEnergyOverdrawMission 0
scalar OsgEarthNet.uav[37] utilizationEnergyOverdrawMaintenance 0
scalar OsgEarthNet.uav[37] utilizationCountMissions 41
scalar OsgEarthNet.uav[37] utilizationCountManeuversMission 469
scalar OsgEarthNet.uav[37] utilizationCountManeuversMaintenance 82
scalar OsgEarthNet.uav[37] utilizationCountChargeState 41
scalar OsgEarthNet.uav[37] utilizationCountOverdrawnAfterMission 0
scalar OsgEarthNet.uav[37] utilizationCountIdleState 41
scalar OsgEarthNet.uav[37] utilizationFail 0
scalar OsgEarthNet.uav[37] simulationTime 259200
scalar OsgEarthNet.uav[38] utilizationSecMission 694.00169469977
scalar OsgEarthNet.uav[38] utilizationSecMaintenance 338.49695459722
scalar OsgEarthNet.uav[38] utilizationSecCharge 3770
scalar OsgEarthNet.uav[38] utilizationSecIdle 254397.5003507
scalar OsgEarthNet.uav[38] utilizationEnergyMission 3175.7090606689
scalar OsgEarthNet.uav[38] utilizationEnergyMaintenance 1583.4642448425
scalar OsgEarthNet.uav[38] utilizationEnergyCharge 4759.171875
scalar OsgEarthNet.uav[38] utilizationEnergyOverdrawMission 0
scalar OsgEarthNet.uav[38] utilizationEnergyOverdrawMaintenance 0
scalar OsgEarthNet.uav[38] utilizationCountMissions 1
scalar OsgEarthNet.uav[38] utilizationCountManeuversMission 13
scalar OsgEarthNet.uav[38] utilizationCountManeuversMaintenance 2
scalar OsgEarthNet.uav[38] utilizationCountChargeState 1
scalar OsgEarthNet.uav[38] utilizationCountOverdrawnAfterMission 0
scalar OsgEarthNet.uav[38] utilizationCountIdleState 2
scalar OsgEarthNet.uav[38] utilizationFail 0
scalar OsgEarthNet.uav[38] simulationTime 259200
scalar OsgEarthNet.uav[39] utilizationSecMission 24849.592097659
scalar OsgEarthNet.uav[39] utilizationSecMaintenance 12698.006419976
scalar OsgEarthNet.uav[39] utilizationSecCharge 136867.15006199
scalar OsgEarthNet.uav[39] utilizationSecIdle 84785.250420373
scalar OsgEarthNet.uav[39] utilizationEnergyMission 114081.80604553
scalar OsgEarthNet.uav[39] utilizationEnergyMaintenance 58819.25919342
scalar OsgEarthNet.uav[39] utilizationEnergyCharge 172530.890625
scalar OsgEarthNet.uav[39] utilizationEnergyOverdrawMission 0
scalar OsgEarthNet.uav[39] utilizationEnergyOverdrawMaintenance 0
scalar OsgEarthNet.uav[39] utilizationCountMissions 37
scalar OsgEarthNet.uav[39] utilizationCountManeuversMission 415
scalar OsgEarthNet.uav[39] utilizationCountManeuversMaintenance 74
scalar OsgEarthNet.uav[39] utilizationCountChargeState 37
scalar OsgEarthNet.uav[39] utilizationCountOverdrawnAfterMission 0
scalar OsgEarthNet.uav[39] utilizationCountIdleState 37
scalar OsgEarthNet.uav[39] utilizationFail 0
scalar OsgEarthNet.uav[39] simulationTime 259200
scalar OsgEarthNet.uav[40] utilizationSecMission 836.77707522227
scalar OsgEarthNet.uav[40] utilizationSecMaintenance 217.0347828456
scalar OsgEarthNet.uav[40] utilizationSecCharge 3820
scalar OsgEarthNet.uav[40] utilizationSecIdle 254326.18714193
scalar OsgEarthNet.uav[40] utilizationEnergyMission 3869.0084075928
scalar OsgEarthNet.uav[40] utilizationEnergyMaintenance 960.7081413269
scalar OsgEarthNet.uav[40] utilizationEnergyCharge 4829.716796875
scalar OsgEarthNet.uav[40] utilizationEnergyOverdrawMission 0
scalar OsgEarthNet.uav[40] utilizationEnergyOverdrawMaintenance 0
scalar OsgEarthNet.uav[40] utilizationCountMissions 1
scalar OsgEarthNet.uav[40] utilizationCountManeuversMission 13
scalar OsgEarthNet.uav[40] utilizationCountManeuversMaintenance 2
scalar OsgEarthNet.uav[40] utilizationCountChargeState 1
scalar OsgEarthNet.uav[40] utilizationCountOverdrawnAfterMission 0
scalar OsgEarthNet.uav[40] utilizationCountIdleState 2
scalar OsgEarthNet.uav[40] utilizationFail 0
scalar OsgEarthNet.uav[40] simulationTime 259200
scalar OsgEarthNet.uav[41] utilizationSecMission 19258.713186574
scalar OsgEarthNet.uav[41] utilizationSecMaintenance 11072.554345191
scalar OsgEarthNet.uav[41] utilizationSecCharge 111900
scalar OsgEarthNet.uav[41] utilizationSecIdle 116968.73146823
scalar OsgEarthNet.uav[41] utilizationEnergyMission 88982.372965073
scalar OsgEarthNet.uav[41] utilizationEnergyMaintenance 51867.899417877
scalar OsgEarthNet.uav[41] utilizationEnergyCharge 140189.52099609
scalar OsgEarthNet.uav[41] utilizationEnergyOverdrawMission 0
scalar OsgEarthNet.uav[41] utilizationEnergyOverdrawMaintenance 0
scalar OsgEarthNet.uav[41] utilizationCountMissions 30
scalar OsgEarthNet.uav[41] utilizationCountManeuversMission 328
scalar OsgEarthNet.uav[41] utilizationCountManeuversMaintenance 61
scalar OsgEarthNet.uav[41] utilizationCountChargeState 30
scalar OsgEarthNet.uav[41] utilizationCountOverdrawnAfterMission 0
scalar OsgEarthNet.uav[41] utilizationCountIdleState 31
scalar OsgEarthNet.uav[41] utilizationFail 0
scalar OsgEarthNet.uav[41] simulationTime 259200
scalar OsgEarthNet.uav[42] utilizationSecMission 15874.991097495
scalar OsgEarthNet.uav[42] utilizationSecMaintenance 8160.1714343043
scalar OsgEarthNet.uav[42] utilizationSecCharge 88730
scalar OsgEarthNet.uav[42] utilizationSecIdle 146434.8364682
scalar OsgEarthNet.uav[42] utilizationEnergyMission 72006.090229034
scalar OsgEarthNet.uav[42] utilizationEnergyMaintenance 38906.373748779
scalar OsgEarthNet.uav[42] utilizationEnergyCharge 110823.27026367
scalar OsgEarthNet.uav[42] utilizationEnergyOverdrawMission 0
scalar OsgEarthNet.uav[42] utilizationEnergyOverdrawMaintenance 0
scalar OsgEarthNet.uav[42] utilizationCountMissions 24
scalar OsgEarthNet.uav[42] utilizationCountManeuversMission 261
scalar OsgEarthNet.uav[42] utilizationCountManeuversMaintenance 48
scalar OsgEarthNet.uav[42] utilizationCountChargeState 24
scalar OsgEarthNet.uav[42] utilizationCountOverdrawnAfterMission 0
scalar OsgEarthNet.uav[42] utilizationCountIdleState 25
scalar OsgEarthNet.uav[42] utilizationFail 0
scalar OsgEarthNet.uav[42] simulationTime 259200
scalar OsgEarthNet.uav[43] utilizationSecMission 760.62515258028
scalar OsgEarthNet.uav[43] utilizationSecMaintenance 291.95923480269
scalar OsgEarthNet.uav[43] utilizationSecCharge 3650
scalar OsgEarthNet.uav[43] utilizationSecIdle 254497.41461262
scalar OsgEarthNet.uav[43] utilizationEnergyMission 3355.9253234863
scalar OsgEarthNet.uav[43] utilizationEnergyMaintenance 1199.6217880249
scalar OsgEarthNet.uav[43] utilizationEnergyCharge 4555.5498046875
scalar OsgEarthNet.uav[43] utilizationEnergyOverdrawMission 0
scalar OsgEarthNet.uav[43] utilizationEnergyOverdrawMaintenance 0
scalar OsgEarthNet.uav[43] utilizationCountMissions 1
scalar OsgEarthNet.uav[43] utilizationCountManeuversMission 12
scalar OsgEarthNet.uav[43] utilizationCountManeuversMaintenance 2
scalar OsgEarthNet.uav[43] utilizationCountChargeState 1
scalar OsgEarthNet.uav[43] utilizationCountOverdrawnAfterMission 0
scalar OsgEarthNet.uav[43] utilizationCountIdleState 2
scalar OsgEarthNet.uav[43] utilizationFail 0
scalar OsgEarthNet.uav[43] simulationTime 259200
scalar OsgEarthNet.uav[44] utilizationSecMission 26978.910691961
scalar OsgEarthNet.uav[44] utilizationSecMaintenance 14332.132859812
scalar OsgEarthNet.uav[44] utilizationSecCharge 152886.22453926
scalar OsgEarthNet.uav[44] utilizationSecIdle 65002.730908972
scalar OsgEarthNet.uav[44] utilizationEnergyMission 124966.15718842
scalar OsgEarthNet.uav[44] utilizationEnergyMaintenance 67778.167034149
scalar OsgEarthNet.uav[44] utilizationEnergyCharge 192546.42626953
scalar OsgEarthNet.uav[44] utilizationEnergyOverdrawMission 0
scalar OsgEarthNet.uav[44] utilizationEnergyOverdrawMaintenance 0
scalar OsgEarthNet.uav[44] utilizationCountMissions 41
scalar OsgEarthNet.uav[44] utilizationCountManeuversMission 441
scalar OsgEarthNet.uav[44] utilizationCountManeuversMaintenance 82
scalar OsgEarthNet.uav[44] utilizationCountChargeState 41
scalar OsgEarthNet.uav[44] utilizationCountOverdrawnAfterMission 0
scalar OsgEarthNet.uav[44] utilizationCountIdleState 41
scalar OsgEarthNet.uav[44] utilizationFail 0
scalar OsgEarthNet.uav[44] simulationTime 259200
scalar OsgEarthNet.uav[45] utilizationSecMission 2567.0451742664
scalar OsgEarthNet.uav[45] utilizationSecMaintenance 625.30998535315
scalar OsgEarthNet.uav[45] utilizationSecCharge 11410
scalar OsgEarthNet.uav[45] utilizationSecIdle 244597.64384038
scalar OsgEarthNet.uav[45] utilizationEnergyMission 11457.574661255
scalar OsgEarthNet.uav[45] utilizationEnergyMaintenance 2928.0011138916
scalar OsgEarthNet.uav[45] utilizationEnergyCharge 14350.232421875
scalar OsgEarthNet.uav[45] utilizationEnergyOverdrawMission 0
scalar OsgEarthNet.uav[45] utilizationEnergyOverdrawMaintenance 0
scalar OsgEarthNet.uav[45] utilizationCountMissions 3
scalar OsgEarthNet.uav[45] utilizationCountManeuversMission 40
scalar OsgEarthNet.uav[45] utilizationCountManeuversMaintenance 6
scalar OsgEarthNet.uav[45] utilizationCountChargeState 3
scalar OsgEarthNet.uav[45] utilizationCountOverdrawnAfterMission 0
scalar OsgEarthNet.uav[45] utilizationCountIdleState 4
scalar OsgEarthNet.uav[45] utilizationFail 0
scalar OsgEarthNet.uav[45] simulationTime 259200
scalar OsgEarthNet.uav[46] utilizationSecMission 581.19640448947
scalar OsgEarthNet.uav[46] utilizationSecMaintenance 393.71026136566
scalar OsgEarthNet.uav[46] utilizationSecCharge 3710
scalar OsgEarthNet.uav[46] utilizationSecIdle 254515.09233414
scalar OsgEarthNet.uav[46] utilizationEnergyMission 2580.1100006104
scalar OsgEarthNet.uav[46] utilizationEnergyMaintenance 1854.6081466675
scalar OsgEarthNet.uav[46] utilizationEnergyCharge 4606.3842773438
scalar OsgEarthNet.uav[46] utilizationEnergyOverdrawMission 0
scalar OsgEarthNet.uav[46] utilizationEnergyOverdrawMaintenance 0
scalar OsgEarthNet.uav[46] utilizationCountMissions 1
scalar OsgEarthNet.uav[46] utilizationCountManeuversMission 9
scalar OsgEarthNet.uav[46] utilizationCountManeuversMaintenance 2
scalar OsgEarthNet.uav[46] utilizationCountChargeState 1
scalar OsgEarthNet.uav[46] utilizationCountOverdrawnAfterMission 0
scalar OsgEarthNet.uav[46] utilizationCountIdleState 2
scalar OsgEarthNet.uav[46] utilizationFail 0
scalar OsgEarthNet.uav[46] simulationTime 259200
scalar OsgEarthNet.uav[47] utilizationSecMission 11437.871179394
scalar OsgEarthNet.uav[47] utilizationSecMaintenance 4588.3579724257
scalar OsgEarthNet.uav[47] utilizationSecCharge 60030
scalar OsgEarthNet.uav[47] utilizationSecIdle 183143.76984818
scalar OsgEarthNet.uav[47] utilizationEnergyMission 53086.947906494
scalar OsgEarthNet.uav[47] utilizationEnergyMaintenance 22076.573303223
scalar OsgEarthNet.uav[47] utilizationEnergyCharge 75422.304199219
scalar OsgEarthNet.uav[47] utilizationEnergyOverdrawMission 0
scalar OsgEarthNet.uav[47] utilizationEnergyOverdrawMaintenance 0
scalar OsgEarthNet.uav[47] utilizationCountMissions 16
scalar OsgEarthNet.uav[47] utilizationCountManeuversMission 180
scalar OsgEarthNet.uav[47] utilizationCountManeuversMaintenance 32
scalar OsgEarthNet.uav[47] utilizationCountChargeState 16
scalar OsgEarthNet.uav[47] utilizationCountOverdrawnAfterMission 0
scalar OsgEarthNet.uav[47] utilizationCountIdleState 17
scalar OsgEarthNet.uav[47] utilizationFail 0
scalar OsgEarthNet.uav[47] simulationTime 259200
scalar OsgEarthNet.uav[48] utilizationSecMission 28239.8067518
scalar OsgEarthNet.uav[48] utilizationSecMaintenance 15018.631851594
scalar OsgEarthNet.uav[48] utilizationSecCharge 159404.11013257
scalar OsgEarthNet.uav[48] utilizationSecIdle 56537.450264031
scalar OsgEarthNet.uav[48] utilizationEnergyMission 131566.73310852
scalar OsgEarthNet.uav[48] utilizationEnergyMaintenance 69841.438034058
scalar OsgEarthNet.uav[48] utilizationEnergyCharge 200958.26953125
scalar OsgEarthNet.uav[48] utilizationEnergyOverdrawMission 0
scalar OsgEarthNet.uav[48] utilizationEnergyOverdrawMaintenance 0
scalar OsgEarthNet.uav[48] utilizationCountMissions 43
scalar OsgEarthNet.uav[48] utilizationCountManeuversMission 465
scalar OsgEarthNet.uav[48] utilizationCountManeuversMaintenance 86
scalar OsgEarthNet.uav[48] utilizationCountChargeState 43
scalar OsgEarthNet.uav[48] utilizationCountOverdrawnAfterMission 0
scalar OsgEarthNet.uav[48] utilizationCountIdleState 43
scalar OsgEarthNet.uav[48] utilizationFail 0
scalar OsgEarthNet.uav[48] simulationTime 259200
scalar OsgEarthNet.uav[49] utilizationSecMission 760.62515258028
scalar OsgEarthNet.uav[49] utilizationSecMaintenance 223.6438949726
scalar OsgEarthNet.uav[49] utilizationSecCharge 3760
scalar OsgEarthNet.uav[49] utilizationSecIdle 254455.72995245
scalar OsgEarthNet.uav[49] utilizationEnergyMission 3716.8773498535
scalar OsgEarthNet.uav[49] utilizationEnergyMaintenance 1059.6871147156
scalar OsgEarthNet.uav[49] utilizationEnergyCharge 4776.5620117188
scalar OsgEarthNet.uav[49] utilizationEnergyOverdrawMission 0
scalar OsgEarthNet.uav[49] utilizationEnergyOverdrawMaintenance 0
scalar OsgEarthNet.uav[49] utilizationCountMissions 1
scalar OsgEarthNet.uav[49] utilizationCountManeuversMission 12
scalar OsgEarthNet.uav[49] utilizationCountManeuversMaintenance 2
scalar OsgEarthNet.uav[49] utilizationCountChargeState 1
scalar OsgEarthNet.uav[49] utilizationCountOverdrawnAfterMission 0
scalar OsgEarthNet.uav[49] utilizationCountIdleState 2
scalar OsgEarthNet.uav[49] utilizationFail 0
scalar OsgEarthNet.uav[49] simulationTime 259200
scalar OsgEarthNet.uav[50] utilizationSecMission 760.62515258028
scalar OsgEarthNet.uav[50] utilizationSecMaintenance 291.95923480269
scalar OsgEarthNet.uav[50] utilizationSecCharge 3760
scalar OsgEarthNet.uav[50] utilizationSecIdle 254387.41461262
scalar OsgEarthNet.uav[50] utilizationEnergyMission 3320.0666503906
scalar OsgEarthNet.uav[50] utilizationEnergyMaintenance 1416.1491012573
scalar OsgEarthNet.uav[50] utilizationEnergyCharge 4736.2158203125
scalar OsgEarthNet.uav[50] utilizationEnergyOverdrawMission 0
scalar OsgEarthNet.uav[50] utilizationEnergyOverdrawMaintenance 0
scalar OsgEarthNet.uav[50] utilizationCountMissions 1
scalar OsgEarthNet.uav[50] utilizationCountManeuversMission 12
scalar OsgEarthNet.uav[50] utilizationCountManeuversMaintenance 2
scalar OsgEarthNet.uav[50] utilizationCountChargeState 1
scalar OsgEarthNet.uav[50] utilizationCountOverdrawnAfterMission 0
scalar OsgEarthNet.uav[50] utilizationCountIdleState 2
scalar OsgEarthNet.uav[50] utilizationFail 0
scalar OsgEarthNet.uav[50] simulationTime 259200
scalar OsgEarthNet.uav[51] utilizationSecMission 24767.337307737
scalar OsgEarthNet.uav[51] utilizationSecMaintenance 11785.654650371
scalar OsgEarthNet.uav[51] utilizationSecCharge 134760
scalar OsgEarthNet.uav[51] utilizationSecIdle 87887.007041891
scalar OsgEarthNet.uav[51] utilizationEnergyMission 114496.1724968
scalar OsgEarthNet.uav[51] utilizationEnergyMaintenance 55122.245407105
scalar OsgEarthNet.uav[51] utilizationEnergyCharge 169090.58105469
scalar OsgEarthNet.uav[51] utilizationEnergyOverdrawMission 0
scalar OsgEarthNet.uav[51] utilizationEnergyOverdrawMaintenance 0
scalar OsgEarthNet.uav[51] utilizationCountMissions 36
scalar OsgEarthNet.uav[51] utilizationCountManeuversMission 408
scalar OsgEarthNet.uav[51] utilizationCountManeuversMaintenance 72
scalar OsgEarthNet.uav[51] utilizationCountChargeState 36
scalar OsgEarthNet.uav[51] utilizationCountOverdrawnAfterMission 0
scalar OsgEarthNet.uav[51] utilizationCountIdleState 37
scalar OsgEarthNet.uav[51] utilizationFail 0
scalar OsgEarthNet.uav[51] simulationTime 259200
scalar OsgEarthNet.uav[52] utilizationSecMission 28680.16362797
scalar OsgEarthNet.uav[52] utilizationSecMaintenance 13335.70509154
scalar OsgEarthNet.uav[52] utilizationSecCharge 155767.68270802
scalar OsgEarthNet.uav[52] utilizationSecIdle 61416.447572472
scalar OsgEarthNet.uav[52] utilizationEnergyMission 133132.98403931
scalar OsgEarthNet.uav[52] utilizationEnergyMaintenance 63276.705337524
scalar OsgEarthNet.uav[52] utilizationEnergyCharge 196141.17285156
scalar OsgEarthNet.uav[52] utilizationEnergyOverdrawMission 0
scalar OsgEarthNet.uav[52] utilizationEnergyOverdrawMaintenance 0
scalar OsgEarthNet.uav[52] utilizationCountMissions 42
scalar OsgEarthNet.uav[52] utilizationCountManeuversMission 467
scalar OsgEarthNet.uav[52] utilizationCountManeuversMaintenance 84
scalar OsgEarthNet.uav[52] utilizationCountChargeState 42
scalar OsgEarthNet.uav[52] utilizationCountOverdrawnAfterMission 0
scalar OsgEarthNet.uav[52] utilizationCountIdleState 42
scalar OsgEarthNet.uav[52] utilizationFail 0
scalar OsgEarthNet.uav[52] simulationTime 259200
scalar OsgEarthNet.uav[53] utilizationSecMission 25586.676591353
scalar OsgEarthNet.uav[53] utilizationSecMaintenance 11004.531135136
scalar OsgEarthNet.uav[53] utilizationSecCharge 136060
scalar OsgEarthNet.uav[53] utilizationSecIdle 86548.791273511
scalar OsgEarthNet.uav[53] utilizationEnergyMission 119927.53233337
scalar OsgEarthNet.uav[53] utilizationEnergyMaintenance 51325.663188934
scalar OsgEarthNet.uav[53] utilizationEnergyCharge 171145.22509766
scalar OsgEarthNet.uav[53] utilizationEnergyOverdrawMission 0
scalar OsgEarthNet.uav[53] utilizationEnergyOverdrawMaintenance 0
scalar OsgEarthNet.uav[53] utilizationCountMissions 36
scalar OsgEarthNet.uav[53] utilizationCountManeuversMission 405
scalar OsgEarthNet.uav[53] utilizationCountManeuversMaintenance 72
scalar OsgEarthNet.uav[53] utilizationCountChargeState 36
scalar OsgEarthNet.uav[53] utilizationCountOverdrawnAfterMission 0
scalar OsgEarthNet.uav[53] utilizationCountIdleState 37
scalar OsgEarthNet.uav[53] utilizationFail 0
scalar OsgEarthNet.uav[53] simulationTime 259200
scalar OsgEarthNet.uav[54] utilizationSecMission 20824.075946038
scalar OsgEarthNet.uav[54] utilizationSecMaintenance 7510.37248372
scalar OsgEarthNet.uav[54] utilizationSecCharge 104870
scalar OsgEarthNet.uav[54] utilizationSecIdle 125995.55057024
scalar OsgEarthNet.uav[54] utilizationEnergyMission 95976.544944763
scalar OsgEarthNet.uav[54] utilizationEnergyMaintenance 35857.522521973
scalar OsgEarthNet.uav[54] utilizationEnergyCharge 131793.47265625
scalar OsgEarthNet.uav[54] utilizationEnergyOverdrawMission 0
scalar OsgEarthNet.uav[54] utilizationEnergyOverdrawMaintenance 0
scalar OsgEarthNet.uav[54] utilizationCountMissions 28
scalar OsgEarthNet.uav[54] utilizationCountManeuversMission 323
scalar OsgEarthNet.uav[54] utilizationCountManeuversMaintenance 56
scalar OsgEarthNet.uav[54] utilizationCountChargeState 28
scalar OsgEarthNet.uav[54] utilizationCountOverdrawnAfterMission 0
scalar OsgEarthNet.uav[54] utilizationCountIdleState 29
scalar OsgEarthNet.uav[54] utilizationFail 0
scalar OsgEarthNet.uav[54] simulationTime 259200
scalar OsgEarthNet.uav[55] utilizationSecMission 844.68187799363
scalar OsgEarthNet.uav[55] utilizationSecMaintenance 168.94893785192
scalar OsgEarthNet.uav[55] utilizationSecCharge 3920
scalar OsgEarthNet.uav[55] utilizationSecIdle 254266.36818415
scalar OsgEarthNet.uav[55] utilizationEnergyMission 4028.2167358399
scalar OsgEarthNet.uav[55] utilizationEnergyMaintenance 863.55262374878
scalar OsgEarthNet.uav[55] utilizationEnergyCharge 5029.5180664062
scalar OsgEarthNet.uav[55] utilizationEnergyOverdrawMission 0
scalar OsgEarthNet.uav[55] utilizationEnergyOverdrawMaintenance 0
scalar OsgEarthNet.uav[55] utilizationCountMissions 1
scalar OsgEarthNet.uav[55] utilizationCountManeuversMission 13
scalar OsgEarthNet.uav[55] utilizationCountManeuversMaintenance 2
scalar OsgEarthNet.uav[55] utilizationCountChargeState 1
scalar OsgEarthNet.uav[55] utilizationCountOverdrawnAfterMission 0
scalar OsgEarthNet.uav[55] utilizationCountIdleState 2
scalar OsgEarthNet.uav[55] utilizationFail 0
scalar OsgEarthNet.uav[55] simulationTime 259200
scalar OsgEarthNet.uav[56] utilizationSecMission 760.62515258028
scalar OsgEarthNet.uav[56] utilizationSecMaintenance 291.95923480269
scalar OsgEarthNet.uav[56] utilizationSecCharge 3850
scalar OsgEarthNet.uav[56] utilizationSecIdle 254297.41461262
scalar OsgEarthNet.uav[56] utilizationEnergyMission 3514.7854385376
scalar OsgEarthNet.uav[56] utilizationEnergyMaintenance 1374.2827987671
scalar OsgEarthNet.uav[56] utilizationEnergyCharge 4889.07421875
scalar OsgEarthNet.uav[56] utilizationEnergyOverdrawMission 0
scalar OsgEarthNet.uav[56] utilizationEnergyOverdrawMaintenance 0
scalar OsgEarthNet.uav[56] utilizationCountMissions 1
scalar OsgEarthNet.uav[56] utilizationCountManeuversMission 12
scalar OsgEarthNet.uav[56] utilizationCountManeuversMaintenance 2
scalar OsgEarthNet.uav[56] utilizationCountChargeState 1
scalar OsgEarthNet.uav[56] utilizationCountOverdrawnAfterMission 0
scalar OsgEarthNet.uav[56] utilizationCountIdleState 2
scalar OsgEarthNet.uav[56] utilizationFail 0
scalar OsgEarthNet.uav[56] simulationTime 259200
scalar OsgEarthNet.uav[57] utilizationSecMission 27311.24529965
scalar OsgEarthNet.uav[57] utilizationSecMaintenance 11826.894585886
scalar OsgEarthNet.uav[57] utilizationSecCharge 144745.72146398
scalar OsgEarthNet.uav[57] utilizationSecIdle 75316.137650482
scalar OsgEarthNet.uav[57] utilizationEnergyMission 125851.96746826
scalar OsgEarthNet.uav[57] utilizationEnergyMaintenance 55173.452972412
scalar OsgEarthNet.uav[57] utilizationEnergyCharge 181154.25976562
scalar OsgEarthNet.uav[57] utilizationEnergyOverdrawMission 0
scalar OsgEarthNet.uav[57] utilizationEnergyOverdrawMaintenance 0
scalar OsgEarthNet.uav[57] utilizationCountMissions 39
scalar OsgEarthNet.uav[57] utilizationCountManeuversMission 438
scalar OsgEarthNet.uav[57] utilizationCountManeuversMaintenance 78
scalar OsgEarthNet.uav[57] utilizationCountChargeState 39
scalar OsgEarthNet.uav[57] utilizationCountOverdrawnAfterMission 0
scalar OsgEarthNet.uav[57] utilizationCountIdleState 39
scalar OsgEarthNet.uav[57] utilizationFail 0
scalar OsgEarthNet.uav[57] simulationTime 259200
scalar OsgEarthNet.uav[58] utilizationSecMission 750.20472747826
scalar OsgEarthNet.uav[58] utilizationSecMaintenance 300.8347882699
scalar OsgEarthNet.uav[58] utilizationSecCharge 3800
scalar OsgEarthNet.uav[58] utilizationSecIdle 254348.95948425
scalar OsgEarthNet.uav[58] utilizationEnergyMission 3530.2069702149
scalar OsgEarthNet.uav[58] utilizationEnergyMaintenance 1274.0266227722
scalar OsgEarthNet.uav[58] utilizationEnergyCharge 4804.2314453125
scalar OsgEarthNet.uav[58] utilizationEnergyOverdrawMission 0
scalar OsgEarthNet.uav[58] utilizationEnergyOverdrawMaintenance 0
scalar OsgEarthNet.uav[58] utilizationCountMissions 1
scalar OsgEarthNet.uav[58] utilizationCountManeuversMission 11
scalar OsgEarthNet.uav[58] utilizationCountManeuversMaintenance 2
scalar OsgEarthNet.uav[58] utilizationCountChargeState 1
scalar OsgEarthNet.uav[58] utilizationCountOverdrawnAfterMission 0
scalar OsgEarthNet.uav[58] utilizationCountIdleState 2
scalar OsgEarthNet.uav[58] utilizationFail 0
scalar OsgEarthNet.uav[58] simulationTime 259200
scalar OsgEarthNet.uav[59] utilizationSecMission 5095.5173352912
scalar OsgEarthNet.uav[59] utilizationSecMaintenance 1929.3862938372
scalar OsgEarthNet.uav[59] utilizationSecCharge 25730
scalar OsgEarthNet.uav[59] utilizationSecIdle 226445.09537087
scalar OsgEarthNet.uav[59] utilizationEnergyMission 22747.066368103
scalar OsgEarthNet.uav[59] utilizationEnergyMaintenance 9337.4220466614
scalar OsgEarthNet.uav[59] utilizationEnergyCharge 32084.470703125
scalar OsgEarthNet.uav[59] utilizationEnergyOverdrawMission 0
scalar OsgEarthNet.uav[59] utilizationEnergyOverdrawMaintenance 0
scalar OsgEarthNet.uav[59] utilizationCountMissions 7
scalar OsgEarthNet.uav[59] utilizationCountManeuversMission 79
scalar OsgEarthNet.uav[59] utilizationCountManeuversMaintenance 14
scalar OsgEarthNet.uav[59] utilizationCountChargeState 7
scalar OsgEarthNet.uav[59] utilizationCountOverdrawnAfterMission 0
scalar OsgEarthNet.uav[59] utilizationCountIdleState 8
scalar OsgEarthNet.uav[59] utilizationFail 0
scalar OsgEarthNet.uav[59] simulationTime 259200
scalar OsgEarthNet.uav[60] utilizationSecMission 545.05972348896
scalar OsgEarthNet.uav[60] utilizationSecMaintenance 427.36308650536
scalar OsgEarthNet.uav[60] utilizationSecCharge 3830
scalar OsgEarthNet.uav[60] utilizationSecIdle 254397.57619001
scalar OsgEarthNet.uav[60] utilizationEnergyMission 2461.3518676758
scalar OsgEarthNet.uav[60] utilizationEnergyMaintenance 2234.2713851929
scalar OsgEarthNet.uav[60] utilizationEnergyCharge 4776.0620117188
scalar OsgEarthNet.uav[60] utilizationEnergyOverdrawMission 0
scalar OsgEarthNet.uav[60] utilizationEnergyOverdrawMaintenance 0
scalar OsgEarthNet.uav[60] utilizationCountMissions 1
scalar OsgEarthNet.uav[60] utilizationCountManeuversMission 9
scalar OsgEarthNet.uav[60] utilizationCountManeuversMaintenance 2
scalar OsgEarthNet.uav[60] utilizationCountChargeState 1
scalar OsgEarthNet.uav[60] utilizationCountOverdrawnAfterMission 0
scalar OsgEarthNet.uav[60] utilizationCountIdleState 2
scalar OsgEarthNet.uav[60] utilizationFail 0
scalar OsgEarthNet.uav[60] simulationTime 259200
scalar OsgEarthNet.uav[61] utilizationSecMission 29033.804112619
scalar OsgEarthNet.uav[61] utilizationSecMaintenance 13757.688668024
scalar OsgEarthNet.uav[61] utilizationSecCharge 156362.11363188
scalar OsgEarthNet.uav[61] utilizationSecIdle 60046.392587475
scalar OsgEarthNet.uav[61] utilizationEnergyMission 135069.87580109
scalar OsgEarthNet.uav[61] utilizationEnergyMaintenance 64420.422332764
scalar OsgEarthNet.uav[61] utilizationEnergyCharge 195609.56390381
scalar OsgEarthNet.uav[61] utilizationEnergyOverdrawMission 0
scalar OsgEarthNet.uav[61] utilizationEnergyOverdrawMaintenance 0
scalar OsgEarthNet.uav[61] utilizationCountMissions 43
scalar OsgEarthNet.uav[61] utilizationCountManeuversMission 471
scalar OsgEarthNet.uav[61] utilizationCountManeuversMaintenance 86
scalar OsgEarthNet.uav[61] utilizationCountChargeState 43
scalar OsgEarthNet.uav[61] utilizationCountOverdrawnAfterMission 0
scalar OsgEarthNet.uav[61] utilizationCountIdleState 43
scalar OsgEarthNet.uav[61] utilizationFail 0
scalar OsgEarthNet.uav[61] simulationTime 259200
scalar OsgEarthNet.uav[62] utilizationSecMission 21734.074513546
scalar OsgEarthNet.uav[62] utilizationSecMaintenance 7720.7455774135
scalar OsgEarthNet.uav[62] utilizationSecCharge 107880
scalar OsgEarthNet.uav[62] utilizationSecIdle 121865.17890904
scalar OsgEarthNet.uav[62] utilizationEnergyMission 99182.161369324
scalar OsgEarthNet.uav[62] utilizationEnergyMaintenance 35962.045040131
scalar OsgEarthNet.uav[62] utilizationEnergyCharge 135189.06835938
scalar OsgEarthNet.uav[62] utilizationEnergyOverdrawMission 0
scalar OsgEarthNet.uav[62] utilizationEnergyOverdrawMaintenance 0
scalar OsgEarthNet.uav[62] utilizationCountMissions 29
scalar OsgEarthNet.uav[62] utilizationCountManeuversMission 357
scalar OsgEarthNet.uav[62] utilizationCountManeuversMaintenance 58
scalar OsgEarthNet.uav[62] utilizationCountChargeState 29
scalar OsgEarthNet.uav[62] utilizationCountOverdrawnAfterMission 0
scalar OsgEarthNet.uav[62] utilizationCountIdleState 30
scalar OsgEarthNet.uav[62] utilizationFail 0
scalar OsgEarthNet.uav[62] simulationTime 259200
scalar OsgEarthNet.uav[63] utilizationSecMission 760.62515258028
scalar OsgEarthNet.uav[63] utilizationSecMaintenance 291.95923480269
scalar OsgEarthNet.uav[63] utilizationSecCharge 3840
scalar OsgEarthNet.uav[63] utilizationSecIdle 254307.41461262
scalar OsgEarthNet.uav[63] utilizationEnergyMission 3257.4333343506
scalar OsgEarthNet.uav[63] utilizationEnergyMaintenance 1596.5989608765
scalar OsgEarthNet.uav[63] utilizationEnergyCharge 4854.0336914062
scalar OsgEarthNet.uav[63] utilizationEnergyOverdrawMission 0
scalar OsgEarthNet.uav[63] utilizationEnergyOverdrawMaintenance 0
scalar OsgEarthNet.uav[63] utilizationCountMissions 1
scalar OsgEarthNet.uav[63] utilizationCountManeuversMission 12
scalar OsgEarthNet.uav[63] utilizationCountManeuversMaintenance 2
scalar OsgEarthNet.uav[63] utilizationCountChargeState 1
scalar OsgEarthNet.uav[63] utilizationCountOverdrawnAfterMission 0
scalar OsgEarthNet.uav[63] utilizationCountIdleState 2
scalar OsgEarthNet.uav[63] utilizationFail 0
scalar OsgEarthNet.uav[63] simulationTime 259200
scalar OsgEarthNet.uav[64] utilizationSecMission 17416.067372738
scalar OsgEarthNet.uav[64] utilizationSecMaintenance 9786.7597092707
scalar OsgEarthNet.uav[64] utilizationSecCharge 101070
scalar OsgEarthNet.uav[64] utilizationSecIdle 130927.17191799
scalar OsgEarthNet.uav[64] utilizationEnergyMission 80526.878448486
scalar OsgEarthNet.uav[64] utilizationEnergyMaintenance 46145.129226685
scalar OsgEarthNet.uav[64] utilizationEnergyCharge 126857.07666016
scalar OsgEarthNet.uav[64] utilizationEnergyOverdrawMission 0
scalar OsgEarthNet.uav[64] utilizationEnergyOverdrawMaintenance 0
scalar OsgEarthNet.uav[64] utilizationCountMissions 27
scalar OsgEarthNet.uav[64] utilizationCountManeuversMission 282
scalar OsgEarthNet.uav[64] utilizationCountManeuversMaintenance 54
scalar OsgEarthNet.uav[64] utilizationCountChargeState 27
scalar OsgEarthNet.uav[64] utilizationCountOverdrawnAfterMission 0
scalar OsgEarthNet.uav[64] utilizationCountIdleState 28
scalar OsgEarthNet.uav[64] utilizationFail 0
scalar OsgEarthNet.uav[64] simulationTime 259200
scalar OsgEarthNet.uav[65] utilizationSecMission 25734.722446062
scalar OsgEarthNet.uav[65] utilizationSecMaintenance 9635.2339960937
scalar OsgEarthNet.uav[65] utilizationSecCharge 130280
scalar OsgEarthNet.uav[65] utilizationSecIdle 93550.042557844
[...]
scalar OsgEarthNet.uav[82] utilizationSecIdle 63264.497941176
scalar OsgEarthNet.uav[82] utilizationEnergyMission 131712.94077682
scalar OsgEarthNet.uav[82] utilizationEnergyMaintenance 64875.69952774
scalar OsgEarthNet.uav[82] utilizationEnergyCharge 193627.53955078
scalar OsgEarthNet.uav[82] utilizationEnergyOverdrawMission 0
scalar OsgEarthNet.uav[82] utilizationEnergyOverdrawMaintenance 0
scalar OsgEarthNet.uav[82] utilizationCountMissions 42
scalar OsgEarthNet.uav[82] utilizationCountManeuversMission 458
scalar OsgEarthNet.uav[82] utilizationCountManeuversMaintenance 84
scalar OsgEarthNet.uav[82] utilizationCountChargeState 42
scalar OsgEarthNet.uav[82] utilizationCountOverdrawnAfterMission 0
scalar OsgEarthNet.uav[82] utilizationCountIdleState 42
scalar OsgEarthNet.uav[82] utilizationFail 0
scalar OsgEarthNet.uav[82] simulationTime 259200
scalar OsgEarthNet.uav[83] utilizationSecMission 27852.64984899
scalar OsgEarthNet.uav[83] utilizationSecMaintenance 12699.665161186
scalar OsgEarthNet.uav[83] utilizationSecCharge 148785.54417668
scalar OsgEarthNet.uav[83] utilizationSecIdle 69862.139813144
scalar OsgEarthNet.uav[83] utilizationEnergyMission 127456.8999939
scalar OsgEarthNet.uav[83] utilizationEnergyMaintenance 59547.762187958
scalar OsgEarthNet.uav[83] utilizationEnergyCharge 187180.09082031
scalar OsgEarthNet.uav[83] utilizationEnergyOverdrawMission 0
scalar OsgEarthNet.uav[83] utilizationEnergyOverdrawMaintenance 0
scalar OsgEarthNet.uav[83] utilizationCountMissions 40
scalar OsgEarthNet.uav[83] utilizationCountManeuversMission 447
scalar OsgEarthNet.uav[83] utilizationCountManeuversMaintenance 80
scalar OsgEarthNet.uav[83] utilizationCountChargeState 40
scalar OsgEarthNet.uav[83] utilizationCountOverdrawnAfterMission 0
scalar OsgEarthNet.uav[83] utilizationCountIdleState 40
scalar OsgEarthNet.uav[83] utilizationFail 0
scalar OsgEarthNet.uav[83] simulationTime 259200
scalar OsgEarthNet.uav[84] utilizationSecMission 30714.350223595
scalar OsgEarthNet.uav[84] utilizationSecMaintenance 13237.296169141
scalar OsgEarthNet.uav[84] utilizationSecCharge 161290
scalar OsgEarthNet.uav[84] utilizationSecIdle 53958.352607263
scalar OsgEarthNet.uav[84] utilizationEnergyMission 141345.37529755
scalar OsgEarthNet.uav[84] utilizationEnergyMaintenance 61654.986436797
scalar OsgEarthNet.uav[84] utilizationEnergyCharge 202554.71777344
scalar OsgEarthNet.uav[84] utilizationEnergyOverdrawMission 0
scalar OsgEarthNet.uav[84] utilizationEnergyOverdrawMaintenance 0
scalar OsgEarthNet.uav[84] utilizationCountMissions 43
scalar OsgEarthNet.uav[84] utilizationCountManeuversMission 513
scalar OsgEarthNet.uav[84] utilizationCountManeuversMaintenance 87
scalar OsgEarthNet.uav[84] utilizationCountChargeState 43
scalar OsgEarthNet.uav[84] utilizationCountOverdrawnAfterMission 0
scalar OsgEarthNet.uav[84] utilizationCountIdleState 44
scalar OsgEarthNet.uav[84] utilizationFail 0
scalar OsgEarthNet.uav[84] simulationTime 259200
scalar OsgEarthNet.uav[85] utilizationSecMission 929.66633852757
scalar OsgEarthNet.uav[85] utilizationSecMaintenance 183.39004742748
scalar OsgEarthNet.uav[85] utilizationSecCharge 3840
scalar OsgEarthNet.uav[85] utilizationSecIdle 254246.94261404
scalar OsgEarthNet.uav[85] utilizationEnergyMission 4154.145072937
scalar OsgEarthNet.uav[85] utilizationEnergyMaintenance 916.14577484131
scalar OsgEarthNet.uav[85] utilizationEnergyCharge 4876.0209960938
scalar OsgEarthNet.uav[85] utilizationEnergyOverdrawMission 0
scalar OsgEarthNet.uav[85] utilizationEnergyOverdrawMaintenance 0
scalar OsgEarthNet.uav[85] utilizationCountMissions 1
scalar OsgEarthNet.uav[85] utilizationCountManeuversMission 15
scalar OsgEarthNet.uav[85] utilizationCountManeuversMaintenance 2
scalar OsgEarthNet.uav[85] utilizationCountChargeState 1
scalar OsgEarthNet.uav[85] utilizationCountOverdrawnAfterMission 0
scalar OsgEarthNet.uav[85] utilizationCountIdleState 2
scalar OsgEarthNet.uav[85] utilizationFail 0
scalar OsgEarthNet.uav[85] simulationTime 259200
scalar OsgEarthNet.uav[86] utilizationSecMission 760.62515258028
scalar OsgEarthNet.uav[86] utilizationSecMaintenance 223.6438949726
scalar OsgEarthNet.uav[86] utilizationSecCharge 3710
scalar OsgEarthNet.uav[86] utilizationSecIdle 254505.72995245
scalar OsgEarthNet.uav[86] utilizationEnergyMission 3528.8022155762
scalar OsgEarthNet.uav[86] utilizationEnergyMaintenance 1128.2806510925
scalar OsgEarthNet.uav[86] utilizationEnergyCharge 4657.083984375
scalar OsgEarthNet.uav[86] utilizationEnergyOverdrawMission 0
scalar OsgEarthNet.uav[86] utilizationEnergyOverdrawMaintenance 0
scalar OsgEarthNet.uav[86] utilizationCountMissions 1
scalar OsgEarthNet.uav[86] utilizationCountManeuversMission 12
scalar OsgEarthNet.uav[86] utilizationCountManeuversMaintenance 2
scalar OsgEarthNet.uav[86] utilizationCountChargeState 1
scalar OsgEarthNet.uav[86] utilizationCountOverdrawnAfterMission 0
scalar OsgEarthNet.uav[86] utilizationCountIdleState 2
scalar OsgEarthNet.uav[86] utilizationFail 0
scalar OsgEarthNet.uav[86] simulationTime 259200
scalar OsgEarthNet.uav[87] utilizationSecMission 475.70932794513
scalar OsgEarthNet.uav[87] utilizationSecMaintenance 483.17663078829
scalar OsgEarthNet.uav[87] utilizationSecCharge 3600
scalar OsgEarthNet.uav[87] utilizationSecIdle 254641.11304127
scalar OsgEarthNet.uav[87] utilizationEnergyMission 2195.2330703735
scalar OsgEarthNet.uav[87] utilizationEnergyMaintenance 2277.1966781616
scalar OsgEarthNet.uav[87] utilizationEnergyCharge 4472.4311523438
scalar OsgEarthNet.uav[87] utilizationEnergyOverdrawMission 0
scalar OsgEarthNet.uav[87] utilizationEnergyOverdrawMaintenance 0
scalar OsgEarthNet.uav[87] utilizationCountMissions 1
scalar OsgEarthNet.uav[87] utilizationCountManeuversMission 9
scalar OsgEarthNet.uav[87] utilizationCountManeuversMaintenance 2
scalar OsgEarthNet.uav[87] utilizationCountChargeState 1
scalar OsgEarthNet.uav[87] utilizationCountOverdrawnAfterMission 0
scalar OsgEarthNet.uav[87] utilizationCountIdleState 2
scalar OsgEarthNet.uav[87] utilizationFail 0
scalar OsgEarthNet.uav[87] simulationTime 259200
scalar OsgEarthNet.uav[88] utilizationSecMission 25998.833186445
scalar OsgEarthNet.uav[88] utilizationSecMaintenance 12392.996888786
scalar OsgEarthNet.uav[88] utilizationSecCharge 138118.3321003
scalar OsgEarthNet.uav[88] utilizationSecIdle 82689.83682447
scalar OsgEarthNet.uav[88] utilizationEnergyMission 120175.52692413
scalar OsgEarthNet.uav[88] utilizationEnergyMaintenance 57542.889671326
scalar OsgEarthNet.uav[88] utilizationEnergyCharge 173133.3614502
scalar OsgEarthNet.uav[88] utilizationEnergyOverdrawMission 0
scalar OsgEarthNet.uav[88] utilizationEnergyOverdrawMaintenance 0
scalar OsgEarthNet.uav[88] utilizationCountMissions 38
scalar OsgEarthNet.uav[88] utilizationCountManeuversMission 433
scalar OsgEarthNet.uav[88] utilizationCountManeuversMaintenance 76
scalar OsgEarthNet.uav[88] utilizationCountChargeState 38
scalar OsgEarthNet.uav[88] utilizationCountOverdrawnAfterMission 0
scalar OsgEarthNet.uav[88] utilizationCountIdleState 38
scalar OsgEarthNet.uav[88] utilizationFail 0
scalar OsgEarthNet.uav[88] simulationTime 259200
scalar OsgEarthNet.uav[89] utilizationSecMission 836.77707522227
scalar OsgEarthNet.uav[89] utilizationSecMaintenance 217.0347828456
scalar OsgEarthNet.uav[89] utilizationSecCharge 3850
scalar OsgEarthNet.uav[89] utilizationSecIdle 254296.18714193
scalar OsgEarthNet.uav[89] utilizationEnergyMission 3880.5309143066
scalar OsgEarthNet.uav[89] utilizationEnergyMaintenance 1008.0534477234
scalar OsgEarthNet.uav[89] utilizationEnergyCharge 4888.5795898438
scalar OsgEarthNet.uav[89] utilizationEnergyOverdrawMission 0
scalar OsgEarthNet.uav[89] utilizationEnergyOverdrawMaintenance 0
scalar OsgEarthNet.uav[89] utilizationCountMissions 1
scalar OsgEarthNet.uav[89] utilizationCountManeuversMission 13
scalar OsgEarthNet.uav[89] utilizationCountManeuversMaintenance 2
scalar OsgEarthNet.uav[89] utilizationCountChargeState 1
scalar OsgEarthNet.uav[89] utilizationCountOverdrawnAfterMission 0
scalar OsgEarthNet.uav[89] utilizationCountIdleState 2
scalar OsgEarthNet.uav[89] utilizationFail 0
scalar OsgEarthNet.uav[89] simulationTime 259200
scalar OsgEarthNet.uav[90] utilizationSecMission 28906.117736455
scalar OsgEarthNet.uav[90] utilizationSecMaintenance 13995.327684736
scalar OsgEarthNet.uav[90] utilizationSecCharge 155626.55357881
scalar OsgEarthNet.uav[90] utilizationSecIdle 60672
scalar OsgEarthNet.uav[90] utilizationEnergyMission 133736.46164097
scalar OsgEarthNet.uav[90] utilizationEnergyMaintenance 65994.740653992
scalar OsgEarthNet.uav[90] utilizationEnergyCharge 196444.98266602
scalar OsgEarthNet.uav[90] utilizationEnergyOverdrawMission 0
scalar OsgEarthNet.uav[90] utilizationEnergyOverdrawMaintenance 0
scalar OsgEarthNet.uav[90] utilizationCountMissions 42
scalar OsgEarthNet.uav[90] utilizationCountManeuversMission 462
scalar OsgEarthNet.uav[90] utilizationCountManeuversMaintenance 83
scalar OsgEarthNet.uav[90] utilizationCountChargeState 42
scalar OsgEarthNet.uav[90] utilizationCountOverdrawnAfterMission 0
scalar OsgEarthNet.uav[90] utilizationCountIdleState 42
scalar OsgEarthNet.uav[90] utilizationFail 0
scalar OsgEarthNet.uav[90] simulationTime 259200
scalar OsgEarthNet.uav[91] utilizationSecMission 25930.087632708
scalar OsgEarthNet.uav[91] utilizationSecMaintenance 12327.566901046
scalar OsgEarthNet.uav[91] utilizationSecCharge 141711.71202987
scalar OsgEarthNet.uav[91] utilizationSecIdle 79230.632436372
scalar OsgEarthNet.uav[91] utilizationEnergyMission 119837.86317444
scalar OsgEarthNet.uav[91] utilizationEnergyMaintenance 58256.149219513
scalar OsgEarthNet.uav[91] utilizationEnergyCharge 177934.40283203
scalar OsgEarthNet.uav[91] utilizationEnergyOverdrawMission 0
scalar OsgEarthNet.uav[91] utilizationEnergyOverdrawMaintenance 0
scalar OsgEarthNet.uav[91] utilizationCountMissions 38
scalar OsgEarthNet.uav[91] utilizationCountManeuversMission 429
scalar OsgEarthNet.uav[91] utilizationCountManeuversMaintenance 76
scalar OsgEarthNet.uav[91] utilizationCountChargeState 38
scalar OsgEarthNet.uav[91] utilizationCountOverdrawnAfterMission 0
scalar OsgEarthNet.uav[91] utilizationCountIdleState 38
scalar OsgEarthNet.uav[91] utilizationFail 0
scalar OsgEarthNet.uav[91] simulationTime 259200
scalar OsgEarthNet.uav[92] utilizationSecMission 844.68187799363
scalar OsgEarthNet.uav[92] utilizationSecMaintenance 168.94893785192
scalar OsgEarthNet.uav[92] utilizationSecCharge 3810
scalar OsgEarthNet.uav[92] utilizationSecIdle 254376.36818415
scalar OsgEarthNet.uav[92] utilizationEnergyMission 4035.9666595459
scalar OsgEarthNet.uav[92] utilizationEnergyMaintenance 833.33683395386
scalar OsgEarthNet.uav[92] utilizationEnergyCharge 4789.296875
scalar OsgEarthNet.uav[92] utilizationEnergyOverdrawMission 0
scalar OsgEarthNet.uav[92] utilizationEnergyOverdrawMaintenance 0
scalar OsgEarthNet.uav[92] utilizationCountMissions 1
scalar OsgEarthNet.uav[92] utilizationCountManeuversMission 13
scalar OsgEarthNet.uav[92] utilizationCountManeuversMaintenance 2
scalar OsgEarthNet.uav[92] utilizationCountChargeState 1
scalar OsgEarthNet.uav[92] utilizationCountOverdrawnAfterMission 0
scalar OsgEarthNet.uav[92] utilizationCountIdleState 2
scalar OsgEarthNet.uav[92] utilizationFail 0
scalar OsgEarthNet.uav[92] simulationTime 259200
scalar OsgEarthNet.uav[93] utilizationSecMission 29032.993521341
scalar OsgEarthNet.uav[93] utilizationSecMaintenance 12205.491817709
scalar OsgEarthNet.uav[93] utilizationSecCharge 149340
scalar OsgEarthNet.uav[93] utilizationSecIdle 68621.51366095
scalar OsgEarthNet.uav[93] utilizationEnergyMission 133867.30104834
scalar OsgEarthNet.uav[93] utilizationEnergyMaintenance 56652.865276337
scalar OsgEarthNet.uav[93] utilizationEnergyCharge 187305.890625
scalar OsgEarthNet.uav[93] utilizationEnergyOverdrawMission 0
scalar OsgEarthNet.uav[93] utilizationEnergyOverdrawMaintenance 0
scalar OsgEarthNet.uav[93] utilizationCountMissions 40
scalar OsgEarthNet.uav[93] utilizationCountManeuversMission 479
scalar OsgEarthNet.uav[93] utilizationCountManeuversMaintenance 81
scalar OsgEarthNet.uav[93] utilizationCountChargeState 40
scalar OsgEarthNet.uav[93] utilizationCountOverdrawnAfterMission 0
scalar OsgEarthNet.uav[93] utilizationCountIdleState 41
scalar OsgEarthNet.uav[93] utilizationFail 0
scalar OsgEarthNet.uav[93] simulationTime 259200
scalar OsgEarthNet.uav[94] utilizationSecMission 27475.543491021
scalar OsgEarthNet.uav[94] utilizationSecMaintenance 11971.407477932
scalar OsgEarthNet.uav[94] utilizationSecCharge 146120
scalar OsgEarthNet.uav[94] utilizationSecIdle 73633.048031047
scalar OsgEarthNet.uav[94] utilizationEnergyMission 126184.746315
scalar OsgEarthNet.uav[94] utilizationEnergyMaintenance 56821.895935059
scalar OsgEarthNet.uav[94] utilizationEnergyCharge 183563.93505859
scalar OsgEarthNet.uav[94] utilizationEnergyOverdrawMission 0
scalar OsgEarthNet.uav[94] utilizationEnergyOverdrawMaintenance 0
scalar OsgEarthNet.uav[94] utilizationCountMissions 39
scalar OsgEarthNet.uav[94] utilizationCountManeuversMission 435
scalar OsgEarthNet.uav[94] utilizationCountManeuversMaintenance 78
scalar OsgEarthNet.uav[94] utilizationCountChargeState 39
scalar OsgEarthNet.uav[94] utilizationCountOverdrawnAfterMission 0
scalar OsgEarthNet.uav[94] utilizationCountIdleState 40
scalar OsgEarthNet.uav[94] utilizationFail 0
scalar OsgEarthNet.uav[94] simulationTime 259200
scalar OsgEarthNet.uav[95] utilizationSecMission 1339.647515577
scalar OsgEarthNet.uav[95] utilizationSecMaintenance 762.58469201435
scalar OsgEarthNet.uav[95] utilizationSecCharge 7860
scalar OsgEarthNet.uav[95] utilizationSecIdle 249237.76679241
scalar OsgEarthNet.uav[95] utilizationEnergyMission 6329.8885040283
scalar OsgEarthNet.uav[95] utilizationEnergyMaintenance 3687.1635360718
scalar OsgEarthNet.uav[95] utilizationEnergyCharge 10017.049804688
scalar OsgEarthNet.uav[95] utilizationEnergyOverdrawMission 0
scalar OsgEarthNet.uav[95] utilizationEnergyOverdrawMaintenance 0
scalar OsgEarthNet.uav[95] utilizationCountMissions 2
scalar OsgEarthNet.uav[95] utilizationCountManeuversMission 22
scalar OsgEarthNet.uav[95] utilizationCountManeuversMaintenance 4
scalar OsgEarthNet.uav[95] utilizationCountChargeState 2
scalar OsgEarthNet.uav[95] utilizationCountOverdrawnAfterMission 0
scalar OsgEarthNet.uav[95] utilizationCountIdleState 3
scalar OsgEarthNet.uav[95] utilizationFail 0
scalar OsgEarthNet.uav[95] simulationTime 259200
scalar OsgEarthNet.uav[96] utilizationSecMission 2159.5948011366
scalar OsgEarthNet.uav[96] utilizationSecMaintenance 911.42440623401
scalar OsgEarthNet.uav[96] utilizationSecCharge 11070
scalar OsgEarthNet.uav[96] utilizationSecIdle 245058.97979263
scalar OsgEarthNet.uav[96] utilizationEnergyMission 9906.5018310547
scalar OsgEarthNet.uav[96] utilizationEnergyMaintenance 4146.9945678711
scalar OsgEarthNet.uav[96] utilizationEnergyCharge 13830.686523438
scalar OsgEarthNet.uav[96] utilizationEnergyOverdrawMission 0
scalar OsgEarthNet.uav[96] utilizationEnergyOverdrawMaintenance 0
scalar OsgEarthNet.uav[96] utilizationCountMissions 3
scalar OsgEarthNet.uav[96] utilizationCountManeuversMission 33
scalar OsgEarthNet.uav[96] utilizationCountManeuversMaintenance 6
scalar OsgEarthNet.uav[96] utilizationCountChargeState 3
scalar OsgEarthNet.uav[96] utilizationCountOverdrawnAfterMission 0
scalar OsgEarthNet.uav[96] utilizationCountIdleState 4
scalar OsgEarthNet.uav[96] utilizationFail 0
scalar OsgEarthNet.uav[96] simulationTime 259200
scalar OsgEarthNet.uav[97] utilizationSecMission 3580.1664620141
scalar OsgEarthNet.uav[97] utilizationSecMaintenance 1446.7877494929
scalar OsgEarthNet.uav[97] utilizationSecCharge 16334.671125793
scalar OsgEarthNet.uav[97] utilizationSecIdle 237838.3736627
scalar OsgEarthNet.uav[97] utilizationEnergyMission 16646.668533325
scalar OsgEarthNet.uav[97] utilizationEnergyMaintenance 6817.6247215271
scalar OsgEarthNet.uav[97] utilizationEnergyCharge 21187.282714844
scalar OsgEarthNet.uav[97] utilizationEnergyOverdrawMission 0
scalar OsgEarthNet.uav[97] utilizationEnergyOverdrawMaintenance 0
scalar OsgEarthNet.uav[97] utilizationCountMissions 5
scalar OsgEarthNet.uav[97] utilizationCountManeuversMission 55
scalar OsgEarthNet.uav[97] utilizationCountManeuversMaintenance 10
scalar OsgEarthNet.uav[97] utilizationCountChargeState 5
scalar OsgEarthNet.uav[97] utilizationCountOverdrawnAfterMission 0
scalar OsgEarthNet.uav[97] utilizationCountIdleState 5
scalar OsgEarthNet.uav[97] utilizationFail 0
scalar OsgEarthNet.uav[97] simulationTime 259200
scalar OsgEarthNet.uav[98] utilizationSecMission 8664.9022804923
scalar OsgEarthNet.uav[98] utilizationSecMaintenance 3853.0796238068
scalar OsgEarthNet.uav[98] utilizationSecCharge 42931.309038473
scalar OsgEarthNet.uav[98] utilizationSecIdle 203750.70805723
scalar OsgEarthNet.uav[98] utilizationEnergyMission 39006.684524536
scalar OsgEarthNet.uav[98] utilizationEnergyMaintenance 17592.840499878
scalar OsgEarthNet.uav[98] utilizationEnergyCharge 54721.439941406
scalar OsgEarthNet.uav[98] utilizationEnergyOverdrawMission 0
scalar OsgEarthNet.uav[98] utilizationEnergyOverdrawMaintenance 0
scalar OsgEarthNet.uav[98] utilizationCountMissions 12
scalar OsgEarthNet.uav[98] utilizationCountManeuversMission 144
scalar OsgEarthNet.uav[98] utilizationCountManeuversMaintenance 24
scalar OsgEarthNet.uav[98] utilizationCountChargeState 12
scalar OsgEarthNet.uav[98] utilizationCountOverdrawnAfterMission 0
scalar OsgEarthNet.uav[98] utilizationCountIdleState 12
scalar OsgEarthNet.uav[98] utilizationFail 0
scalar OsgEarthNet.uav[98] simulationTime 259200
scalar OsgEarthNet.uav[99] utilizationSecMission 4884.0177110978
scalar OsgEarthNet.uav[99] utilizationSecMaintenance 3079.0707635491
scalar OsgEarthNet.uav[99] utilizationSecCharge 26898.852127537
scalar OsgEarthNet.uav[99] utilizationSecIdle 224338.05839782
scalar OsgEarthNet.uav[99] utilizationEnergyMission 22561.951190948
scalar OsgEarthNet.uav[99] utilizationEnergyMaintenance 13832.630840302
scalar OsgEarthNet.uav[99] utilizationEnergyCharge 34047.116699219
scalar OsgEarthNet.uav[99] utilizationEnergyOverdrawMission 0
scalar OsgEarthNet.uav[99] utilizationEnergyOverdrawMaintenance 0
scalar OsgEarthNet.uav[99] utilizationCountMissions 8
scalar OsgEarthNet.uav[99] utilizationCountManeuversMission 83
scalar OsgEarthNet.uav[99] utilizationCountManeuversMaintenance 16
scalar OsgEarthNet.uav[99] utilizationCountChargeState 8
scalar OsgEarthNet.uav[99] utilizationCountOverdrawnAfterMission 0
scalar OsgEarthNet.uav[99] utilizationCountIdleState 8
scalar OsgEarthNet.uav[99] utilizationFail 0
scalar OsgEarthNet.uav[99] simulationTime 259200
scalar OsgEarthNet.cs[0] usedPower 592903.15572091
scalar OsgEarthNet.cs[0] chargedPower 592903.15572091
scalar OsgEarthNet.cs[0] chargedMobileNodes 127
scalar OsgEarthNet.cs[0] reservations 127
scalar OsgEarthNet.cs[1] usedPower 1027066.8422114
scalar OsgEarthNet.cs[1] chargedPower 1027066.8422114
scalar OsgEarthNet.cs[1] chargedMobileNodes 217
scalar OsgEarthNet.cs[1] reservations 221
scalar OsgEarthNet.cs[2] usedPower 2660474.9609754
scalar OsgEarthNet.cs[2] chargedPower 2660474.9609754
scalar OsgEarthNet.cs[2] chargedMobileNodes 559
scalar OsgEarthNet.cs[2] reservations 567
scalar OsgEarthNet.cs[3] usedPower 724973.94792751
scalar OsgEarthNet.cs[3] chargedPower 724973.94792751
scalar OsgEarthNet.cs[3] chargedMobileNodes 155
scalar OsgEarthNet.cs[3] reservations 158
scalar OsgEarthNet.cs[4] usedPower 724389.26887135
scalar OsgEarthNet.cs[4] chargedPower 724389.26887135
scalar OsgEarthNet.cs[4] chargedMobileNodes 154
scalar OsgEarthNet.cs[4] reservations 156
scalar OsgEarthNet.cs[5] usedPower 420469.37812025
scalar OsgEarthNet.cs[5] chargedPower 420469.37812025
scalar OsgEarthNet.cs[5] chargedMobileNodes 88
scalar OsgEarthNet.cs[5] reservations 88
scalar OsgEarthNet.cs[6] usedPower 2487385.6551299
scalar OsgEarthNet.cs[6] chargedPower 2487385.6551299
scalar OsgEarthNet.cs[6] chargedMobileNodes 528
scalar OsgEarthNet.cs[6] reservations 538

