version 2
run Szenario_Hotel_Gabelbach-14-20180709-18:39:58-53616
attr configname Szenario_Hotel_Gabelbach
attr datetime 20180709-18:39:58
attr experiment Szenario_Hotel_Gabelbach
attr inifile omnetpp.ini
attr iterationvars "$replM=2, $biWeight=0.2"
attr iterationvarsf replM=2,biWeight=0.2-
attr measurement "$replM=2, $biWeight=0.2"
attr network OsgEarthNet
attr processid 53616
attr repetition 2
attr replication #2
attr resultdir results
attr runnumber 14
attr seedset 14
itervar biWeight 0.2
itervar replM 2
param *.osgEarthScene.scene "\"Szenario_Hotel_Gabelbach.earth\""
param *.playgroundLatitude 50.6830269
param *.playgroundLongitude 10.8538055
param *.playgroundWidth 3500m
param *.playgroundHeight 3500m
param *.numUAVs 100
param *.cs[0].posX 3537m
param *.cs[0].posY 965m
param *.cs[0].posZ 538m
param *.cs[1].posX 312m
param *.cs[1].posY 1262m
param *.cs[1].posZ 539m
param *.cs[2].posX 2185m
param *.cs[2].posY 3026m
param *.cs[2].posZ 777m
param *.cs[3].posX 10m
param *.cs[3].posY 2200m
param *.cs[3].posZ 560m
param *.cs[4].posX 750m
param *.cs[4].posY 200m
param *.cs[4].posZ 540m
param *.cs[5].posX 2450m
param *.cs[5].posY 180m
param *.cs[5].posZ 524m
param *.cs[6].posX 3140m
param *.cs[6].posY 1790m
param *.cs[6].posZ 606m
param *.numCSs 7
param *.uav[*].replacementMethod 2
param *.uav[*].weightedSumWeight 0.2
param *.*.timeStep 10s
param *.uav[*].commandPreviewCommandCount 20
param *.missionControl.missionFiles "\"missions\\\\Szenario_WB_Hotel_Gabelbach_Mission_Hotel.waypoints,missions\\\\Szenario_WB_Hotel_Gabelbach_Mission_Kickelhahn.waypoints,missions\\\\Szenario_WB_Hotel_Gabelbach_Mission_Ilmenau_Sportplatz.waypoints,missions\\\\Szenario_WB_Hotel_Gabelbach_Mission_Manebach_Mitte.waypoints,missions\\\\Szenario_WB_Hotel_Gabelbach_Mission_Manebach_Sued.waypoints\""
param *.missionControl.missionFiles "\"missions\\\\Szenario_WB_Hotel_Gabelbach_Mission_Hotel.waypoints,missions\\\\Szenario_WB_Hotel_Gabelbach_Mission_Kickelhahn.waypoints,missions\\\\Szenario_WB_Hotel_Gabelbach_Mission_Ilmenau_Sportplatz.waypoints,missions\\\\Szenario_WB_Hotel_Gabelbach_Mission_Manebach_Mitte.waypoints,missions\\\\Szenario_WB_Hotel_Gabelbach_Mission_Manebach_Sued.waypoints,missions\\\\Szenario_WB_Hotel_Gabelbach_Hover_HoheSchlaufe.waypoints,missions\\\\Szenario_WB_Hotel_Gabelbach_Hover_Kickelhahn.waypoints,missions\\\\Szenario_WB_Hotel_Gabelbach_Hover_Gabelbachskopf.waypoints,missions\\\\Szenario_WB_Hotel_Gabelbach_Hover_Dachskopf.waypoints\""
param *.uav[0].startX 3537m
param *.uav[0].startY 965m
param *.uav[0].startZ 539m
param *.uav[1].startX 312m
param *.uav[1].startY 1262m
param *.uav[1].startZ 540m
param *.uav[2].startX 2185m
param *.uav[2].startY 3026m
param *.uav[2].startZ 778m
param *.uav[3].startX 3537m
param *.uav[3].startY 965m
param *.uav[3].startZ 539m
param *.uav[4].startX 312m
param *.uav[4].startY 1262m
param *.uav[4].startZ 540m
param *.uav[5].startX 2185m
param *.uav[5].startY 3026m
param *.uav[5].startZ 778m
param *.uav[6].startX 3537m
param *.uav[6].startY 965m
param *.uav[6].startZ 539m
param *.uav[7].startX 312m
param *.uav[7].startY 1262m
param *.uav[7].startZ 540m
param *.uav[8].startX 2185m
param *.uav[8].startY 3026m
param *.uav[8].startZ 778m
param *.uav[9].startX 3537m
param *.uav[9].startY 965m
param *.uav[9].startZ 539m
param *.uav[10].startX 3537m
param *.uav[10].startY 965m
param *.uav[10].startZ 539m
param *.uav[11].startX 312m
param *.uav[11].startY 1262m
param *.uav[11].startZ 540m
param *.uav[12].startX 2185m
param *.uav[12].startY 3026m
param *.uav[12].startZ 778m
param *.uav[13].startX 3537m
param *.uav[13].startY 965m
param *.uav[13].startZ 539m
param *.uav[14].startX 312m
param *.uav[14].startY 1262m
param *.uav[14].startZ 540m
param *.uav[15].startX 2185m
param *.uav[15].startY 3026m
param *.uav[15].startZ 778m
param *.uav[16].startX 3537m
param *.uav[16].startY 965m
param *.uav[16].startZ 539m
param *.uav[17].startX 312m
param *.uav[17].startY 1262m
param *.uav[17].startZ 540m
param *.uav[18].startX 2185m
param *.uav[18].startY 3026m
param *.uav[18].startZ 778m
param *.uav[19].startX 3537m
param *.uav[19].startY 965m
param *.uav[19].startZ 539m
param *.uav[20].startX 3537m
param *.uav[20].startY 965m
param *.uav[20].startZ 539m
param *.uav[21].startX 312m
param *.uav[21].startY 1262m
param *.uav[21].startZ 540m
param *.uav[22].startX 2185m
param *.uav[22].startY 3026m
param *.uav[22].startZ 778m
param *.uav[23].startX 3537m
param *.uav[23].startY 965m
param *.uav[23].startZ 539m
param *.uav[24].startX 312m
param *.uav[24].startY 1262m
param *.uav[24].startZ 540m
param *.uav[25].startX 2185m
param *.uav[25].startY 3026m
param *.uav[25].startZ 778m
param *.uav[26].startX 3537m
param *.uav[26].startY 965m
param *.uav[26].startZ 539m
param *.uav[27].startX 312m
param *.uav[27].startY 1262m
param *.uav[27].startZ 540m
param *.uav[28].startX 2185m
param *.uav[28].startY 3026m
param *.uav[28].startZ 778m
param *.uav[29].startX 3537m
param *.uav[29].startY 965m
param *.uav[29].startZ 539m
param *.uav[30].startX 3537m
param *.uav[30].startY 965m
param *.uav[30].startZ 539m
param *.uav[31].startX 312m
param *.uav[31].startY 1262m
param *.uav[31].startZ 540m
param *.uav[32].startX 2185m
param *.uav[32].startY 3026m
param *.uav[32].startZ 778m
param *.uav[33].startX 3537m
param *.uav[33].startY 965m
param *.uav[33].startZ 539m
param *.uav[34].startX 312m
param *.uav[34].startY 1262m
param *.uav[34].startZ 540m
param *.uav[35].startX 2185m
param *.uav[35].startY 3026m
param *.uav[35].startZ 778m
param *.uav[36].startX 3537m
param *.uav[36].startY 965m
param *.uav[36].startZ 539m
param *.uav[37].startX 312m
param *.uav[37].startY 1262m
param *.uav[37].startZ 540m
param *.uav[38].startX 2185m
param *.uav[38].startY 3026m
param *.uav[38].startZ 778m
param *.uav[39].startX 3537m
param *.uav[39].startY 965m
param *.uav[39].startZ 539m
param *.uav[40].startX 3537m
param *.uav[40].startY 965m
param *.uav[40].startZ 539m
param *.uav[41].startX 312m
param *.uav[41].startY 1262m
param *.uav[41].startZ 540m
param *.uav[42].startX 2185m
param *.uav[42].startY 3026m
param *.uav[42].startZ 778m
param *.uav[43].startX 3537m
param *.uav[43].startY 965m
param *.uav[43].startZ 539m
param *.uav[44].startX 312m
param *.uav[44].startY 1262m
param *.uav[44].startZ 540m
param *.uav[45].startX 2185m
param *.uav[45].startY 3026m
param *.uav[45].startZ 778m
param *.uav[46].startX 3537m
param *.uav[46].startY 965m
param *.uav[46].startZ 539m
param *.uav[47].startX 312m
param *.uav[47].startY 1262m
param *.uav[47].startZ 540m
param *.uav[48].startX 2185m
param *.uav[48].startY 3026m
param *.uav[48].startZ 778m
param *.uav[49].startX 3537m
param *.uav[49].startY 965m
param *.uav[49].startZ 539m
param *.uav[50].startX 3537m
param *.uav[50].startY 965m
param *.uav[50].startZ 539m
param *.uav[51].startX 312m
param *.uav[51].startY 1262m
param *.uav[51].startZ 540m
param *.uav[52].startX 2185m
param *.uav[52].startY 3026m
param *.uav[52].startZ 778m
param *.uav[53].startX 3537m
param *.uav[53].startY 965m
param *.uav[53].startZ 539m
param *.uav[54].startX 312m
param *.uav[54].startY 1262m
param *.uav[54].startZ 540m
param *.uav[55].startX 2185m
param *.uav[55].startY 3026m
param *.uav[55].startZ 778m
param *.uav[56].startX 3537m
param *.uav[56].startY 965m
param *.uav[56].startZ 539m
param *.uav[57].startX 312m
param *.uav[57].startY 1262m
param *.uav[57].startZ 540m
param *.uav[58].startX 2185m
param *.uav[58].startY 3026m
param *.uav[58].startZ 778m
param *.uav[59].startX 3537m
param *.uav[59].startY 965m
param *.uav[59].startZ 539m
param *.uav[60].startX 3537m
param *.uav[60].startY 965m
param *.uav[60].startZ 539m
param *.uav[61].startX 312m
param *.uav[61].startY 1262m
param *.uav[61].startZ 540m
param *.uav[62].startX 2185m
param *.uav[62].startY 3026m
param *.uav[62].startZ 778m
param *.uav[63].startX 3537m
param *.uav[63].startY 965m
param *.uav[63].startZ 539m
param *.uav[64].startX 312m
param *.uav[64].startY 1262m
param *.uav[64].startZ 540m
param *.uav[65].startX 2185m
param *.uav[65].startY 3026m
param *.uav[65].startZ 778m
param *.uav[66].startX 3537m
param *.uav[66].startY 965m
param *.uav[66].startZ 539m
param *.uav[67].startX 312m
param *.uav[67].startY 1262m
param *.uav[67].startZ 540m
param *.uav[68].startX 2185m
param *.uav[68].startY 3026m
param *.uav[68].startZ 778m
param *.uav[69].startX 3537m
param *.uav[69].startY 965m
param *.uav[69].startZ 539m
param *.uav[70].startX 3537m
param *.uav[70].startY 965m
param *.uav[70].startZ 539m
param *.uav[71].startX 312m
param *.uav[71].startY 1262m
param *.uav[71].startZ 540m
param *.uav[72].startX 2185m
param *.uav[72].startY 3026m
param *.uav[72].startZ 778m
param *.uav[73].startX 3537m
param *.uav[73].startY 965m
param *.uav[73].startZ 539m
param *.uav[74].startX 312m
param *.uav[74].startY 1262m
param *.uav[74].startZ 540m
param *.uav[75].startX 2185m
param *.uav[75].startY 3026m
param *.uav[75].startZ 778m
param *.uav[76].startX 3537m
param *.uav[76].startY 965m
param *.uav[76].startZ 539m
param *.uav[77].startX 312m
param *.uav[77].startY 1262m
param *.uav[77].startZ 540m
param *.uav[78].startX 2185m
param *.uav[78].startY 3026m
param *.uav[78].startZ 778m
param *.uav[79].startX 3537m
param *.uav[79].startY 965m
param *.uav[79].startZ 539m
param *.uav[80].startX 3537m
param *.uav[80].startY 965m
param *.uav[80].startZ 539m
param *.uav[81].startX 312m
param *.uav[81].startY 1262m
param *.uav[81].startZ 540m
param *.uav[82].startX 2185m
param *.uav[82].startY 3026m
param *.uav[82].startZ 778m
param *.uav[83].startX 3537m
param *.uav[83].startY 965m
param *.uav[83].startZ 539m
param *.uav[84].startX 312m
param *.uav[84].startY 1262m
param *.uav[84].startZ 540m
param *.uav[85].startX 2185m
param *.uav[85].startY 3026m
param *.uav[85].startZ 778m
param *.uav[86].startX 3537m
param *.uav[86].startY 965m
param *.uav[86].startZ 539m
param *.uav[87].startX 312m
param *.uav[87].startY 1262m
param *.uav[87].startZ 540m
param *.uav[88].startX 2185m
param *.uav[88].startY 3026m
param *.uav[88].startZ 778m
param *.uav[89].startX 3537m
param *.uav[89].startY 965m
param *.uav[89].startZ 539m
param *.uav[90].startX 3537m
param *.uav[90].startY 965m
param *.uav[90].startZ 539m
param *.uav[91].startX 312m
param *.uav[91].startY 1262m
param *.uav[91].startZ 540m
param *.uav[92].startX 2185m
param *.uav[92].startY 3026m
param *.uav[92].startZ 778m
param *.uav[93].startX 3537m
param *.uav[93].startY 965m
param *.uav[93].startZ 539m
param *.uav[94].startX 312m
param *.uav[94].startY 1262m
param *.uav[94].startZ 540m
param *.uav[95].startX 2185m
param *.uav[95].startY 3026m
param *.uav[95].startZ 778m
param *.uav[96].startX 3537m
param *.uav[96].startY 965m
param *.uav[96].startZ 539m
param *.uav[97].startX 312m
param *.uav[97].startY 1262m
param *.uav[97].startZ 540m
param *.uav[98].startX 2185m
param *.uav[98].startY 3026m
param *.uav[98].startZ 778m
param *.uav[99].startX 3537m
param *.uav[99].startY 965m
param *.uav[99].startZ 539m
param *.osgEarthScene.scene "\"boston.earth\""
param *.playgroundLatitude 42.3558
param *.playgroundLongitude -71.0677
param *.playgroundWidth 400m
param *.playgroundHeight 200m
param *.channelController.connectionColor "\"#0000FF40\""
param *.channelController.showConnections false
param *.uav[*].modelURL "\"quadrocopter.small.obj.15.scale.0,0,90.rot\""
param *.uav[*].labelColor "\"#FF7C00CC\""
param *.uav[*].label2Color "\"#FF7C00EE\""
param *.uav[*].batteryCapacity 5200mAh
param *.uav[*].batteryRemaining uav[index].batteryCapacity
param *.uav[*].predictionQuantile 0.95
param *.uav[*].replacementMethod 2
param *.uav[*].weightedSumWeight 0.5
param *.cs[*].modelURL "\"chargingstation_v1.osgt.2.scale.0,0,0.rot.0,0,-15e-1.trans\""
param *.cs[*].spotsWaiting 999
param *.cs[*].spotsCharging 999
param *.cs[*].chargeEffectivenessPercentage 100
param *.cs[*].nonLinearPhaseStartPercentage 85
param *.cs[*].chargeCurrent 6.0A
param *.cs[*].prioritizeFastCharge true
param *.missionControl.replacementSearchMethod 0
param *.*.timeStep 9s

scalar OsgEarthNet.uav[0] utilizationSecMission 684.4732299383
scalar OsgEarthNet.uav[0] utilizationSecMaintenance 298.56834692969
scalar OsgEarthNet.uav[0] utilizationSecCharge 3810
scalar OsgEarthNet.uav[0] utilizationSecIdle 254406.95742313
scalar OsgEarthNet.uav[0] utilizationEnergyMission 3385.9602966309
scalar OsgEarthNet.uav[0] utilizationEnergyMaintenance 1426.1338729858
scalar OsgEarthNet.uav[0] utilizationEnergyCharge 4812.0932617188
scalar OsgEarthNet.uav[0] utilizationEnergyOverdrawMission 0
scalar OsgEarthNet.uav[0] utilizationEnergyOverdrawMaintenance 0
scalar OsgEarthNet.uav[0] utilizationCountMissions 1
scalar OsgEarthNet.uav[0] utilizationCountManeuversMission 11
scalar OsgEarthNet.uav[0] utilizationCountManeuversMaintenance 2
scalar OsgEarthNet.uav[0] utilizationCountChargeState 1
scalar OsgEarthNet.uav[0] utilizationCountOverdrawnAfterMission 0
scalar OsgEarthNet.uav[0] utilizationCountIdleState 2
scalar OsgEarthNet.uav[0] utilizationFail 0
scalar OsgEarthNet.uav[0] simulationTime 259200
scalar OsgEarthNet.uav[1] utilizationSecMission 28241.864627776
scalar OsgEarthNet.uav[1] utilizationSecMaintenance 12417.566639958
scalar OsgEarthNet.uav[1] utilizationSecCharge 154773.25264977
scalar OsgEarthNet.uav[1] utilizationSecIdle 63767.315082491
scalar OsgEarthNet.uav[1] utilizationEnergyMission 131596.15080643
scalar OsgEarthNet.uav[1] utilizationEnergyMaintenance 58470.83707428
scalar OsgEarthNet.uav[1] utilizationEnergyCharge 189963.49487305
scalar OsgEarthNet.uav[1] utilizationEnergyOverdrawMission 0
scalar OsgEarthNet.uav[1] utilizationEnergyOverdrawMaintenance 0
scalar OsgEarthNet.uav[1] utilizationCountMissions 45
scalar OsgEarthNet.uav[1] utilizationCountManeuversMission 472
scalar OsgEarthNet.uav[1] utilizationCountManeuversMaintenance 90
scalar OsgEarthNet.uav[1] utilizationCountChargeState 45
scalar OsgEarthNet.uav[1] utilizationCountOverdrawnAfterMission 0
scalar OsgEarthNet.uav[1] utilizationCountIdleState 45
scalar OsgEarthNet.uav[1] utilizationFail 0
scalar OsgEarthNet.uav[1] simulationTime 259200
scalar OsgEarthNet.uav[2] utilizationSecMission 887.1741082606
scalar OsgEarthNet.uav[2] utilizationSecMaintenance 171.13387461676
scalar OsgEarthNet.uav[2] utilizationSecCharge 3750
scalar OsgEarthNet.uav[2] utilizationSecIdle 254391.69101712
scalar OsgEarthNet.uav[2] utilizationEnergyMission 4090.0542602539
scalar OsgEarthNet.uav[2] utilizationEnergyMaintenance 742.05168914795
scalar OsgEarthNet.uav[2] utilizationEnergyCharge 4701.3608398438
scalar OsgEarthNet.uav[2] utilizationEnergyOverdrawMission 0
scalar OsgEarthNet.uav[2] utilizationEnergyOverdrawMaintenance 0
scalar OsgEarthNet.uav[2] utilizationCountMissions 1
scalar OsgEarthNet.uav[2] utilizationCountManeuversMission 14
scalar OsgEarthNet.uav[2] utilizationCountManeuversMaintenance 2
scalar OsgEarthNet.uav[2] utilizationCountChargeState 1
scalar OsgEarthNet.uav[2] utilizationCountOverdrawnAfterMission 0
scalar OsgEarthNet.uav[2] utilizationCountIdleState 2
scalar OsgEarthNet.uav[2] utilizationFail 0
scalar OsgEarthNet.uav[2] simulationTime 259200
scalar OsgEarthNet.uav[3] utilizationSecMission 836.77707522227
scalar OsgEarthNet.uav[3] utilizationSecMaintenance 217.0347828456
scalar OsgEarthNet.uav[3] utilizationSecCharge 3800
scalar OsgEarthNet.uav[3] utilizationSecIdle 254346.18714193
scalar OsgEarthNet.uav[3] utilizationEnergyMission 3678.2836532593
scalar OsgEarthNet.uav[3] utilizationEnergyMaintenance 1101.1577262878
scalar OsgEarthNet.uav[3] utilizationEnergyCharge 4779.4428710938
scalar OsgEarthNet.uav[3] utilizationEnergyOverdrawMission 0
scalar OsgEarthNet.uav[3] utilizationEnergyOverdrawMaintenance 0
scalar OsgEarthNet.uav[3] utilizationCountMissions 1
scalar OsgEarthNet.uav[3] utilizationCountManeuversMission 13
scalar OsgEarthNet.uav[3] utilizationCountManeuversMaintenance 2
scalar OsgEarthNet.uav[3] utilizationCountChargeState 1
scalar OsgEarthNet.uav[3] utilizationCountOverdrawnAfterMission 0
scalar OsgEarthNet.uav[3] utilizationCountIdleState 2
scalar OsgEarthNet.uav[3] utilizationFail 0
scalar OsgEarthNet.uav[3] simulationTime 259200
scalar OsgEarthNet.uav[4] utilizationSecMission 22713.733028102
scalar OsgEarthNet.uav[4] utilizationSecMaintenance 11474.114143015
scalar OsgEarthNet.uav[4] utilizationSecCharge 129462.13255408
scalar OsgEarthNet.uav[4] utilizationSecIdle 95550.019274805
scalar OsgEarthNet.uav[4] utilizationEnergyMission 106064.50019073
scalar OsgEarthNet.uav[4] utilizationEnergyMaintenance 54484.824691772
scalar OsgEarthNet.uav[4] utilizationEnergyCharge 157298.734375
scalar OsgEarthNet.uav[4] utilizationEnergyOverdrawMission 0
scalar OsgEarthNet.uav[4] utilizationEnergyOverdrawMaintenance 0
scalar OsgEarthNet.uav[4] utilizationCountMissions 39
scalar OsgEarthNet.uav[4] utilizationCountManeuversMission 379
scalar OsgEarthNet.uav[4] utilizationCountManeuversMaintenance 78
scalar OsgEarthNet.uav[4] utilizationCountChargeState 39
scalar OsgEarthNet.uav[4] utilizationCountOverdrawnAfterMission 0
scalar OsgEarthNet.uav[4] utilizationCountIdleState 39
scalar OsgEarthNet.uav[4] utilizationFail 0
scalar OsgEarthNet.uav[4] simulationTime 259200
scalar OsgEarthNet.uav[5] utilizationSecMission 3629.9033825568
scalar OsgEarthNet.uav[5] utilizationSecMaintenance 1600.7787392631
scalar OsgEarthNet.uav[5] utilizationSecCharge 20270
scalar OsgEarthNet.uav[5] utilizationSecIdle 233699.31687818
scalar OsgEarthNet.uav[5] utilizationEnergyMission 16675.110496521
scalar OsgEarthNet.uav[5] utilizationEnergyMaintenance 7825.8544387817
scalar OsgEarthNet.uav[5] utilizationEnergyCharge 24490.751464844
scalar OsgEarthNet.uav[5] utilizationEnergyOverdrawMission 0
scalar OsgEarthNet.uav[5] utilizationEnergyOverdrawMaintenance 0
scalar OsgEarthNet.uav[5] utilizationCountMissions 6
scalar OsgEarthNet.uav[5] utilizationCountManeuversMission 60
scalar OsgEarthNet.uav[5] utilizationCountManeuversMaintenance 12
scalar OsgEarthNet.uav[5] utilizationCountChargeState 6
scalar OsgEarthNet.uav[5] utilizationCountOverdrawnAfterMission 0
scalar OsgEarthNet.uav[5] utilizationCountIdleState 7
scalar OsgEarthNet.uav[5] utilizationFail 0
scalar OsgEarthNet.uav[5] simulationTime 259200
scalar OsgEarthNet.uav[6] utilizationSecMission 760.62515258028
scalar OsgEarthNet.uav[6] utilizationSecMaintenance 245.74410321072
scalar OsgEarthNet.uav[6] utilizationSecCharge 3610
scalar OsgEarthNet.uav[6] utilizationSecIdle 254583.62974421
scalar OsgEarthNet.uav[6] utilizationEnergyMission 3442.651763916
scalar OsgEarthNet.uav[6] utilizationEnergyMaintenance 1024.7591972351
scalar OsgEarthNet.uav[6] utilizationEnergyCharge 4467.4130859375
scalar OsgEarthNet.uav[6] utilizationEnergyOverdrawMission 0
scalar OsgEarthNet.uav[6] utilizationEnergyOverdrawMaintenance 0
scalar OsgEarthNet.uav[6] utilizationCountMissions 1
scalar OsgEarthNet.uav[6] utilizationCountManeuversMission 12
scalar OsgEarthNet.uav[6] utilizationCountManeuversMaintenance 2
scalar OsgEarthNet.uav[6] utilizationCountChargeState 1
scalar OsgEarthNet.uav[6] utilizationCountOverdrawnAfterMission 0
scalar OsgEarthNet.uav[6] utilizationCountIdleState 2
scalar OsgEarthNet.uav[6] utilizationFail 0
scalar OsgEarthNet.uav[6] simulationTime 259200
scalar OsgEarthNet.uav[7] utilizationSecMission 1847.8621907088
scalar OsgEarthNet.uav[7] utilizationSecMaintenance 1502.6535529448
scalar OsgEarthNet.uav[7] utilizationSecCharge 13250
scalar OsgEarthNet.uav[7] utilizationSecIdle 242599.48325635
scalar OsgEarthNet.uav[7] utilizationEnergyMission 8736.6236724854
scalar OsgEarthNet.uav[7] utilizationEnergyMaintenance 7098.7443199158
scalar OsgEarthNet.uav[7] utilizationEnergyCharge 15835.374023438
scalar OsgEarthNet.uav[7] utilizationEnergyOverdrawMission 0
scalar OsgEarthNet.uav[7] utilizationEnergyOverdrawMaintenance 0
scalar OsgEarthNet.uav[7] utilizationCountMissions 4
scalar OsgEarthNet.uav[7] utilizationCountManeuversMission 28
scalar OsgEarthNet.uav[7] utilizationCountManeuversMaintenance 8
scalar OsgEarthNet.uav[7] utilizationCountChargeState 4
scalar OsgEarthNet.uav[7] utilizationCountOverdrawnAfterMission 0
scalar OsgEarthNet.uav[7] utilizationCountIdleState 5
scalar OsgEarthNet.uav[7] utilizationFail 0
scalar OsgEarthNet.uav[7] simulationTime 259200
scalar OsgEarthNet.uav[8] utilizationSecMission 25296.625586829
scalar OsgEarthNet.uav[8] utilizationSecMaintenance 13840.436965712
scalar OsgEarthNet.uav[8] utilizationSecCharge 150314.04007232
scalar OsgEarthNet.uav[8] utilizationSecIdle 69748.896375144
scalar OsgEarthNet.uav[8] utilizationEnergyMission 117038.61763763
scalar OsgEarthNet.uav[8] utilizationEnergyMaintenance 65391.957969666
scalar OsgEarthNet.uav[8] utilizationEnergyCharge 182057.85351562
scalar OsgEarthNet.uav[8] utilizationEnergyOverdrawMission 0
scalar OsgEarthNet.uav[8] utilizationEnergyOverdrawMaintenance 0
scalar OsgEarthNet.uav[8] utilizationCountMissions 45
scalar OsgEarthNet.uav[8] utilizationCountManeuversMission 397
scalar OsgEarthNet.uav[8] utilizationCountManeuversMaintenance 90
scalar OsgEarthNet.uav[8] utilizationCountChargeState 45
scalar OsgEarthNet.uav[8] utilizationCountOverdrawnAfterMission 0
scalar OsgEarthNet.uav[8] utilizationCountIdleState 45
scalar OsgEarthNet.uav[8] utilizationFail 0
scalar OsgEarthNet.uav[8] simulationTime 259200
scalar OsgEarthNet.uav[9] utilizationSecMission 31930.269186093
scalar OsgEarthNet.uav[9] utilizationSecMaintenance 10649.248483265
scalar OsgEarthNet.uav[9] utilizationSecCharge 157634.30826397
scalar OsgEarthNet.uav[9] utilizationSecIdle 58986.173066668
scalar OsgEarthNet.uav[9] utilizationEnergyMission 147877.09281921
scalar OsgEarthNet.uav[9] utilizationEnergyMaintenance 49541.042720795
scalar OsgEarthNet.uav[9] utilizationEnergyCharge 195407.0838623
scalar OsgEarthNet.uav[9] utilizationEnergyOverdrawMission 0
scalar OsgEarthNet.uav[9] utilizationEnergyOverdrawMaintenance 0
scalar OsgEarthNet.uav[9] utilizationCountMissions 45
scalar OsgEarthNet.uav[9] utilizationCountManeuversMission 503
scalar OsgEarthNet.uav[9] utilizationCountManeuversMaintenance 90
scalar OsgEarthNet.uav[9] utilizationCountChargeState 45
scalar OsgEarthNet.uav[9] utilizationCountOverdrawnAfterMission 0
scalar OsgEarthNet.uav[9] utilizationCountIdleState 45
scalar OsgEarthNet.uav[9] utilizationFail 0
scalar OsgEarthNet.uav[9] simulationTime 259200
scalar OsgEarthNet.uav[10] utilizationSecMission 16107.37020946
scalar OsgEarthNet.uav[10] utilizationSecMaintenance 5787.0134015531
scalar OsgEarthNet.uav[10] utilizationSecCharge 81740
scalar OsgEarthNet.uav[10] utilizationSecIdle 155565.61538899
scalar OsgEarthNet.uav[10] utilizationEnergyMission 75474.649097443
scalar OsgEarthNet.uav[10] utilizationEnergyMaintenance 26309.082416534
scalar OsgEarthNet.uav[10] utilizationEnergyCharge 101314.0949707
scalar OsgEarthNet.uav[10] utilizationEnergyOverdrawMission 0
scalar OsgEarthNet.uav[10] utilizationEnergyOverdrawMaintenance 0
scalar OsgEarthNet.uav[10] utilizationCountMissions 23
scalar OsgEarthNet.uav[10] utilizationCountManeuversMission 254
scalar OsgEarthNet.uav[10] utilizationCountManeuversMaintenance 46
scalar OsgEarthNet.uav[10] utilizationCountChargeState 23
scalar OsgEarthNet.uav[10] utilizationCountOverdrawnAfterMission 0
scalar OsgEarthNet.uav[10] utilizationCountIdleState 24
scalar OsgEarthNet.uav[10] utilizationFail 0
scalar OsgEarthNet.uav[10] simulationTime 259200
scalar OsgEarthNet.uav[11] utilizationSecMission 553.12566654921
scalar OsgEarthNet.uav[11] utilizationSecMaintenance 489.82638271256
scalar OsgEarthNet.uav[11] utilizationSecCharge 3950
scalar OsgEarthNet.uav[11] utilizationSecIdle 254207.04695074
scalar OsgEarthNet.uav[11] utilizationEnergyMission 2741.1801452637
scalar OsgEarthNet.uav[11] utilizationEnergyMaintenance 2307.8681144714
scalar OsgEarthNet.uav[11] utilizationEnergyCharge 5030.2353515625
scalar OsgEarthNet.uav[11] utilizationEnergyOverdrawMission 0
scalar OsgEarthNet.uav[11] utilizationEnergyOverdrawMaintenance 0
scalar OsgEarthNet.uav[11] utilizationCountMissions 1
scalar OsgEarthNet.uav[11] utilizationCountManeuversMission 9
scalar OsgEarthNet.uav[11] utilizationCountManeuversMaintenance 2
scalar OsgEarthNet.uav[11] utilizationCountChargeState 1
scalar OsgEarthNet.uav[11] utilizationCountOverdrawnAfterMission 0
scalar OsgEarthNet.uav[11] utilizationCountIdleState 2
scalar OsgEarthNet.uav[11] utilizationFail 0
scalar OsgEarthNet.uav[11] simulationTime 259200
scalar OsgEarthNet.uav[12] utilizationSecMission 694.00169469977
scalar OsgEarthNet.uav[12] utilizationSecMaintenance 223.34597234416
scalar OsgEarthNet.uav[12] utilizationSecCharge 3490
scalar OsgEarthNet.uav[12] utilizationSecIdle 254792.65133296
scalar OsgEarthNet.uav[12] utilizationEnergyMission 3240.2744064331
scalar OsgEarthNet.uav[12] utilizationEnergyMaintenance 1052.3818473816
scalar OsgEarthNet.uav[12] utilizationEnergyCharge 4256.5668945312
scalar OsgEarthNet.uav[12] utilizationEnergyOverdrawMission 0
scalar OsgEarthNet.uav[12] utilizationEnergyOverdrawMaintenance 0
scalar OsgEarthNet.uav[12] utilizationCountMissions 1
scalar OsgEarthNet.uav[12] utilizationCountManeuversMission 13
scalar OsgEarthNet.uav[12] utilizationCountManeuversMaintenance 2
scalar OsgEarthNet.uav[12] utilizationCountChargeState 1
scalar OsgEarthNet.uav[12] utilizationCountOverdrawnAfterMission 0
scalar OsgEarthNet.uav[12] utilizationCountIdleState 2
scalar OsgEarthNet.uav[12] utilizationFail 0
scalar OsgEarthNet.uav[12] simulationTime 259200
scalar OsgEarthNet.uav[13] utilizationSecMission 760.62515258028
scalar OsgEarthNet.uav[13] utilizationSecMaintenance 245.74410321072
scalar OsgEarthNet.uav[13] utilizationSecCharge 3540
scalar OsgEarthNet.uav[13] utilizationSecIdle 254653.62974421
scalar OsgEarthNet.uav[13] utilizationEnergyMission 3420.5378875732
scalar OsgEarthNet.uav[13] utilizationEnergyMaintenance 968.31290817261
scalar OsgEarthNet.uav[13] utilizationEnergyCharge 4388.8525390625
scalar OsgEarthNet.uav[13] utilizationEnergyOverdrawMission 0
scalar OsgEarthNet.uav[13] utilizationEnergyOverdrawMaintenance 0
scalar OsgEarthNet.uav[13] utilizationCountMissions 1
scalar OsgEarthNet.uav[13] utilizationCountManeuversMission 12
scalar OsgEarthNet.uav[13] utilizationCountManeuversMaintenance 2
scalar OsgEarthNet.uav[13] utilizationCountChargeState 1
scalar OsgEarthNet.uav[13] utilizationCountOverdrawnAfterMission 0
scalar OsgEarthNet.uav[13] utilizationCountIdleState 2
scalar OsgEarthNet.uav[13] utilizationFail 0
scalar OsgEarthNet.uav[13] simulationTime 259200
scalar OsgEarthNet.uav[14] utilizationSecMission 16556.616028665
scalar OsgEarthNet.uav[14] utilizationSecMaintenance 9240.7283905619
scalar OsgEarthNet.uav[14] utilizationSecCharge 98872.314123886
scalar OsgEarthNet.uav[14] utilizationSecIdle 134530.34045689
scalar OsgEarthNet.uav[14] utilizationEnergyMission 77172.181381226
scalar OsgEarthNet.uav[14] utilizationEnergyMaintenance 44124.40619278
scalar OsgEarthNet.uav[14] utilizationEnergyCharge 119886.52368164
scalar OsgEarthNet.uav[14] utilizationEnergyOverdrawMission 0
scalar OsgEarthNet.uav[14] utilizationEnergyOverdrawMaintenance 0
scalar OsgEarthNet.uav[14] utilizationCountMissions 30
scalar OsgEarthNet.uav[14] utilizationCountManeuversMission 271
scalar OsgEarthNet.uav[14] utilizationCountManeuversMaintenance 60
scalar OsgEarthNet.uav[14] utilizationCountChargeState 30
scalar OsgEarthNet.uav[14] utilizationCountOverdrawnAfterMission 0
scalar OsgEarthNet.uav[14] utilizationCountIdleState 30
scalar OsgEarthNet.uav[14] utilizationFail 0
scalar OsgEarthNet.uav[14] simulationTime 259200
scalar OsgEarthNet.uav[15] utilizationSecMission 29100.387887264
scalar OsgEarthNet.uav[15] utilizationSecMaintenance 10646.641198314
scalar OsgEarthNet.uav[15] utilizationSecCharge 147438.47197325
scalar OsgEarthNet.uav[15] utilizationSecIdle 72014.497941176
scalar OsgEarthNet.uav[15] utilizationEnergyMission 133464.58844757
scalar OsgEarthNet.uav[15] utilizationEnergyMaintenance 49334.080554962
scalar OsgEarthNet.uav[15] utilizationEnergyCharge 182456.02685547
scalar OsgEarthNet.uav[15] utilizationEnergyOverdrawMission 0
scalar OsgEarthNet.uav[15] utilizationEnergyOverdrawMaintenance 0
scalar OsgEarthNet.uav[15] utilizationCountMissions 42
scalar OsgEarthNet.uav[15] utilizationCountManeuversMission 462
scalar OsgEarthNet.uav[15] utilizationCountManeuversMaintenance 84
scalar OsgEarthNet.uav[15] utilizationCountChargeState 42
scalar OsgEarthNet.uav[15] utilizationCountOverdrawnAfterMission 0
scalar OsgEarthNet.uav[15] utilizationCountIdleState 42
scalar OsgEarthNet.uav[15] utilizationFail 0
scalar OsgEarthNet.uav[15] simulationTime 259200
scalar OsgEarthNet.uav[16] utilizationSecMission 27686.542297067
scalar OsgEarthNet.uav[16] utilizationSecMaintenance 11560.378702742
scalar OsgEarthNet.uav[16] utilizationSecCharge 146020
scalar OsgEarthNet.uav[16] utilizationSecIdle 73933.078000191
scalar OsgEarthNet.uav[16] utilizationEnergyMission 127850.65279388
scalar OsgEarthNet.uav[16] utilizationEnergyMaintenance 53612.467250824
scalar OsgEarthNet.uav[16] utilizationEnergyCharge 180886.19262695
scalar OsgEarthNet.uav[16] utilizationEnergyOverdrawMission 0
scalar OsgEarthNet.uav[16] utilizationEnergyOverdrawMaintenance 0
scalar OsgEarthNet.uav[16] utilizationCountMissions 41
scalar OsgEarthNet.uav[16] utilizationCountManeuversMission 437
scalar OsgEarthNet.uav[16] utilizationCountManeuversMaintenance 82
scalar OsgEarthNet.uav[16] utilizationCountChargeState 41
scalar OsgEarthNet.uav[16] utilizationCountOverdrawnAfterMission 0
scalar OsgEarthNet.uav[16] utilizationCountIdleState 42
scalar OsgEarthNet.uav[16] utilizationFail 0
scalar OsgEarthNet.uav[16] simulationTime 259200
scalar OsgEarthNet.uav[17] utilizationSecMission 2945.1935926353
scalar OsgEarthNet.uav[17] utilizationSecMaintenance 1219.8912270863
scalar OsgEarthNet.uav[17] utilizationSecCharge 16660
scalar OsgEarthNet.uav[17] utilizationSecIdle 238374.91418028
scalar OsgEarthNet.uav[17] utilizationEnergyMission 13943.339775085
scalar OsgEarthNet.uav[17] utilizationEnergyMaintenance 6055.0855178833
scalar OsgEarthNet.uav[17] utilizationEnergyCharge 19998.427490234
scalar OsgEarthNet.uav[17] utilizationEnergyOverdrawMission 0
scalar OsgEarthNet.uav[17] utilizationEnergyOverdrawMaintenance 0
scalar OsgEarthNet.uav[17] utilizationCountMissions 5
scalar OsgEarthNet.uav[17] utilizationCountManeuversMission 51
scalar OsgEarthNet.uav[17] utilizationCountManeuversMaintenance 10
scalar OsgEarthNet.uav[17] utilizationCountChargeState 5
scalar OsgEarthNet.uav[17] utilizationCountOverdrawnAfterMission 0
scalar OsgEarthNet.uav[17] utilizationCountIdleState 6
scalar OsgEarthNet.uav[17] utilizationFail 0
scalar OsgEarthNet.uav[17] simulationTime 259200
scalar OsgEarthNet.uav[18] utilizationSecMission 24326.547053304
scalar OsgEarthNet.uav[18] utilizationSecMaintenance 12241.192259333
scalar OsgEarthNet.uav[18] utilizationSecCharge 139899.36061432
scalar OsgEarthNet.uav[18] utilizationSecIdle 82732.899073046
scalar OsgEarthNet.uav[18] utilizationEnergyMission 113592.72850037
scalar OsgEarthNet.uav[18] utilizationEnergyMaintenance 58333.220111847
scalar OsgEarthNet.uav[18] utilizationEnergyCharge 169805.65991211
scalar OsgEarthNet.uav[18] utilizationEnergyOverdrawMission 0
scalar OsgEarthNet.uav[18] utilizationEnergyOverdrawMaintenance 0
scalar OsgEarthNet.uav[18] utilizationCountMissions 42
scalar OsgEarthNet.uav[18] utilizationCountManeuversMission 409
scalar OsgEarthNet.uav[18] utilizationCountManeuversMaintenance 84
scalar OsgEarthNet.uav[18] utilizationCountChargeState 42
scalar OsgEarthNet.uav[18] utilizationCountOverdrawnAfterMission 0
scalar OsgEarthNet.uav[18] utilizationCountIdleState 42
scalar OsgEarthNet.uav[18] utilizationFail 0
scalar OsgEarthNet.uav[18] simulationTime 259200
scalar OsgEarthNet.uav[19] utilizationSecMission 28875.002174906
scalar OsgEarthNet.uav[19] utilizationSecMaintenance 9008.1138252595
scalar OsgEarthNet.uav[19] utilizationSecCharge 138218.20530353
scalar OsgEarthNet.uav[19] utilizationSecIdle 83098.677696308
scalar OsgEarthNet.uav[19] utilizationEnergyMission 133615.08108521
scalar OsgEarthNet.uav[19] utilizationEnergyMaintenance 41707.8659935
scalar OsgEarthNet.uav[19] utilizationEnergyCharge 172508.76391602
scalar OsgEarthNet.uav[19] utilizationEnergyOverdrawMission 0
scalar OsgEarthNet.uav[19] utilizationEnergyOverdrawMaintenance 0
scalar OsgEarthNet.uav[19] utilizationCountMissions 39
scalar OsgEarthNet.uav[19] utilizationCountManeuversMission 459
scalar OsgEarthNet.uav[19] utilizationCountManeuversMaintenance 78
scalar OsgEarthNet.uav[19] utilizationCountChargeState 39
scalar OsgEarthNet.uav[19] utilizationCountOverdrawnAfterMission 0
scalar OsgEarthNet.uav[19] utilizationCountIdleState 39
scalar OsgEarthNet.uav[19] utilizationFail 0
scalar OsgEarthNet.uav[19] simulationTime 259200
scalar OsgEarthNet.uav[20] utilizationSecMission 836.77707522227
scalar OsgEarthNet.uav[20] utilizationSecMaintenance 217.0347828456
scalar OsgEarthNet.uav[20] utilizationSecCharge 3860
scalar OsgEarthNet.uav[20] utilizationSecIdle 254286.18714193
scalar OsgEarthNet.uav[20] utilizationEnergyMission 3795.8751296997
scalar OsgEarthNet.uav[20] utilizationEnergyMaintenance 1122.9100456238
scalar OsgEarthNet.uav[20] utilizationEnergyCharge 4918.7841796875
scalar OsgEarthNet.uav[20] utilizationEnergyOverdrawMission 0
scalar OsgEarthNet.uav[20] utilizationEnergyOverdrawMaintenance 0
scalar OsgEarthNet.uav[20] utilizationCountMissions 1
scalar OsgEarthNet.uav[20] utilizationCountManeuversMission 13
scalar OsgEarthNet.uav[20] utilizationCountManeuversMaintenance 2
scalar OsgEarthNet.uav[20] utilizationCountChargeState 1
scalar OsgEarthNet.uav[20] utilizationCountOverdrawnAfterMission 0
scalar OsgEarthNet.uav[20] utilizationCountIdleState 2
scalar OsgEarthNet.uav[20] utilizationFail 0
scalar OsgEarthNet.uav[20] simulationTime 259200
scalar OsgEarthNet.uav[21] utilizationSecMission 27383.825520497
scalar OsgEarthNet.uav[21] utilizationSecMaintenance 13778.980128294
scalar OsgEarthNet.uav[21] utilizationSecCharge 158786.23036488
scalar OsgEarthNet.uav[21] utilizationSecIdle 59250.962986334
scalar OsgEarthNet.uav[21] utilizationEnergyMission 126629.48540497
scalar OsgEarthNet.uav[21] utilizationEnergyMaintenance 65846.7329216
scalar OsgEarthNet.uav[21] utilizationEnergyCharge 190493.0012207
scalar OsgEarthNet.uav[21] utilizationEnergyOverdrawMission 0
scalar OsgEarthNet.uav[21] utilizationEnergyOverdrawMaintenance 0
scalar OsgEarthNet.uav[21] utilizationCountMissions 49
scalar OsgEarthNet.uav[21] utilizationCountManeuversMission 441
scalar OsgEarthNet.uav[21] utilizationCountManeuversMaintenance 98
scalar OsgEarthNet.uav[21] utilizationCountChargeState 49
scalar OsgEarthNet.uav[21] utilizationCountOverdrawnAfterMission 0
scalar OsgEarthNet.uav[21] utilizationCountIdleState 49
scalar OsgEarthNet.uav[21] utilizationFail 0
scalar OsgEarthNet.uav[21] simulationTime 259200
scalar OsgEarthNet.uav[22] utilizationSecMission 13167.611438449
scalar OsgEarthNet.uav[22] utilizationSecMaintenance 5895.5945038549
scalar OsgEarthNet.uav[22] utilizationSecCharge 73470
scalar OsgEarthNet.uav[22] utilizationSecIdle 166666.7930577
scalar OsgEarthNet.uav[22] utilizationEnergyMission 61602.766441345
scalar OsgEarthNet.uav[22] utilizationEnergyMaintenance 27164.904109955
scalar OsgEarthNet.uav[22] utilizationEnergyCharge 88642.053466797
scalar OsgEarthNet.uav[22] utilizationEnergyOverdrawMission 0
scalar OsgEarthNet.uav[22] utilizationEnergyOverdrawMaintenance 0
scalar OsgEarthNet.uav[22] utilizationCountMissions 22
scalar OsgEarthNet.uav[22] utilizationCountManeuversMission 218
scalar OsgEarthNet.uav[22] utilizationCountManeuversMaintenance 44
scalar OsgEarthNet.uav[22] utilizationCountChargeState 22
scalar OsgEarthNet.uav[22] utilizationCountOverdrawnAfterMission 0
scalar OsgEarthNet.uav[22] utilizationCountIdleState 23
scalar OsgEarthNet.uav[22] utilizationFail 0
scalar OsgEarthNet.uav[22] simulationTime 259200
scalar OsgEarthNet.uav[23] utilizationSecMission 760.62515258028
scalar OsgEarthNet.uav[23] utilizationSecMaintenance 291.95923480269
scalar OsgEarthNet.uav[23] utilizationSecCharge 3790
scalar OsgEarthNet.uav[23] utilizationSecIdle 254357.41461262
scalar OsgEarthNet.uav[23] utilizationEnergyMission 3309.365852356
scalar OsgEarthNet.uav[23] utilizationEnergyMaintenance 1492.9758529663
scalar OsgEarthNet.uav[23] utilizationEnergyCharge 4802.3422851562
scalar OsgEarthNet.uav[23] utilizationEnergyOverdrawMission 0
scalar OsgEarthNet.uav[23] utilizationEnergyOverdrawMaintenance 0
scalar OsgEarthNet.uav[23] utilizationCountMissions 1
scalar OsgEarthNet.uav[23] utilizationCountManeuversMission 12
scalar OsgEarthNet.uav[23] utilizationCountManeuversMaintenance 2
scalar OsgEarthNet.uav[23] utilizationCountChargeState 1
scalar OsgEarthNet.uav[23] utilizationCountOverdrawnAfterMission 0
scalar OsgEarthNet.uav[23] utilizationCountIdleState 2
scalar OsgEarthNet.uav[23] utilizationFail 0
scalar OsgEarthNet.uav[23] simulationTime 259200
scalar OsgEarthNet.uav[24] utilizationSecMission 22734.56584987
scalar OsgEarthNet.uav[24] utilizationSecMaintenance 10561.099964415
scalar OsgEarthNet.uav[24] utilizationSecCharge 126380.57219755
scalar OsgEarthNet.uav[24] utilizationSecIdle 99523.760988168
scalar OsgEarthNet.uav[24] utilizationEnergyMission 106744.47751617
scalar OsgEarthNet.uav[24] utilizationEnergyMaintenance 49275.747291565
scalar OsgEarthNet.uav[24] utilizationEnergyCharge 155545.13476562
scalar OsgEarthNet.uav[24] utilizationEnergyOverdrawMission 0
scalar OsgEarthNet.uav[24] utilizationEnergyOverdrawMaintenance 0
scalar OsgEarthNet.uav[24] utilizationCountMissions 37
scalar OsgEarthNet.uav[24] utilizationCountManeuversMission 370
scalar OsgEarthNet.uav[24] utilizationCountManeuversMaintenance 74
scalar OsgEarthNet.uav[24] utilizationCountChargeState 37
scalar OsgEarthNet.uav[24] utilizationCountOverdrawnAfterMission 0
scalar OsgEarthNet.uav[24] utilizationCountIdleState 37
scalar OsgEarthNet.uav[24] utilizationFail 0
scalar OsgEarthNet.uav[24] simulationTime 259200
scalar OsgEarthNet.uav[25] utilizationSecMission 28706.299118547
scalar OsgEarthNet.uav[25] utilizationSecMaintenance 12117.698744209
scalar OsgEarthNet.uav[25] utilizationSecCharge 153949.55356477
scalar OsgEarthNet.uav[25] utilizationSecIdle 64426.447572472
scalar OsgEarthNet.uav[25] utilizationEnergyMission 133438.60089493
scalar OsgEarthNet.uav[25] utilizationEnergyMaintenance 56727.116012573
scalar OsgEarthNet.uav[25] utilizationEnergyCharge 190603.89648438
scalar OsgEarthNet.uav[25] utilizationEnergyOverdrawMission 0
scalar OsgEarthNet.uav[25] utilizationEnergyOverdrawMaintenance 0
scalar OsgEarthNet.uav[25] utilizationCountMissions 44
scalar OsgEarthNet.uav[25] utilizationCountManeuversMission 479
scalar OsgEarthNet.uav[25] utilizationCountManeuversMaintenance 88
scalar OsgEarthNet.uav[25] utilizationCountChargeState 44
scalar OsgEarthNet.uav[25] utilizationCountOverdrawnAfterMission 0
scalar OsgEarthNet.uav[25] utilizationCountIdleState 44
scalar OsgEarthNet.uav[25] utilizationFail 0
scalar OsgEarthNet.uav[25] simulationTime 259200
scalar OsgEarthNet.uav[26] utilizationSecMission 213.40226662092
scalar OsgEarthNet.uav[26] utilizationSecMaintenance 474.30151219871
scalar OsgEarthNet.uav[26] utilizationSecCharge 2960
scalar OsgEarthNet.uav[26] utilizationSecIdle 255552.29522118
scalar OsgEarthNet.uav[26] utilizationEnergyMission 1003.0466156006
scalar OsgEarthNet.uav[26] utilizationEnergyMaintenance 2363.1408920288
scalar OsgEarthNet.uav[26] utilizationEnergyCharge 3366.1860351562
scalar OsgEarthNet.uav[26] utilizationEnergyOverdrawMission 0
scalar OsgEarthNet.uav[26] utilizationEnergyOverdrawMaintenance 0
scalar OsgEarthNet.uav[26] utilizationCountMissions 1
scalar OsgEarthNet.uav[26] utilizationCountManeuversMission 3
scalar OsgEarthNet.uav[26] utilizationCountManeuversMaintenance 2
scalar OsgEarthNet.uav[26] utilizationCountChargeState 1
scalar OsgEarthNet.uav[26] utilizationCountOverdrawnAfterMission 0
scalar OsgEarthNet.uav[26] utilizationCountIdleState 2
scalar OsgEarthNet.uav[26] utilizationFail 0
scalar OsgEarthNet.uav[26] simulationTime 259200
scalar OsgEarthNet.uav[27] utilizationSecMission 29073.782230616
scalar OsgEarthNet.uav[27] utilizationSecMaintenance 11240.651607714
scalar OsgEarthNet.uav[27] utilizationSecCharge 152960
scalar OsgEarthNet.uav[27] utilizationSecIdle 65925.56516167
scalar OsgEarthNet.uav[27] utilizationEnergyMission 134715.6969986
scalar OsgEarthNet.uav[27] utilizationEnergyMaintenance 53565.902191162
scalar OsgEarthNet.uav[27] utilizationEnergyCharge 187422.68774414
scalar OsgEarthNet.uav[27] utilizationEnergyOverdrawMission 0
scalar OsgEarthNet.uav[27] utilizationEnergyOverdrawMaintenance 0
scalar OsgEarthNet.uav[27] utilizationCountMissions 44
scalar OsgEarthNet.uav[27] utilizationCountManeuversMission 488
scalar OsgEarthNet.uav[27] utilizationCountManeuversMaintenance 88
scalar OsgEarthNet.uav[27] utilizationCountChargeState 44
scalar OsgEarthNet.uav[27] utilizationCountOverdrawnAfterMission 0
scalar OsgEarthNet.uav[27] utilizationCountIdleState 45
scalar OsgEarthNet.uav[27] utilizationFail 0
scalar OsgEarthNet.uav[27] simulationTime 259200
scalar OsgEarthNet.uav[28] utilizationSecMission 750.20472747826
scalar OsgEarthNet.uav[28] utilizationSecMaintenance 218.84515192887
scalar OsgEarthNet.uav[28] utilizationSecCharge 3580
scalar OsgEarthNet.uav[28] utilizationSecIdle 254650.94912059
scalar OsgEarthNet.uav[28] utilizationEnergyMission 3529.9859008789
scalar OsgEarthNet.uav[28] utilizationEnergyMaintenance 920.94097137451
scalar OsgEarthNet.uav[28] utilizationEnergyCharge 4391.943359375
scalar OsgEarthNet.uav[28] utilizationEnergyOverdrawMission 0
scalar OsgEarthNet.uav[28] utilizationEnergyOverdrawMaintenance 0
scalar OsgEarthNet.uav[28] utilizationCountMissions 1
scalar OsgEarthNet.uav[28] utilizationCountManeuversMission 11
scalar OsgEarthNet.uav[28] utilizationCountManeuversMaintenance 2
scalar OsgEarthNet.uav[28] utilizationCountChargeState 1
scalar OsgEarthNet.uav[28] utilizationCountOverdrawnAfterMission 0
scalar OsgEarthNet.uav[28] utilizationCountIdleState 2
scalar OsgEarthNet.uav[28] utilizationFail 0
scalar OsgEarthNet.uav[28] simulationTime 259200
scalar OsgEarthNet.uav[29] utilizationSecMission 9266.4885842953
scalar OsgEarthNet.uav[29] utilizationSecMaintenance 2575.0733378335
scalar OsgEarthNet.uav[29] utilizationSecCharge 43830
scalar OsgEarthNet.uav[29] utilizationSecIdle 203528.43707787
scalar OsgEarthNet.uav[29] utilizationEnergyMission 42505.548843384
scalar OsgEarthNet.uav[29] utilizationEnergyMaintenance 12565.228988647
scalar OsgEarthNet.uav[29] utilizationEnergyCharge 54884.590820312
scalar OsgEarthNet.uav[29] utilizationEnergyOverdrawMission 0
scalar OsgEarthNet.uav[29] utilizationEnergyOverdrawMaintenance 0
scalar OsgEarthNet.uav[29] utilizationCountMissions 12
scalar OsgEarthNet.uav[29] utilizationCountManeuversMission 148
scalar OsgEarthNet.uav[29] utilizationCountManeuversMaintenance 24
scalar OsgEarthNet.uav[29] utilizationCountChargeState 12
scalar OsgEarthNet.uav[29] utilizationCountOverdrawnAfterMission 0
scalar OsgEarthNet.uav[29] utilizationCountIdleState 13
scalar OsgEarthNet.uav[29] utilizationFail 0
scalar OsgEarthNet.uav[29] simulationTime 259200
scalar OsgEarthNet.uav[30] utilizationSecMission 22919.611367399
scalar OsgEarthNet.uav[30] utilizationSecMaintenance 10661.89920311
scalar OsgEarthNet.uav[30] utilizationSecCharge 130600
scalar OsgEarthNet.uav[30] utilizationSecIdle 95018.488429491
scalar OsgEarthNet.uav[30] utilizationEnergyMission 106679.12484741
scalar OsgEarthNet.uav[30] utilizationEnergyMaintenance 50842.993595123
scalar OsgEarthNet.uav[30] utilizationEnergyCharge 157472.24072266
scalar OsgEarthNet.uav[30] utilizationEnergyOverdrawMission 0
scalar OsgEarthNet.uav[30] utilizationEnergyOverdrawMaintenance 0
scalar OsgEarthNet.uav[30] utilizationCountMissions 39
scalar OsgEarthNet.uav[30] utilizationCountManeuversMission 378
scalar OsgEarthNet.uav[30] utilizationCountManeuversMaintenance 78
scalar OsgEarthNet.uav[30] utilizationCountChargeState 39
scalar OsgEarthNet.uav[30] utilizationCountOverdrawnAfterMission 0
scalar OsgEarthNet.uav[30] utilizationCountIdleState 40
scalar OsgEarthNet.uav[30] utilizationFail 0
scalar OsgEarthNet.uav[30] simulationTime 259200
scalar OsgEarthNet.uav[31] utilizationSecMission 31616.747429207
scalar OsgEarthNet.uav[31] utilizationSecMaintenance 12242.015929342
scalar OsgEarthNet.uav[31] utilizationSecCharge 164689.23513407
scalar OsgEarthNet.uav[31] utilizationSecIdle 50652.000507383
scalar OsgEarthNet.uav[31] utilizationEnergyMission 146023.21018219
scalar OsgEarthNet.uav[31] utilizationEnergyMaintenance 56880.725299835
scalar OsgEarthNet.uav[31] utilizationEnergyCharge 202141.06054688
scalar OsgEarthNet.uav[31] utilizationEnergyOverdrawMission 0
scalar OsgEarthNet.uav[31] utilizationEnergyOverdrawMaintenance 0
scalar OsgEarthNet.uav[31] utilizationCountMissions 48
scalar OsgEarthNet.uav[31] utilizationCountManeuversMission 508
scalar OsgEarthNet.uav[31] utilizationCountManeuversMaintenance 96
scalar OsgEarthNet.uav[31] utilizationCountChargeState 48
scalar OsgEarthNet.uav[31] utilizationCountOverdrawnAfterMission 0
scalar OsgEarthNet.uav[31] utilizationCountIdleState 48
scalar OsgEarthNet.uav[31] utilizationFail 0
scalar OsgEarthNet.uav[31] simulationTime 259200
scalar OsgEarthNet.uav[32] utilizationSecMission 828.1936691689
scalar OsgEarthNet.uav[32] utilizationSecMaintenance 156.97870384097
scalar OsgEarthNet.uav[32] utilizationSecCharge 3820
scalar OsgEarthNet.uav[32] utilizationSecIdle 254394.82662699
scalar OsgEarthNet.uav[32] utilizationEnergyMission 3978.0379180908
scalar OsgEarthNet.uav[32] utilizationEnergyMaintenance 807.98595428467
scalar OsgEarthNet.uav[32] utilizationEnergyCharge 4829.6625976562
scalar OsgEarthNet.uav[32] utilizationEnergyOverdrawMission 0
scalar OsgEarthNet.uav[32] utilizationEnergyOverdrawMaintenance 0
scalar OsgEarthNet.uav[32] utilizationCountMissions 1
scalar OsgEarthNet.uav[32] utilizationCountManeuversMission 13
scalar OsgEarthNet.uav[32] utilizationCountManeuversMaintenance 2
scalar OsgEarthNet.uav[32] utilizationCountChargeState 1
scalar OsgEarthNet.uav[32] utilizationCountOverdrawnAfterMission 0
scalar OsgEarthNet.uav[32] utilizationCountIdleState 2
scalar OsgEarthNet.uav[32] utilizationFail 0
scalar OsgEarthNet.uav[32] simulationTime 259200
scalar OsgEarthNet.uav[33] utilizationSecMission 750.20472747826
scalar OsgEarthNet.uav[33] utilizationSecMaintenance 261.68051383311
scalar OsgEarthNet.uav[33] utilizationSecCharge 3720
scalar OsgEarthNet.uav[33] utilizationSecIdle 254468.11375869
scalar OsgEarthNet.uav[33] utilizationEnergyMission 3440.5456695557
scalar OsgEarthNet.uav[33] utilizationEnergyMaintenance 1205.750743866
scalar OsgEarthNet.uav[33] utilizationEnergyCharge 4646.298828125
scalar OsgEarthNet.uav[33] utilizationEnergyOverdrawMission 0
scalar OsgEarthNet.uav[33] utilizationEnergyOverdrawMaintenance 0
scalar OsgEarthNet.uav[33] utilizationCountMissions 1
scalar OsgEarthNet.uav[33] utilizationCountManeuversMission 11
scalar OsgEarthNet.uav[33] utilizationCountManeuversMaintenance 2
scalar OsgEarthNet.uav[33] utilizationCountChargeState 1
scalar OsgEarthNet.uav[33] utilizationCountOverdrawnAfterMission 0
scalar OsgEarthNet.uav[33] utilizationCountIdleState 2
scalar OsgEarthNet.uav[33] utilizationFail 0
scalar OsgEarthNet.uav[33] simulationTime 259200
scalar OsgEarthNet.uav[34] utilizationSecMission 17782.51188881
scalar OsgEarthNet.uav[34] utilizationSecMaintenance 9685.1656872012
scalar OsgEarthNet.uav[34] utilizationSecCharge 105336.35083134
scalar OsgEarthNet.uav[34] utilizationSecIdle 126395.97059265
scalar OsgEarthNet.uav[34] utilizationEnergyMission 83505.83763504
scalar OsgEarthNet.uav[34] utilizationEnergyMaintenance 46524.569217682
scalar OsgEarthNet.uav[34] utilizationEnergyCharge 127788.7746582
scalar OsgEarthNet.uav[34] utilizationEnergyOverdrawMission 0
scalar OsgEarthNet.uav[34] utilizationEnergyOverdrawMaintenance 0
scalar OsgEarthNet.uav[34] utilizationCountMissions 32
scalar OsgEarthNet.uav[34] utilizationCountManeuversMission 290
scalar OsgEarthNet.uav[34] utilizationCountManeuversMaintenance 64
scalar OsgEarthNet.uav[34] utilizationCountChargeState 32
scalar OsgEarthNet.uav[34] utilizationCountOverdrawnAfterMission 0
scalar OsgEarthNet.uav[34] utilizationCountIdleState 32
scalar OsgEarthNet.uav[34] utilizationFail 0
scalar OsgEarthNet.uav[34] simulationTime 259200
scalar OsgEarthNet.uav[35] utilizationSecMission 694.00169469977
scalar OsgEarthNet.uav[35] utilizationSecMaintenance 223.34597234416
scalar OsgEarthNet.uav[35] utilizationSecCharge 3340
scalar OsgEarthNet.uav[35] utilizationSecIdle 254942.65133296
scalar OsgEarthNet.uav[35] utilizationEnergyMission 3128.7887420654
scalar OsgEarthNet.uav[35] utilizationEnergyMaintenance 955.15723800659
scalar OsgEarthNet.uav[35] utilizationEnergyCharge 4008.4406738281
scalar OsgEarthNet.uav[35] utilizationEnergyOverdrawMission 0
scalar OsgEarthNet.uav[35] utilizationEnergyOverdrawMaintenance 0
scalar OsgEarthNet.uav[35] utilizationCountMissions 1
scalar OsgEarthNet.uav[35] utilizationCountManeuversMission 13
scalar OsgEarthNet.uav[35] utilizationCountManeuversMaintenance 2
scalar OsgEarthNet.uav[35] utilizationCountChargeState 1
scalar OsgEarthNet.uav[35] utilizationCountOverdrawnAfterMission 0
scalar OsgEarthNet.uav[35] utilizationCountIdleState 2
scalar OsgEarthNet.uav[35] utilizationFail 0
scalar OsgEarthNet.uav[35] simulationTime 259200
scalar OsgEarthNet.uav[36] utilizationSecMission 3081.5852579169
scalar OsgEarthNet.uav[36] utilizationSecMaintenance 1297.3702786946
scalar OsgEarthNet.uav[36] utilizationSecCharge 16560
scalar OsgEarthNet.uav[36] utilizationSecIdle 238261.04346339
scalar OsgEarthNet.uav[36] utilizationEnergyMission 14078.683273315
scalar OsgEarthNet.uav[36] utilizationEnergyMaintenance 5884.0253982544
scalar OsgEarthNet.uav[36] utilizationEnergyCharge 19859.853515625
scalar OsgEarthNet.uav[36] utilizationEnergyOverdrawMission 0
scalar OsgEarthNet.uav[36] utilizationEnergyOverdrawMaintenance 0
scalar OsgEarthNet.uav[36] utilizationCountMissions 5
scalar OsgEarthNet.uav[36] utilizationCountManeuversMission 49
scalar OsgEarthNet.uav[36] utilizationCountManeuversMaintenance 10
scalar OsgEarthNet.uav[36] utilizationCountChargeState 5
scalar OsgEarthNet.uav[36] utilizationCountOverdrawnAfterMission 0
scalar OsgEarthNet.uav[36] utilizationCountIdleState 6
scalar OsgEarthNet.uav[36] utilizationFail 0
scalar OsgEarthNet.uav[36] simulationTime 259200
scalar OsgEarthNet.uav[37] utilizationSecMission 25568.500389682
scalar OsgEarthNet.uav[37] utilizationSecMaintenance 13899.693859682
scalar OsgEarthNet.uav[37] utilizationSecCharge 151537.10005094
scalar OsgEarthNet.uav[37] utilizationSecIdle 68194.704699697
scalar OsgEarthNet.uav[37] utilizationEnergyMission 117476.46366882
scalar OsgEarthNet.uav[37] utilizationEnergyMaintenance 65576.600284576
scalar OsgEarthNet.uav[37] utilizationEnergyCharge 179590.17895508
scalar OsgEarthNet.uav[37] utilizationEnergyOverdrawMission 0
scalar OsgEarthNet.uav[37] utilizationEnergyOverdrawMaintenance 0
scalar OsgEarthNet.uav[37] utilizationCountMissions 48
scalar OsgEarthNet.uav[37] utilizationCountManeuversMission 429
scalar OsgEarthNet.uav[37] utilizationCountManeuversMaintenance 96
scalar OsgEarthNet.uav[37] utilizationCountChargeState 48
scalar OsgEarthNet.uav[37] utilizationCountOverdrawnAfterMission 0
scalar OsgEarthNet.uav[37] utilizationCountIdleState 48
scalar OsgEarthNet.uav[37] utilizationFail 0
scalar OsgEarthNet.uav[37] simulationTime 259200
scalar OsgEarthNet.uav[38] utilizationSecMission 750.20472747826
scalar OsgEarthNet.uav[38] utilizationSecMaintenance 218.84515192887
scalar OsgEarthNet.uav[38] utilizationSecCharge 3690
scalar OsgEarthNet.uav[38] utilizationSecIdle 254540.94912059
scalar OsgEarthNet.uav[38] utilizationEnergyMission 3573.5121002197
scalar OsgEarthNet.uav[38] utilizationEnergyMaintenance 1039.6153793335
scalar OsgEarthNet.uav[38] utilizationEnergyCharge 4603.4116210938
scalar OsgEarthNet.uav[38] utilizationEnergyOverdrawMission 0
scalar OsgEarthNet.uav[38] utilizationEnergyOverdrawMaintenance 0
scalar OsgEarthNet.uav[38] utilizationCountMissions 1
scalar OsgEarthNet.uav[38] utilizationCountManeuversMission 11
scalar OsgEarthNet.uav[38] utilizationCountManeuversMaintenance 2
scalar OsgEarthNet.uav[38] utilizationCountChargeState 1
scalar OsgEarthNet.uav[38] utilizationCountOverdrawnAfterMission 0
scalar OsgEarthNet.uav[38] utilizationCountIdleState 2
scalar OsgEarthNet.uav[38] utilizationFail 0
scalar OsgEarthNet.uav[38] simulationTime 259200
scalar OsgEarthNet.uav[39] utilizationSecMission 570.98871244881
scalar OsgEarthNet.uav[39] utilizationSecMaintenance 276.2282017063
scalar OsgEarthNet.uav[39] utilizationSecCharge 3380
scalar OsgEarthNet.uav[39] utilizationSecIdle 254972.78208584
scalar OsgEarthNet.uav[39] utilizationEnergyMission 2720.4316253662
scalar OsgEarthNet.uav[39] utilizationEnergyMaintenance 1357.5203971863
scalar OsgEarthNet.uav[39] utilizationEnergyCharge 4077.951171875
scalar OsgEarthNet.uav[39] utilizationEnergyOverdrawMission 0
scalar OsgEarthNet.uav[39] utilizationEnergyOverdrawMaintenance 0
scalar OsgEarthNet.uav[39] utilizationCountMissions 1
scalar OsgEarthNet.uav[39] utilizationCountManeuversMission 8
scalar OsgEarthNet.uav[39] utilizationCountManeuversMaintenance 2
scalar OsgEarthNet.uav[39] utilizationCountChargeState 1
scalar OsgEarthNet.uav[39] utilizationCountOverdrawnAfterMission 0
scalar OsgEarthNet.uav[39] utilizationCountIdleState 2
scalar OsgEarthNet.uav[39] utilizationFail 0
scalar OsgEarthNet.uav[39] simulationTime 259200
scalar OsgEarthNet.uav[40] utilizationSecMission 28634.552528576
scalar OsgEarthNet.uav[40] utilizationSecMaintenance 13156.696576924
scalar OsgEarthNet.uav[40] utilizationSecCharge 159753.20298524
scalar OsgEarthNet.uav[40] utilizationSecIdle 57655.546909258
scalar OsgEarthNet.uav[40] utilizationEnergyMission 132568.16548157
scalar OsgEarthNet.uav[40] utilizationEnergyMaintenance 63159.808383942
scalar OsgEarthNet.uav[40] utilizationEnergyCharge 195182.72021484
scalar OsgEarthNet.uav[40] utilizationEnergyOverdrawMission 0
scalar OsgEarthNet.uav[40] utilizationEnergyOverdrawMaintenance 0
scalar OsgEarthNet.uav[40] utilizationCountMissions 47
scalar OsgEarthNet.uav[40] utilizationCountManeuversMission 466
scalar OsgEarthNet.uav[40] utilizationCountManeuversMaintenance 94
scalar OsgEarthNet.uav[40] utilizationCountChargeState 47
scalar OsgEarthNet.uav[40] utilizationCountOverdrawnAfterMission 0
scalar OsgEarthNet.uav[40] utilizationCountIdleState 47
scalar OsgEarthNet.uav[40] utilizationFail 0
scalar OsgEarthNet.uav[40] simulationTime 259200
scalar OsgEarthNet.uav[41] utilizationSecMission 28662.830013893
scalar OsgEarthNet.uav[41] utilizationSecMaintenance 13324.105091039
scalar OsgEarthNet.uav[41] utilizationSecCharge 160920
scalar OsgEarthNet.uav[41] utilizationSecIdle 56293.063895068
scalar OsgEarthNet.uav[41] utilizationEnergyMission 132368.65690613
scalar OsgEarthNet.uav[41] utilizationEnergyMaintenance 63728.742824554
scalar OsgEarthNet.uav[41] utilizationEnergyCharge 195825.21557617
scalar OsgEarthNet.uav[41] utilizationEnergyOverdrawMission 0
scalar OsgEarthNet.uav[41] utilizationEnergyOverdrawMaintenance 0
scalar OsgEarthNet.uav[41] utilizationCountMissions 47
scalar OsgEarthNet.uav[41] utilizationCountManeuversMission 487
scalar OsgEarthNet.uav[41] utilizationCountManeuversMaintenance 94
scalar OsgEarthNet.uav[41] utilizationCountChargeState 47
scalar OsgEarthNet.uav[41] utilizationCountOverdrawnAfterMission 0
scalar OsgEarthNet.uav[41] utilizationCountIdleState 48
scalar OsgEarthNet.uav[41] utilizationFail 0
scalar OsgEarthNet.uav[41] simulationTime 259200
scalar OsgEarthNet.uav[42] utilizationSecMission 29451.934650707
scalar OsgEarthNet.uav[42] utilizationSecMaintenance 10587.603317006
scalar OsgEarthNet.uav[42] utilizationSecCharge 149913.80772296
scalar OsgEarthNet.uav[42] utilizationSecIdle 69246.653309323
scalar OsgEarthNet.uav[42] utilizationEnergyMission 136913.95514679
scalar OsgEarthNet.uav[42] utilizationEnergyMaintenance 49302.261802673
scalar OsgEarthNet.uav[42] utilizationEnergyCharge 186130.625
scalar OsgEarthNet.uav[42] utilizationEnergyOverdrawMission 0
scalar OsgEarthNet.uav[42] utilizationEnergyOverdrawMaintenance 0
scalar OsgEarthNet.uav[42] utilizationCountMissions 42
scalar OsgEarthNet.uav[42] utilizationCountManeuversMission 476
scalar OsgEarthNet.uav[42] utilizationCountManeuversMaintenance 84
scalar OsgEarthNet.uav[42] utilizationCountChargeState 42
scalar OsgEarthNet.uav[42] utilizationCountOverdrawnAfterMission 0
scalar OsgEarthNet.uav[42] utilizationCountIdleState 42
scalar OsgEarthNet.uav[42] utilizationFail 0
scalar OsgEarthNet.uav[42] simulationTime 259200
scalar OsgEarthNet.uav[43] utilizationSecMission 18255.663717792
scalar OsgEarthNet.uav[43] utilizationSecMaintenance 8674.9888103327
scalar OsgEarthNet.uav[43] utilizationSecCharge 104200
scalar OsgEarthNet.uav[43] utilizationSecIdle 128069.34647187
scalar OsgEarthNet.uav[43] utilizationEnergyMission 84540.368370056
scalar OsgEarthNet.uav[43] utilizationEnergyMaintenance 41428.607696533
scalar OsgEarthNet.uav[43] utilizationEnergyCharge 125883.49072266
scalar OsgEarthNet.uav[43] utilizationEnergyOverdrawMission 0
scalar OsgEarthNet.uav[43] utilizationEnergyOverdrawMaintenance 0
scalar OsgEarthNet.uav[43] utilizationCountMissions 31
scalar OsgEarthNet.uav[43] utilizationCountManeuversMission 301
scalar OsgEarthNet.uav[43] utilizationCountManeuversMaintenance 62
scalar OsgEarthNet.uav[43] utilizationCountChargeState 31
scalar OsgEarthNet.uav[43] utilizationCountOverdrawnAfterMission 0
scalar OsgEarthNet.uav[43] utilizationCountIdleState 32
scalar OsgEarthNet.uav[43] utilizationFail 0
scalar OsgEarthNet.uav[43] simulationTime 259200
scalar OsgEarthNet.uav[44] utilizationSecMission 21652.740856204
scalar OsgEarthNet.uav[44] utilizationSecMaintenance 7875.0972382598
scalar OsgEarthNet.uav[44] utilizationSecCharge 110880
scalar OsgEarthNet.uav[44] utilizationSecIdle 118792.16090554
scalar OsgEarthNet.uav[44] utilizationEnergyMission 100531.64120865
scalar OsgEarthNet.uav[44] utilizationEnergyMaintenance 36610.357566834
scalar OsgEarthNet.uav[44] utilizationEnergyCharge 137309.75439453
scalar OsgEarthNet.uav[44] utilizationEnergyOverdrawMission 0
scalar OsgEarthNet.uav[44] utilizationEnergyOverdrawMaintenance 0
scalar OsgEarthNet.uav[44] utilizationCountMissions 31
scalar OsgEarthNet.uav[44] utilizationCountManeuversMission 352
scalar OsgEarthNet.uav[44] utilizationCountManeuversMaintenance 62
scalar OsgEarthNet.uav[44] utilizationCountChargeState 31
scalar OsgEarthNet.uav[44] utilizationCountOverdrawnAfterMission 0
scalar OsgEarthNet.uav[44] utilizationCountIdleState 32
scalar OsgEarthNet.uav[44] utilizationFail 0
scalar OsgEarthNet.uav[44] simulationTime 259200
scalar OsgEarthNet.uav[45] utilizationSecMission 887.1741082606
scalar OsgEarthNet.uav[45] utilizationSecMaintenance 171.13387461676
scalar OsgEarthNet.uav[45] utilizationSecCharge 3850
scalar OsgEarthNet.uav[45] utilizationSecIdle 254291.69101712
scalar OsgEarthNet.uav[45] utilizationEnergyMission 4312.8199157715
scalar OsgEarthNet.uav[45] utilizationEnergyMaintenance 760.85659027099
scalar OsgEarthNet.uav[45] utilizationEnergyCharge 4852.603515625
scalar OsgEarthNet.uav[45] utilizationEnergyOverdrawMission 0
scalar OsgEarthNet.uav[45] utilizationEnergyOverdrawMaintenance 0
scalar OsgEarthNet.uav[45] utilizationCountMissions 1
scalar OsgEarthNet.uav[45] utilizationCountManeuversMission 14
scalar OsgEarthNet.uav[45] utilizationCountManeuversMaintenance 2
scalar OsgEarthNet.uav[45] utilizationCountChargeState 1
scalar OsgEarthNet.uav[45] utilizationCountOverdrawnAfterMission 0
scalar OsgEarthNet.uav[45] utilizationCountIdleState 2
scalar OsgEarthNet.uav[45] utilizationFail 0
scalar OsgEarthNet.uav[45] simulationTime 259200
scalar OsgEarthNet.uav[46] utilizationSecMission 29842.839664359
scalar OsgEarthNet.uav[46] utilizationSecMaintenance 13170.564392612
scalar OsgEarthNet.uav[46] utilizationSecCharge 162734.59494303
scalar OsgEarthNet.uav[46] utilizationSecIdle 53452
scalar OsgEarthNet.uav[46] utilizationEnergyMission 137730.30238339
scalar OsgEarthNet.uav[46] utilizationEnergyMaintenance 62373.669197083
scalar OsgEarthNet.uav[46] utilizationEnergyCharge 199169.63061523
scalar OsgEarthNet.uav[46] utilizationEnergyOverdrawMission 0
scalar OsgEarthNet.uav[46] utilizationEnergyOverdrawMaintenance 0
scalar OsgEarthNet.uav[46] utilizationCountMissions 48
scalar OsgEarthNet.uav[46] utilizationCountManeuversMission 482
scalar OsgEarthNet.uav[46] utilizationCountManeuversMaintenance 95
scalar OsgEarthNet.uav[46] utilizationCountChargeState 48
scalar OsgEarthNet.uav[46] utilizationCountOverdrawnAfterMission 0
scalar OsgEarthNet.uav[46] utilizationCountIdleState 48
scalar OsgEarthNet.uav[46] utilizationFail 0
scalar OsgEarthNet.uav[46] simulationTime 259200
scalar OsgEarthNet.uav[47] utilizationSecMission 28935.877662337
scalar OsgEarthNet.uav[47] utilizationSecMaintenance 11563.650321006
scalar OsgEarthNet.uav[47] utilizationSecCharge 150839.4142208
scalar OsgEarthNet.uav[47] utilizationSecIdle 67861.056795854
scalar OsgEarthNet.uav[47] utilizationEnergyMission 132898.08096313
scalar OsgEarthNet.uav[47] utilizationEnergyMaintenance 52780.410636902
scalar OsgEarthNet.uav[47] utilizationEnergyCharge 185479.83496094
scalar OsgEarthNet.uav[47] utilizationEnergyOverdrawMission 0
scalar OsgEarthNet.uav[47] utilizationEnergyOverdrawMaintenance 0
scalar OsgEarthNet.uav[47] utilizationCountMissions 43
scalar OsgEarthNet.uav[47] utilizationCountManeuversMission 472
scalar OsgEarthNet.uav[47] utilizationCountManeuversMaintenance 86
scalar OsgEarthNet.uav[47] utilizationCountChargeState 43
scalar OsgEarthNet.uav[47] utilizationCountOverdrawnAfterMission 0
scalar OsgEarthNet.uav[47] utilizationCountIdleState 43
scalar OsgEarthNet.uav[47] utilizationFail 0
scalar OsgEarthNet.uav[47] simulationTime 259200
scalar OsgEarthNet.uav[48] utilizationSecMission 30943.522261329
scalar OsgEarthNet.uav[48] utilizationSecMaintenance 10065.353334663
scalar OsgEarthNet.uav[48] utilizationSecCharge 154329.12340401
scalar OsgEarthNet.uav[48] utilizationSecIdle 63862
scalar OsgEarthNet.uav[48] utilizationEnergyMission 144047.03351392
scalar OsgEarthNet.uav[48] utilizationEnergyMaintenance 48410.164012909
scalar OsgEarthNet.uav[48] utilizationEnergyCharge 189838.27050781
scalar OsgEarthNet.uav[48] utilizationEnergyOverdrawMission 0
scalar OsgEarthNet.uav[48] utilizationEnergyOverdrawMaintenance 0
scalar OsgEarthNet.uav[48] utilizationCountMissions 45
scalar OsgEarthNet.uav[48] utilizationCountManeuversMission 485
scalar OsgEarthNet.uav[48] utilizationCountManeuversMaintenance 89
scalar OsgEarthNet.uav[48] utilizationCountChargeState 45
scalar OsgEarthNet.uav[48] utilizationCountOverdrawnAfterMission 0
scalar OsgEarthNet.uav[48] utilizationCountIdleState 45
scalar OsgEarthNet.uav[48] utilizationFail 0
scalar OsgEarthNet.uav[48] simulationTime 259200
scalar OsgEarthNet.uav[49] utilizationSecMission 213.40226662092
scalar OsgEarthNet.uav[49] utilizationSecMaintenance 474.30151219871
scalar OsgEarthNet.uav[49] utilizationSecCharge 2910
scalar OsgEarthNet.uav[49] utilizationSecIdle 255602.29522118
scalar OsgEarthNet.uav[49] utilizationEnergyMission 921.57713317871
scalar OsgEarthNet.uav[49] utilizationEnergyMaintenance 2376.8109359741
scalar OsgEarthNet.uav[49] utilizationEnergyCharge 3298.3857421875
scalar OsgEarthNet.uav[49] utilizationEnergyOverdrawMission 0
scalar OsgEarthNet.uav[49] utilizationEnergyOverdrawMaintenance 0
scalar OsgEarthNet.uav[49] utilizationCountMissions 1
scalar OsgEarthNet.uav[49] utilizationCountManeuversMission 3
scalar OsgEarthNet.uav[49] utilizationCountManeuversMaintenance 2
scalar OsgEarthNet.uav[49] utilizationCountChargeState 1
scalar OsgEarthNet.uav[49] utilizationCountOverdrawnAfterMission 0
scalar OsgEarthNet.uav[49] utilizationCountIdleState 2
scalar OsgEarthNet.uav[49] utilizationFail 0
scalar OsgEarthNet.uav[49] simulationTime 259200
scalar OsgEarthNet.uav[50] utilizationSecMission 213.40226662092
scalar OsgEarthNet.uav[50] utilizationSecMaintenance 474.30151219871
scalar OsgEarthNet.uav[50] utilizationSecCharge 2830
scalar OsgEarthNet.uav[50] utilizationSecIdle 255682.29522118
scalar OsgEarthNet.uav[50] utilizationEnergyMission 866.08753967285
scalar OsgEarthNet.uav[50] utilizationEnergyMaintenance 2251.2123031616
scalar OsgEarthNet.uav[50] utilizationEnergyCharge 3117.2939453125
scalar OsgEarthNet.uav[50] utilizationEnergyOverdrawMission 0
scalar OsgEarthNet.uav[50] utilizationEnergyOverdrawMaintenance 0
scalar OsgEarthNet.uav[50] utilizationCountMissions 1
scalar OsgEarthNet.uav[50] utilizationCountManeuversMission 3
scalar OsgEarthNet.uav[50] utilizationCountManeuversMaintenance 2
scalar OsgEarthNet.uav[50] utilizationCountChargeState 1
scalar OsgEarthNet.uav[50] utilizationCountOverdrawnAfterMission 0
scalar OsgEarthNet.uav[50] utilizationCountIdleState 2
scalar OsgEarthNet.uav[50] utilizationFail 0
scalar OsgEarthNet.uav[50] simulationTime 259200
scalar OsgEarthNet.uav[51] utilizationSecMission 29446.351052908
scalar OsgEarthNet.uav[51] utilizationSecMaintenance 12104.505732165
scalar OsgEarthNet.uav[51] utilizationSecCharge 156347.14221493
scalar OsgEarthNet.uav[51] utilizationSecIdle 61302
scalar OsgEarthNet.uav[51] utilizationEnergyMission 136436.24074554
scalar OsgEarthNet.uav[51] utilizationEnergyMaintenance 56912.030261993
scalar OsgEarthNet.uav[51] utilizationEnergyCharge 192367.90307617
scalar OsgEarthNet.uav[51] utilizationEnergyOverdrawMission 0
scalar OsgEarthNet.uav[51] utilizationEnergyOverdrawMaintenance 0
scalar OsgEarthNet.uav[51] utilizationCountMissions 45
scalar OsgEarthNet.uav[51] utilizationCountManeuversMission 471
scalar OsgEarthNet.uav[51] utilizationCountManeuversMaintenance 89
scalar OsgEarthNet.uav[51] utilizationCountChargeState 45
scalar OsgEarthNet.uav[51] utilizationCountOverdrawnAfterMission 0
scalar OsgEarthNet.uav[51] utilizationCountIdleState 45
scalar OsgEarthNet.uav[51] utilizationFail 0
scalar OsgEarthNet.uav[51] simulationTime 259200
scalar OsgEarthNet.uav[52] utilizationSecMission 32029.658224143
scalar OsgEarthNet.uav[52] utilizationSecMaintenance 10756.306575376
scalar OsgEarthNet.uav[52] utilizationSecCharge 160100
scalar OsgEarthNet.uav[52] utilizationSecIdle 56314.034200481
scalar OsgEarthNet.uav[52] utilizationEnergyMission 147270.19139941
scalar OsgEarthNet.uav[52] utilizationEnergyMaintenance 50508.421325684
scalar OsgEarthNet.uav[52] utilizationEnergyCharge 197870.48510742
scalar OsgEarthNet.uav[52] utilizationEnergyOverdrawMission 0
scalar OsgEarthNet.uav[52] utilizationEnergyOverdrawMaintenance 0
scalar OsgEarthNet.uav[52] utilizationCountMissions 45
scalar OsgEarthNet.uav[52] utilizationCountManeuversMission 516
scalar OsgEarthNet.uav[52] utilizationCountManeuversMaintenance 89
scalar OsgEarthNet.uav[52] utilizationCountChargeState 45
scalar OsgEarthNet.uav[52] utilizationCountOverdrawnAfterMission 0
scalar OsgEarthNet.uav[52] utilizationCountIdleState 46
scalar OsgEarthNet.uav[52] utilizationFail 0
scalar OsgEarthNet.uav[52] simulationTime 259200
scalar OsgEarthNet.uav[53] utilizationSecMission 332.13845170574
scalar OsgEarthNet.uav[53] utilizationSecMaintenance 371.50440930603
scalar OsgEarthNet.uav[53] utilizationSecCharge 2890
scalar OsgEarthNet.uav[53] utilizationSecIdle 255606.35613899
scalar OsgEarthNet.uav[53] utilizationEnergyMission 1558.9111633301
scalar OsgEarthNet.uav[53] utilizationEnergyMaintenance 1668.1981430054
scalar OsgEarthNet.uav[53] utilizationEnergyCharge 3227.1064453125
scalar OsgEarthNet.uav[53] utilizationEnergyOverdrawMission 0
scalar OsgEarthNet.uav[53] utilizationEnergyOverdrawMaintenance 0
scalar OsgEarthNet.uav[53] utilizationCountMissions 1
scalar OsgEarthNet.uav[53] utilizationCountManeuversMission 5
scalar OsgEarthNet.uav[53] utilizationCountManeuversMaintenance 2
scalar OsgEarthNet.uav[53] utilizationCountChargeState 1
scalar OsgEarthNet.uav[53] utilizationCountOverdrawnAfterMission 0
scalar OsgEarthNet.uav[53] utilizationCountIdleState 2
scalar OsgEarthNet.uav[53] utilizationFail 0
scalar OsgEarthNet.uav[53] simulationTime 259200
scalar OsgEarthNet.uav[54] utilizationSecMission 26284.634686618
scalar OsgEarthNet.uav[54] utilizationSecMaintenance 11721.697134733
scalar OsgEarthNet.uav[54] utilizationSecCharge 143150
scalar OsgEarthNet.uav[54] utilizationSecIdle 78043.667178648
scalar OsgEarthNet.uav[54] utilizationEnergyMission 122154.98553615
scalar OsgEarthNet.uav[54] utilizationEnergyMaintenance 55243.026454926
scalar OsgEarthNet.uav[54] utilizationEnergyCharge 173872.61621094
scalar OsgEarthNet.uav[54] utilizationEnergyOverdrawMission 0
scalar OsgEarthNet.uav[54] utilizationEnergyOverdrawMaintenance 0
scalar OsgEarthNet.uav[54] utilizationCountMissions 42
scalar OsgEarthNet.uav[54] utilizationCountManeuversMission 432
scalar OsgEarthNet.uav[54] utilizationCountManeuversMaintenance 85
scalar OsgEarthNet.uav[54] utilizationCountChargeState 42
scalar OsgEarthNet.uav[54] utilizationCountOverdrawnAfterMission 0
scalar OsgEarthNet.uav[54] utilizationCountIdleState 43
scalar OsgEarthNet.uav[54] utilizationFail 0
scalar OsgEarthNet.uav[54] simulationTime 259200
scalar OsgEarthNet.uav[55] utilizationSecMission 6930.9705907789
scalar OsgEarthNet.uav[55] utilizationSecMaintenance 4019.3173806596
scalar OsgEarthNet.uav[55] utilizationSecCharge 41990
scalar OsgEarthNet.uav[55] utilizationSecIdle 206259.71102856
scalar OsgEarthNet.uav[55] utilizationEnergyMission 32434.294242859
scalar OsgEarthNet.uav[55] utilizationEnergyMaintenance 18691.549667358
scalar OsgEarthNet.uav[55] utilizationEnergyCharge 51441.495605469
scalar OsgEarthNet.uav[55] utilizationEnergyOverdrawMission 0
scalar OsgEarthNet.uav[55] utilizationEnergyOverdrawMaintenance 0
scalar OsgEarthNet.uav[55] utilizationCountMissions 12
scalar OsgEarthNet.uav[55] utilizationCountManeuversMission 111
scalar OsgEarthNet.uav[55] utilizationCountManeuversMaintenance 24
scalar OsgEarthNet.uav[55] utilizationCountChargeState 12
scalar OsgEarthNet.uav[55] utilizationCountOverdrawnAfterMission 0
scalar OsgEarthNet.uav[55] utilizationCountIdleState 13
scalar OsgEarthNet.uav[55] utilizationFail 0
scalar OsgEarthNet.uav[55] simulationTime 259200
scalar OsgEarthNet.uav[56] utilizationSecMission 750.20472747826
scalar OsgEarthNet.uav[56] utilizationSecMaintenance 261.68051383311
scalar OsgEarthNet.uav[56] utilizationSecCharge 3830
scalar OsgEarthNet.uav[56] utilizationSecIdle 254358.11375869
scalar OsgEarthNet.uav[56] utilizationEnergyMission 3673.1764068603
scalar OsgEarthNet.uav[56] utilizationEnergyMaintenance 1223.9274406433
scalar OsgEarthNet.uav[56] utilizationEnergyCharge 4897.10546875
scalar OsgEarthNet.uav[56] utilizationEnergyOverdrawMission 0
scalar OsgEarthNet.uav[56] utilizationEnergyOverdrawMaintenance 0
scalar OsgEarthNet.uav[56] utilizationCountMissions 1
scalar OsgEarthNet.uav[56] utilizationCountManeuversMission 11
scalar OsgEarthNet.uav[56] utilizationCountManeuversMaintenance 2
scalar OsgEarthNet.uav[56] utilizationCountChargeState 1
scalar OsgEarthNet.uav[56] utilizationCountOverdrawnAfterMission 0
scalar OsgEarthNet.uav[56] utilizationCountIdleState 2
scalar OsgEarthNet.uav[56] utilizationFail 0
scalar OsgEarthNet.uav[56] simulationTime 259200
scalar OsgEarthNet.uav[57] utilizationSecMission 27934.437096819
scalar OsgEarthNet.uav[57] utilizationSecMaintenance 11046.401254408
scalar OsgEarthNet.uav[57] utilizationSecCharge 146021.75175676
scalar OsgEarthNet.uav[57] utilizationSecIdle 74197.408892011
scalar OsgEarthNet.uav[57] utilizationEnergyMission 129128.54907227
scalar OsgEarthNet.uav[57] utilizationEnergyMaintenance 52137.283439636
scalar OsgEarthNet.uav[57] utilizationEnergyCharge 180951.81591797
scalar OsgEarthNet.uav[57] utilizationEnergyOverdrawMission 0
scalar OsgEarthNet.uav[57] utilizationEnergyOverdrawMaintenance 0
scalar OsgEarthNet.uav[57] utilizationCountMissions 41
scalar OsgEarthNet.uav[57] utilizationCountManeuversMission 456
scalar OsgEarthNet.uav[57] utilizationCountManeuversMaintenance 82
scalar OsgEarthNet.uav[57] utilizationCountChargeState 41
scalar OsgEarthNet.uav[57] utilizationCountOverdrawnAfterMission 0
scalar OsgEarthNet.uav[57] utilizationCountIdleState 41
scalar OsgEarthNet.uav[57] utilizationFail 0
scalar OsgEarthNet.uav[57] simulationTime 259200
scalar OsgEarthNet.uav[58] utilizationSecMission 22138.206670818
scalar OsgEarthNet.uav[58] utilizationSecMaintenance 9899.9985723548
scalar OsgEarthNet.uav[58] utilizationSecCharge 120054.89198588
scalar OsgEarthNet.uav[58] utilizationSecIdle 107106.90177095
scalar OsgEarthNet.uav[58] utilizationEnergyMission 103451.98849106
scalar OsgEarthNet.uav[58] utilizationEnergyMaintenance 46787.204936981
scalar OsgEarthNet.uav[58] utilizationEnergyCharge 146111.23022461
scalar OsgEarthNet.uav[58] utilizationEnergyOverdrawMission 0
scalar OsgEarthNet.uav[58] utilizationEnergyOverdrawMaintenance 0
scalar OsgEarthNet.uav[58] utilizationCountMissions 36
scalar OsgEarthNet.uav[58] utilizationCountManeuversMission 365
scalar OsgEarthNet.uav[58] utilizationCountManeuversMaintenance 72
scalar OsgEarthNet.uav[58] utilizationCountChargeState 36
scalar OsgEarthNet.uav[58] utilizationCountOverdrawnAfterMission 0
scalar OsgEarthNet.uav[58] utilizationCountIdleState 36
scalar OsgEarthNet.uav[58] utilizationFail 0
scalar OsgEarthNet.uav[58] simulationTime 259200
scalar OsgEarthNet.uav[59] utilizationSecMission 684.4732299383
scalar OsgEarthNet.uav[59] utilizationSecMaintenance 298.56834692969
scalar OsgEarthNet.uav[59] utilizationSecCharge 3800
scalar OsgEarthNet.uav[59] utilizationSecIdle 254416.95742313
scalar OsgEarthNet.uav[59] utilizationEnergyMission 3323.9541778564
scalar OsgEarthNet.uav[59] utilizationEnergyMaintenance 1534.4695663452
scalar OsgEarthNet.uav[59] utilizationEnergyCharge 4858.4194335938
scalar OsgEarthNet.uav[59] utilizationEnergyOverdrawMission 0
scalar OsgEarthNet.uav[59] utilizationEnergyOverdrawMaintenance 0
scalar OsgEarthNet.uav[59] utilizationCountMissions 1
scalar OsgEarthNet.uav[59] utilizationCountManeuversMission 11
scalar OsgEarthNet.uav[59] utilizationCountManeuversMaintenance 2
scalar OsgEarthNet.uav[59] utilizationCountChargeState 1
scalar OsgEarthNet.uav[59] utilizationCountOverdrawnAfterMission 0
scalar OsgEarthNet.uav[59] utilizationCountIdleState 2
scalar OsgEarthNet.uav[59] utilizationFail 0
scalar OsgEarthNet.uav[59] simulationTime 259200
scalar OsgEarthNet.uav[60] utilizationSecMission 760.62515258028
scalar OsgEarthNet.uav[60] utilizationSecMaintenance 245.74410321072
scalar OsgEarthNet.uav[60] utilizationSecCharge 3660
scalar OsgEarthNet.uav[60] utilizationSecIdle 254533.62974421
scalar OsgEarthNet.uav[60] utilizationEnergyMission 3531.8214416504
scalar OsgEarthNet.uav[60] utilizationEnergyMaintenance 1028.20054245
scalar OsgEarthNet.uav[60] utilizationEnergyCharge 4560.021484375
scalar OsgEarthNet.uav[60] utilizationEnergyOverdrawMission 0
scalar OsgEarthNet.uav[60] utilizationEnergyOverdrawMaintenance 0
scalar OsgEarthNet.uav[60] utilizationCountMissions 1
scalar OsgEarthNet.uav[60] utilizationCountManeuversMission 12
scalar OsgEarthNet.uav[60] utilizationCountManeuversMaintenance 2
scalar OsgEarthNet.uav[60] utilizationCountChargeState 1
scalar OsgEarthNet.uav[60] utilizationCountOverdrawnAfterMission 0
scalar OsgEarthNet.uav[60] utilizationCountIdleState 2
scalar OsgEarthNet.uav[60] utilizationFail 0
scalar OsgEarthNet.uav[60] simulationTime 259200
scalar OsgEarthNet.uav[61] utilizationSecMission 13607.535880455
scalar OsgEarthNet.uav[61] utilizationSecMaintenance 6848.0962309622
scalar OsgEarthNet.uav[61] utilizationSecCharge 79362.04419978
scalar OsgEarthNet.uav[61] utilizationSecIdle 159382.3226888
scalar OsgEarthNet.uav[61] utilizationEnergyMission 63520.530250549
scalar OsgEarthNet.uav[61] utilizationEnergyMaintenance 33313.736442566
scalar OsgEarthNet.uav[61] utilizationEnergyCharge 95210.517822266
scalar OsgEarthNet.uav[61] utilizationEnergyOverdrawMission 0
scalar OsgEarthNet.uav[61] utilizationEnergyOverdrawMaintenance 0
scalar OsgEarthNet.uav[61] utilizationCountMissions 25
scalar OsgEarthNet.uav[61] utilizationCountManeuversMission 232
scalar OsgEarthNet.uav[61] utilizationCountManeuversMaintenance 50
scalar OsgEarthNet.uav[61] utilizationCountChargeState 25
scalar OsgEarthNet.uav[61] utilizationCountOverdrawnAfterMission 0
scalar OsgEarthNet.uav[61] utilizationCountIdleState 25
scalar OsgEarthNet.uav[61] utilizationFail 0
scalar OsgEarthNet.uav[61] simulationTime 259200
scalar OsgEarthNet.uav[62] utilizationSecMission 750.20472747826
scalar OsgEarthNet.uav[62] utilizationSecMaintenance 218.84515192887
scalar OsgEarthNet.uav[62] utilizationSecCharge 3650
scalar OsgEarthNet.uav[62] utilizationSecIdle 254580.94912059
scalar OsgEarthNet.uav[62] utilizationEnergyMission 3537.3346252441
scalar OsgEarthNet.uav[62] utilizationEnergyMaintenance 1002.4066085815
scalar OsgEarthNet.uav[62] utilizationEnergyCharge 4539.7392578125
scalar OsgEarthNet.uav[62] utilizationEnergyOverdrawMission 0
scalar OsgEarthNet.uav[62] utilizationEnergyOverdrawMaintenance 0
scalar OsgEarthNet.uav[62] utilizationCountMissions 1
scalar OsgEarthNet.uav[62] utilizationCountManeuversMission 11
scalar OsgEarthNet.uav[62] utilizationCountManeuversMaintenance 2
scalar OsgEarthNet.uav[62] utilizationCountChargeState 1
scalar OsgEarthNet.uav[62] utilizationCountOverdrawnAfterMission 0
scalar OsgEarthNet.uav[62] utilizationCountIdleState 2
scalar OsgEarthNet.uav[62] utilizationFail 0
scalar OsgEarthNet.uav[62] simulationTime 259200
scalar OsgEarthNet.uav[63] utilizationSecMission 179.21601502944
scalar OsgEarthNet.uav[63] utilizationSecMaintenance 354.43405905663
scalar OsgEarthNet.uav[63] utilizationSecCharge 2400
scalar OsgEarthNet.uav[63] utilizationSecIdle 256266.34892591
scalar OsgEarthNet.uav[63] utilizationEnergyMission 757.07852172852
scalar OsgEarthNet.uav[63] utilizationEnergyMaintenance 1678.0162582397
scalar OsgEarthNet.uav[63] utilizationEnergyCharge 2435.0883789062
scalar OsgEarthNet.uav[63] utilizationEnergyOverdrawMission 0
scalar OsgEarthNet.uav[63] utilizationEnergyOverdrawMaintenance 0
scalar OsgEarthNet.uav[63] utilizationCountMissions 1
scalar OsgEarthNet.uav[63] utilizationCountManeuversMission 3
scalar OsgEarthNet.uav[63] utilizationCountManeuversMaintenance 2
scalar OsgEarthNet.uav[63] utilizationCountChargeState 1
scalar OsgEarthNet.uav[63] utilizationCountOverdrawnAfterMission 0
scalar OsgEarthNet.uav[63] utilizationCountIdleState 2
scalar OsgEarthNet.uav[63] utilizationFail 0
scalar OsgEarthNet.uav[63] simulationTime 259200
scalar OsgEarthNet.uav[64] utilizationSecMission 9452.2163453808
scalar OsgEarthNet.uav[64] utilizationSecMaintenance 4192.7557735018
scalar OsgEarthNet.uav[64] utilizationSecCharge 51880
scalar OsgEarthNet.uav[64] utilizationSecIdle 193675.02688112
scalar OsgEarthNet.uav[64] utilizationEnergyMission 43904.88180542
scalar OsgEarthNet.uav[64] utilizationEnergyMaintenance 19525.424456517
scalar OsgEarthNet.uav[64] utilizationEnergyCharge 63196.757324219
scalar OsgEarthNet.uav[64] utilizationEnergyOverdrawMission 0
scalar OsgEarthNet.uav[64] utilizationEnergyOverdrawMaintenance 0
scalar OsgEarthNet.uav[64] utilizationCountMissions 15
scalar OsgEarthNet.uav[64] utilizationCountManeuversMission 153
scalar OsgEarthNet.uav[64] utilizationCountManeuversMaintenance 31
scalar OsgEarthNet.uav[64] utilizationCountChargeState 15
scalar OsgEarthNet.uav[64] utilizationCountOverdrawnAfterMission 0
scalar OsgEarthNet.uav[64] utilizationCountIdleState 16
scalar OsgEarthNet.uav[64] utilizationFail 0
scalar OsgEarthNet.uav[64] simulationTime 259200
scalar OsgEarthNet.uav[65] utilizationSecMission 29808.818835762
scalar OsgEarthNet.uav[65] utilizationSecMaintenance 13148.182458927
[...]
scalar OsgEarthNet.uav[82] utilizationSecIdle 254351.69101712
scalar OsgEarthNet.uav[82] utilizationEnergyMission 4233.515548706
scalar OsgEarthNet.uav[82] utilizationEnergyMaintenance 670.54334259033
scalar OsgEarthNet.uav[82] utilizationEnergyCharge 4773.0434570312
scalar OsgEarthNet.uav[82] utilizationEnergyOverdrawMission 0
scalar OsgEarthNet.uav[82] utilizationEnergyOverdrawMaintenance 0
scalar OsgEarthNet.uav[82] utilizationCountMissions 1
scalar OsgEarthNet.uav[82] utilizationCountManeuversMission 14
scalar OsgEarthNet.uav[82] utilizationCountManeuversMaintenance 2
scalar OsgEarthNet.uav[82] utilizationCountChargeState 1
scalar OsgEarthNet.uav[82] utilizationCountOverdrawnAfterMission 0
scalar OsgEarthNet.uav[82] utilizationCountIdleState 2
scalar OsgEarthNet.uav[82] utilizationFail 0
scalar OsgEarthNet.uav[82] simulationTime 259200
scalar OsgEarthNet.uav[83] utilizationSecMission 735.14326557473
scalar OsgEarthNet.uav[83] utilizationSecMaintenance 350.53687742834
scalar OsgEarthNet.uav[83] utilizationSecCharge 3910
scalar OsgEarthNet.uav[83] utilizationSecIdle 254204.318857
scalar OsgEarthNet.uav[83] utilizationEnergyMission 3239.2612915039
scalar OsgEarthNet.uav[83] utilizationEnergyMaintenance 1686.3627548218
scalar OsgEarthNet.uav[83] utilizationEnergyCharge 5033.2763671875
scalar OsgEarthNet.uav[83] utilizationEnergyOverdrawMission 0
scalar OsgEarthNet.uav[83] utilizationEnergyOverdrawMaintenance 0
scalar OsgEarthNet.uav[83] utilizationCountMissions 1
scalar OsgEarthNet.uav[83] utilizationCountManeuversMission 11
scalar OsgEarthNet.uav[83] utilizationCountManeuversMaintenance 2
scalar OsgEarthNet.uav[83] utilizationCountChargeState 1
scalar OsgEarthNet.uav[83] utilizationCountOverdrawnAfterMission 0
scalar OsgEarthNet.uav[83] utilizationCountIdleState 2
scalar OsgEarthNet.uav[83] utilizationFail 0
scalar OsgEarthNet.uav[83] simulationTime 259200
scalar OsgEarthNet.uav[84] utilizationSecMission 22664.411940887
scalar OsgEarthNet.uav[84] utilizationSecMaintenance 10380.103016769
scalar OsgEarthNet.uav[84] utilizationSecCharge 125160
scalar OsgEarthNet.uav[84] utilizationSecIdle 100995.48404234
scalar OsgEarthNet.uav[84] utilizationEnergyMission 104556.80867004
scalar OsgEarthNet.uav[84] utilizationEnergyMaintenance 48761.612442017
scalar OsgEarthNet.uav[84] utilizationEnergyCharge 153418.42651367
scalar OsgEarthNet.uav[84] utilizationEnergyOverdrawMission 0
scalar OsgEarthNet.uav[84] utilizationEnergyOverdrawMaintenance 0
scalar OsgEarthNet.uav[84] utilizationCountMissions 36
scalar OsgEarthNet.uav[84] utilizationCountManeuversMission 380
scalar OsgEarthNet.uav[84] utilizationCountManeuversMaintenance 72
scalar OsgEarthNet.uav[84] utilizationCountChargeState 36
scalar OsgEarthNet.uav[84] utilizationCountOverdrawnAfterMission 0
scalar OsgEarthNet.uav[84] utilizationCountIdleState 37
scalar OsgEarthNet.uav[84] utilizationFail 0
scalar OsgEarthNet.uav[84] simulationTime 259200
scalar OsgEarthNet.uav[85] utilizationSecMission 694.00169469977
scalar OsgEarthNet.uav[85] utilizationSecMaintenance 223.34597234416
scalar OsgEarthNet.uav[85] utilizationSecCharge 3530
scalar OsgEarthNet.uav[85] utilizationSecIdle 254752.65133296
scalar OsgEarthNet.uav[85] utilizationEnergyMission 3166.8604736328
scalar OsgEarthNet.uav[85] utilizationEnergyMaintenance 1099.037853241
scalar OsgEarthNet.uav[85] utilizationEnergyCharge 4306.3452148438
scalar OsgEarthNet.uav[85] utilizationEnergyOverdrawMission 0
scalar OsgEarthNet.uav[85] utilizationEnergyOverdrawMaintenance 0
scalar OsgEarthNet.uav[85] utilizationCountMissions 1
scalar OsgEarthNet.uav[85] utilizationCountManeuversMission 13
scalar OsgEarthNet.uav[85] utilizationCountManeuversMaintenance 2
scalar OsgEarthNet.uav[85] utilizationCountChargeState 1
scalar OsgEarthNet.uav[85] utilizationCountOverdrawnAfterMission 0
scalar OsgEarthNet.uav[85] utilizationCountIdleState 2
scalar OsgEarthNet.uav[85] utilizationFail 0
scalar OsgEarthNet.uav[85] simulationTime 259200
scalar OsgEarthNet.uav[86] utilizationSecMission 21426.307951428
scalar OsgEarthNet.uav[86] utilizationSecMaintenance 12014.986799918
scalar OsgEarthNet.uav[86] utilizationSecCharge 127096.27012693
scalar OsgEarthNet.uav[86] utilizationSecIdle 98662.434121723
scalar OsgEarthNet.uav[86] utilizationEnergyMission 97767.485744476
scalar OsgEarthNet.uav[86] utilizationEnergyMaintenance 57248.804821014
scalar OsgEarthNet.uav[86] utilizationEnergyCharge 151396.43060303
scalar OsgEarthNet.uav[86] utilizationEnergyOverdrawMission 0
scalar OsgEarthNet.uav[86] utilizationEnergyOverdrawMaintenance 0
scalar OsgEarthNet.uav[86] utilizationCountMissions 40
scalar OsgEarthNet.uav[86] utilizationCountManeuversMission 355
scalar OsgEarthNet.uav[86] utilizationCountManeuversMaintenance 80
scalar OsgEarthNet.uav[86] utilizationCountChargeState 40
scalar OsgEarthNet.uav[86] utilizationCountOverdrawnAfterMission 0
scalar OsgEarthNet.uav[86] utilizationCountIdleState 40
scalar OsgEarthNet.uav[86] utilizationFail 0
scalar OsgEarthNet.uav[86] simulationTime 259200
scalar OsgEarthNet.uav[87] utilizationSecMission 553.12566654921
scalar OsgEarthNet.uav[87] utilizationSecMaintenance 489.82638271256
scalar OsgEarthNet.uav[87] utilizationSecCharge 3840
scalar OsgEarthNet.uav[87] utilizationSecIdle 254317.04695074
scalar OsgEarthNet.uav[87] utilizationEnergyMission 2441.3274536133
scalar OsgEarthNet.uav[87] utilizationEnergyMaintenance 2218.283000946
scalar OsgEarthNet.uav[87] utilizationEnergyCharge 4879.0151367188
scalar OsgEarthNet.uav[87] utilizationEnergyOverdrawMission 0
scalar OsgEarthNet.uav[87] utilizationEnergyOverdrawMaintenance 0
scalar OsgEarthNet.uav[87] utilizationCountMissions 1
scalar OsgEarthNet.uav[87] utilizationCountManeuversMission 9
scalar OsgEarthNet.uav[87] utilizationCountManeuversMaintenance 2
scalar OsgEarthNet.uav[87] utilizationCountChargeState 1
scalar OsgEarthNet.uav[87] utilizationCountOverdrawnAfterMission 0
scalar OsgEarthNet.uav[87] utilizationCountIdleState 2
scalar OsgEarthNet.uav[87] utilizationFail 0
scalar OsgEarthNet.uav[87] simulationTime 259200
scalar OsgEarthNet.uav[88] utilizationSecMission 694.00169469977
scalar OsgEarthNet.uav[88] utilizationSecMaintenance 223.34597234416
scalar OsgEarthNet.uav[88] utilizationSecCharge 3380
scalar OsgEarthNet.uav[88] utilizationSecIdle 254902.65133296
scalar OsgEarthNet.uav[88] utilizationEnergyMission 3046.0529174805
scalar OsgEarthNet.uav[88] utilizationEnergyMaintenance 988.23160934448
scalar OsgEarthNet.uav[88] utilizationEnergyCharge 4036.3100585938
scalar OsgEarthNet.uav[88] utilizationEnergyOverdrawMission 0
scalar OsgEarthNet.uav[88] utilizationEnergyOverdrawMaintenance 0
scalar OsgEarthNet.uav[88] utilizationCountMissions 1
scalar OsgEarthNet.uav[88] utilizationCountManeuversMission 13
scalar OsgEarthNet.uav[88] utilizationCountManeuversMaintenance 2
scalar OsgEarthNet.uav[88] utilizationCountChargeState 1
scalar OsgEarthNet.uav[88] utilizationCountOverdrawnAfterMission 0
scalar OsgEarthNet.uav[88] utilizationCountIdleState 2
scalar OsgEarthNet.uav[88] utilizationFail 0
scalar OsgEarthNet.uav[88] simulationTime 259200
scalar OsgEarthNet.uav[89] utilizationSecMission 760.62515258028
scalar OsgEarthNet.uav[89] utilizationSecMaintenance 245.74410321072
scalar OsgEarthNet.uav[89] utilizationSecCharge 3680
scalar OsgEarthNet.uav[89] utilizationSecIdle 254513.62974421
scalar OsgEarthNet.uav[89] utilizationEnergyMission 3506.1635131836
scalar OsgEarthNet.uav[89] utilizationEnergyMaintenance 1080.5857048035
scalar OsgEarthNet.uav[89] utilizationEnergyCharge 4586.74609375
scalar OsgEarthNet.uav[89] utilizationEnergyOverdrawMission 0
scalar OsgEarthNet.uav[89] utilizationEnergyOverdrawMaintenance 0
scalar OsgEarthNet.uav[89] utilizationCountMissions 1
scalar OsgEarthNet.uav[89] utilizationCountManeuversMission 12
scalar OsgEarthNet.uav[89] utilizationCountManeuversMaintenance 2
scalar OsgEarthNet.uav[89] utilizationCountChargeState 1
scalar OsgEarthNet.uav[89] utilizationCountOverdrawnAfterMission 0
scalar OsgEarthNet.uav[89] utilizationCountIdleState 2
scalar OsgEarthNet.uav[89] utilizationFail 0
scalar OsgEarthNet.uav[89] simulationTime 259200
scalar OsgEarthNet.uav[90] utilizationSecMission 3330.9392618691
scalar OsgEarthNet.uav[90] utilizationSecMaintenance 1651.8213086073
scalar OsgEarthNet.uav[90] utilizationSecCharge 19530
scalar OsgEarthNet.uav[90] utilizationSecIdle 234687.23842952
scalar OsgEarthNet.uav[90] utilizationEnergyMission 15034.516769409
scalar OsgEarthNet.uav[90] utilizationEnergyMaintenance 8282.4833145142
scalar OsgEarthNet.uav[90] utilizationEnergyCharge 23317.001220703
scalar OsgEarthNet.uav[90] utilizationEnergyOverdrawMission 0
scalar OsgEarthNet.uav[90] utilizationEnergyOverdrawMaintenance 0
scalar OsgEarthNet.uav[90] utilizationCountMissions 6
scalar OsgEarthNet.uav[90] utilizationCountManeuversMission 55
scalar OsgEarthNet.uav[90] utilizationCountManeuversMaintenance 12
scalar OsgEarthNet.uav[90] utilizationCountChargeState 6
scalar OsgEarthNet.uav[90] utilizationCountOverdrawnAfterMission 0
scalar OsgEarthNet.uav[90] utilizationCountIdleState 7
scalar OsgEarthNet.uav[90] utilizationFail 0
scalar OsgEarthNet.uav[90] simulationTime 259200
scalar OsgEarthNet.uav[91] utilizationSecMission 28444.05913636
scalar OsgEarthNet.uav[91] utilizationSecMaintenance 11884.097227323
scalar OsgEarthNet.uav[91] utilizationSecCharge 147939.25922756
scalar OsgEarthNet.uav[91] utilizationSecIdle 70932.583408756
scalar OsgEarthNet.uav[91] utilizationEnergyMission 130850.8032074
scalar OsgEarthNet.uav[91] utilizationEnergyMaintenance 55313.563587189
scalar OsgEarthNet.uav[91] utilizationEnergyCharge 182284.17205811
scalar OsgEarthNet.uav[91] utilizationEnergyOverdrawMission 0
scalar OsgEarthNet.uav[91] utilizationEnergyOverdrawMaintenance 0
scalar OsgEarthNet.uav[91] utilizationCountMissions 43
scalar OsgEarthNet.uav[91] utilizationCountManeuversMission 472
scalar OsgEarthNet.uav[91] utilizationCountManeuversMaintenance 86
scalar OsgEarthNet.uav[91] utilizationCountChargeState 43
scalar OsgEarthNet.uav[91] utilizationCountOverdrawnAfterMission 0
scalar OsgEarthNet.uav[91] utilizationCountIdleState 43
scalar OsgEarthNet.uav[91] utilizationFail 0
scalar OsgEarthNet.uav[91] simulationTime 259200
scalar OsgEarthNet.uav[92] utilizationSecMission 887.1741082606
scalar OsgEarthNet.uav[92] utilizationSecMaintenance 171.13387461676
scalar OsgEarthNet.uav[92] utilizationSecCharge 3830
scalar OsgEarthNet.uav[92] utilizationSecIdle 254311.69101712
scalar OsgEarthNet.uav[92] utilizationEnergyMission 4204.5619506836
scalar OsgEarthNet.uav[92] utilizationEnergyMaintenance 702.96511077881
scalar OsgEarthNet.uav[92] utilizationEnergyCharge 4828.3876953125
scalar OsgEarthNet.uav[92] utilizationEnergyOverdrawMission 0
scalar OsgEarthNet.uav[92] utilizationEnergyOverdrawMaintenance 0
scalar OsgEarthNet.uav[92] utilizationCountMissions 1
scalar OsgEarthNet.uav[92] utilizationCountManeuversMission 14
scalar OsgEarthNet.uav[92] utilizationCountManeuversMaintenance 2
scalar OsgEarthNet.uav[92] utilizationCountChargeState 1
scalar OsgEarthNet.uav[92] utilizationCountOverdrawnAfterMission 0
scalar OsgEarthNet.uav[92] utilizationCountIdleState 2
scalar OsgEarthNet.uav[92] utilizationFail 0
scalar OsgEarthNet.uav[92] simulationTime 259200
scalar OsgEarthNet.uav[93] utilizationSecMission 15689.217970558
scalar OsgEarthNet.uav[93] utilizationSecMaintenance 8016.194387411
scalar OsgEarthNet.uav[93] utilizationSecCharge 91050
scalar OsgEarthNet.uav[93] utilizationSecIdle 144444.58664203
scalar OsgEarthNet.uav[93] utilizationEnergyMission 72682.092315674
scalar OsgEarthNet.uav[93] utilizationEnergyMaintenance 37388.225437164
scalar OsgEarthNet.uav[93] utilizationEnergyCharge 110099.73242188
scalar OsgEarthNet.uav[93] utilizationEnergyOverdrawMission 0
scalar OsgEarthNet.uav[93] utilizationEnergyOverdrawMaintenance 0
scalar OsgEarthNet.uav[93] utilizationCountMissions 27
scalar OsgEarthNet.uav[93] utilizationCountManeuversMission 249
scalar OsgEarthNet.uav[93] utilizationCountManeuversMaintenance 54
scalar OsgEarthNet.uav[93] utilizationCountChargeState 27
scalar OsgEarthNet.uav[93] utilizationCountOverdrawnAfterMission 0
scalar OsgEarthNet.uav[93] utilizationCountIdleState 28
scalar OsgEarthNet.uav[93] utilizationFail 0
scalar OsgEarthNet.uav[93] simulationTime 259200
scalar OsgEarthNet.uav[94] utilizationSecMission 23368.952653492
scalar OsgEarthNet.uav[94] utilizationSecMaintenance 12554.460236042
scalar OsgEarthNet.uav[94] utilizationSecCharge 138080
scalar OsgEarthNet.uav[94] utilizationSecIdle 85196.586110466
scalar OsgEarthNet.uav[94] utilizationEnergyMission 109283.76209391
scalar OsgEarthNet.uav[94] utilizationEnergyMaintenance 59511.081523895
scalar OsgEarthNet.uav[94] utilizationEnergyCharge 165000.87402344
scalar OsgEarthNet.uav[94] utilizationEnergyOverdrawMission 0
scalar OsgEarthNet.uav[94] utilizationEnergyOverdrawMaintenance 0
scalar OsgEarthNet.uav[94] utilizationCountMissions 42
scalar OsgEarthNet.uav[94] utilizationCountManeuversMission 401
scalar OsgEarthNet.uav[94] utilizationCountManeuversMaintenance 85
scalar OsgEarthNet.uav[94] utilizationCountChargeState 42
scalar OsgEarthNet.uav[94] utilizationCountOverdrawnAfterMission 0
scalar OsgEarthNet.uav[94] utilizationCountIdleState 43
scalar OsgEarthNet.uav[94] utilizationFail 0
scalar OsgEarthNet.uav[94] simulationTime 259200
scalar OsgEarthNet.uav[95] utilizationSecMission 22028.725474072
scalar OsgEarthNet.uav[95] utilizationSecMaintenance 9604.9233073094
scalar OsgEarthNet.uav[95] utilizationSecCharge 116310
scalar OsgEarthNet.uav[95] utilizationSecIdle 111256.35021862
scalar OsgEarthNet.uav[95] utilizationEnergyMission 100657.4011284
scalar OsgEarthNet.uav[95] utilizationEnergyMaintenance 45326.943340301
scalar OsgEarthNet.uav[95] utilizationEnergyCharge 143388.40209961
scalar OsgEarthNet.uav[95] utilizationEnergyOverdrawMission 0
scalar OsgEarthNet.uav[95] utilizationEnergyOverdrawMaintenance 0
scalar OsgEarthNet.uav[95] utilizationCountMissions 33
scalar OsgEarthNet.uav[95] utilizationCountManeuversMission 357
scalar OsgEarthNet.uav[95] utilizationCountManeuversMaintenance 67
scalar OsgEarthNet.uav[95] utilizationCountChargeState 33
scalar OsgEarthNet.uav[95] utilizationCountOverdrawnAfterMission 0
scalar OsgEarthNet.uav[95] utilizationCountIdleState 34
scalar OsgEarthNet.uav[95] utilizationFail 0
scalar OsgEarthNet.uav[95] simulationTime 259200
scalar OsgEarthNet.uav[96] utilizationSecMission 760.62515258028
scalar OsgEarthNet.uav[96] utilizationSecMaintenance 245.74410321072
scalar OsgEarthNet.uav[96] utilizationSecCharge 3740
scalar OsgEarthNet.uav[96] utilizationSecIdle 254453.62974421
scalar OsgEarthNet.uav[96] utilizationEnergyMission 3598.8058013916
scalar OsgEarthNet.uav[96] utilizationEnergyMaintenance 1131.099407196
scalar OsgEarthNet.uav[96] utilizationEnergyCharge 4729.904296875
scalar OsgEarthNet.uav[96] utilizationEnergyOverdrawMission 0
scalar OsgEarthNet.uav[96] utilizationEnergyOverdrawMaintenance 0
scalar OsgEarthNet.uav[96] utilizationCountMissions 1
scalar OsgEarthNet.uav[96] utilizationCountManeuversMission 12
scalar OsgEarthNet.uav[96] utilizationCountManeuversMaintenance 2
scalar OsgEarthNet.uav[96] utilizationCountChargeState 1
scalar OsgEarthNet.uav[96] utilizationCountOverdrawnAfterMission 0
scalar OsgEarthNet.uav[96] utilizationCountIdleState 2
scalar OsgEarthNet.uav[96] utilizationFail 0
scalar OsgEarthNet.uav[96] simulationTime 259200
scalar OsgEarthNet.uav[97] utilizationSecMission 682.94783150361
scalar OsgEarthNet.uav[97] utilizationSecMaintenance 228.1606024445
scalar OsgEarthNet.uav[97] utilizationSecCharge 3430
scalar OsgEarthNet.uav[97] utilizationSecIdle 254858.89056605
scalar OsgEarthNet.uav[97] utilizationEnergyMission 3208.5801696777
scalar OsgEarthNet.uav[97] utilizationEnergyMaintenance 938.30745697022
scalar OsgEarthNet.uav[97] utilizationEnergyCharge 4146.88671875
scalar OsgEarthNet.uav[97] utilizationEnergyOverdrawMission 0
scalar OsgEarthNet.uav[97] utilizationEnergyOverdrawMaintenance 0
scalar OsgEarthNet.uav[97] utilizationCountMissions 1
scalar OsgEarthNet.uav[97] utilizationCountManeuversMission 12
scalar OsgEarthNet.uav[97] utilizationCountManeuversMaintenance 2
scalar OsgEarthNet.uav[97] utilizationCountChargeState 1
scalar OsgEarthNet.uav[97] utilizationCountOverdrawnAfterMission 0
scalar OsgEarthNet.uav[97] utilizationCountIdleState 2
scalar OsgEarthNet.uav[97] utilizationFail 0
scalar OsgEarthNet.uav[97] simulationTime 259200
scalar OsgEarthNet.uav[98] utilizationSecMission 4220.6731233924
scalar OsgEarthNet.uav[98] utilizationSecMaintenance 3476.990363441
scalar OsgEarthNet.uav[98] utilizationSecCharge 29980
scalar OsgEarthNet.uav[98] utilizationSecIdle 221522.33551317
scalar OsgEarthNet.uav[98] utilizationEnergyMission 19605.740249634
scalar OsgEarthNet.uav[98] utilizationEnergyMaintenance 16185.198867798
scalar OsgEarthNet.uav[98] utilizationEnergyCharge 36004.156982422
scalar OsgEarthNet.uav[98] utilizationEnergyOverdrawMission 0
scalar OsgEarthNet.uav[98] utilizationEnergyOverdrawMaintenance 0
scalar OsgEarthNet.uav[98] utilizationCountMissions 9
scalar OsgEarthNet.uav[98] utilizationCountManeuversMission 71
scalar OsgEarthNet.uav[98] utilizationCountManeuversMaintenance 18
scalar OsgEarthNet.uav[98] utilizationCountChargeState 9
scalar OsgEarthNet.uav[98] utilizationCountOverdrawnAfterMission 0
scalar OsgEarthNet.uav[98] utilizationCountIdleState 10
scalar OsgEarthNet.uav[98] utilizationFail 0
scalar OsgEarthNet.uav[98] simulationTime 259200
scalar OsgEarthNet.uav[99] utilizationSecMission 30094.327051925
scalar OsgEarthNet.uav[99] utilizationSecMaintenance 11018.872723997
scalar OsgEarthNet.uav[99] utilizationSecCharge 151910
scalar OsgEarthNet.uav[99] utilizationSecIdle 66176.799224078
scalar OsgEarthNet.uav[99] utilizationEnergyMission 137594.22342619
scalar OsgEarthNet.uav[99] utilizationEnergyMaintenance 51488.924346924
scalar OsgEarthNet.uav[99] utilizationEnergyCharge 187318.67333984
scalar OsgEarthNet.uav[99] utilizationEnergyOverdrawMission 0
scalar OsgEarthNet.uav[99] utilizationEnergyOverdrawMaintenance 0
scalar OsgEarthNet.uav[99] utilizationCountMissions 43
scalar OsgEarthNet.uav[99] utilizationCountManeuversMission 481
scalar OsgEarthNet.uav[99] utilizationCountManeuversMaintenance 87
scalar OsgEarthNet.uav[99] utilizationCountChargeState 43
scalar OsgEarthNet.uav[99] utilizationCountOverdrawnAfterMission 0
scalar OsgEarthNet.uav[99] utilizationCountIdleState 44
scalar OsgEarthNet.uav[99] utilizationFail 0
scalar OsgEarthNet.uav[99] simulationTime 259200
scalar OsgEarthNet.cs[0] usedPower 325847.71296717
scalar OsgEarthNet.cs[0] chargedPower 325847.71296717
scalar OsgEarthNet.cs[0] chargedMobileNodes 70
scalar OsgEarthNet.cs[0] reservations 72
scalar OsgEarthNet.cs[1] usedPower 763855.58864047
scalar OsgEarthNet.cs[1] chargedPower 763855.58864047
scalar OsgEarthNet.cs[1] chargedMobileNodes 277
scalar OsgEarthNet.cs[1] reservations 281
scalar OsgEarthNet.cs[2] usedPower 3177320.559798
scalar OsgEarthNet.cs[2] chargedPower 3177320.559798
scalar OsgEarthNet.cs[2] chargedMobileNodes 701
scalar OsgEarthNet.cs[2] reservations 709
scalar OsgEarthNet.cs[3] usedPower 1081310.3443325
scalar OsgEarthNet.cs[3] chargedPower 1081310.3443325
scalar OsgEarthNet.cs[3] chargedMobileNodes 244
scalar OsgEarthNet.cs[3] reservations 247
scalar OsgEarthNet.cs[4] usedPower 1060378.2858909
scalar OsgEarthNet.cs[4] chargedPower 1060378.2858909
scalar OsgEarthNet.cs[4] chargedMobileNodes 235
scalar OsgEarthNet.cs[4] reservations 239
scalar OsgEarthNet.cs[5] usedPower 729793.88844203
scalar OsgEarthNet.cs[5] chargedPower 729793.88844203
scalar OsgEarthNet.cs[5] chargedMobileNodes 161
scalar OsgEarthNet.cs[5] reservations 161
scalar OsgEarthNet.cs[6] usedPower 1370504.2906396
scalar OsgEarthNet.cs[6] chargedPower 1370504.2906396
scalar OsgEarthNet.cs[6] chargedMobileNodes 322
scalar OsgEarthNet.cs[6] reservations 330

