version 2
run Szenario_Hotel_Gabelbach-3-20180709-17:56:31-17828
attr configname Szenario_Hotel_Gabelbach
attr datetime 20180709-17:56:31
attr experiment Szenario_Hotel_Gabelbach
attr inifile omnetpp.ini
attr iterationvars "$replM=2, $biWeight=0.1"
attr iterationvarsf replM=2,biWeight=0.1-
attr measurement "$replM=2, $biWeight=0.1"
attr network OsgEarthNet
attr processid 17828
attr repetition 3
attr replication #3
attr resultdir results
attr runnumber 3
attr seedset 3
itervar biWeight 0.1
itervar replM 2
param *.osgEarthScene.scene "\"Szenario_Hotel_Gabelbach.earth\""
param *.playgroundLatitude 50.6830269
param *.playgroundLongitude 10.8538055
param *.playgroundWidth 3500m
param *.playgroundHeight 3500m
param *.numUAVs 100
param *.cs[0].posX 3537m
param *.cs[0].posY 965m
param *.cs[0].posZ 538m
param *.cs[1].posX 312m
param *.cs[1].posY 1262m
param *.cs[1].posZ 539m
param *.cs[2].posX 2185m
param *.cs[2].posY 3026m
param *.cs[2].posZ 777m
param *.cs[3].posX 10m
param *.cs[3].posY 2200m
param *.cs[3].posZ 560m
param *.cs[4].posX 750m
param *.cs[4].posY 200m
param *.cs[4].posZ 540m
param *.cs[5].posX 2450m
param *.cs[5].posY 180m
param *.cs[5].posZ 524m
param *.cs[6].posX 3140m
param *.cs[6].posY 1790m
param *.cs[6].posZ 606m
param *.numCSs 7
param *.uav[*].replacementMethod 2
param *.uav[*].weightedSumWeight 0.1
param *.*.timeStep 10s
param *.uav[*].commandPreviewCommandCount 20
param *.missionControl.missionFiles "\"missions\\\\Szenario_WB_Hotel_Gabelbach_Mission_Hotel.waypoints,missions\\\\Szenario_WB_Hotel_Gabelbach_Mission_Kickelhahn.waypoints,missions\\\\Szenario_WB_Hotel_Gabelbach_Mission_Ilmenau_Sportplatz.waypoints,missions\\\\Szenario_WB_Hotel_Gabelbach_Mission_Manebach_Mitte.waypoints,missions\\\\Szenario_WB_Hotel_Gabelbach_Mission_Manebach_Sued.waypoints\""
param *.missionControl.missionFiles "\"missions\\\\Szenario_WB_Hotel_Gabelbach_Mission_Hotel.waypoints,missions\\\\Szenario_WB_Hotel_Gabelbach_Mission_Kickelhahn.waypoints,missions\\\\Szenario_WB_Hotel_Gabelbach_Mission_Ilmenau_Sportplatz.waypoints,missions\\\\Szenario_WB_Hotel_Gabelbach_Mission_Manebach_Mitte.waypoints,missions\\\\Szenario_WB_Hotel_Gabelbach_Mission_Manebach_Sued.waypoints,missions\\\\Szenario_WB_Hotel_Gabelbach_Hover_HoheSchlaufe.waypoints,missions\\\\Szenario_WB_Hotel_Gabelbach_Hover_Kickelhahn.waypoints,missions\\\\Szenario_WB_Hotel_Gabelbach_Hover_Gabelbachskopf.waypoints,missions\\\\Szenario_WB_Hotel_Gabelbach_Hover_Dachskopf.waypoints\""
param *.uav[0].startX 3537m
param *.uav[0].startY 965m
param *.uav[0].startZ 539m
param *.uav[1].startX 312m
param *.uav[1].startY 1262m
param *.uav[1].startZ 540m
param *.uav[2].startX 2185m
param *.uav[2].startY 3026m
param *.uav[2].startZ 778m
param *.uav[3].startX 3537m
param *.uav[3].startY 965m
param *.uav[3].startZ 539m
param *.uav[4].startX 312m
param *.uav[4].startY 1262m
param *.uav[4].startZ 540m
param *.uav[5].startX 2185m
param *.uav[5].startY 3026m
param *.uav[5].startZ 778m
param *.uav[6].startX 3537m
param *.uav[6].startY 965m
param *.uav[6].startZ 539m
param *.uav[7].startX 312m
param *.uav[7].startY 1262m
param *.uav[7].startZ 540m
param *.uav[8].startX 2185m
param *.uav[8].startY 3026m
param *.uav[8].startZ 778m
param *.uav[9].startX 3537m
param *.uav[9].startY 965m
param *.uav[9].startZ 539m
param *.uav[10].startX 3537m
param *.uav[10].startY 965m
param *.uav[10].startZ 539m
param *.uav[11].startX 312m
param *.uav[11].startY 1262m
param *.uav[11].startZ 540m
param *.uav[12].startX 2185m
param *.uav[12].startY 3026m
param *.uav[12].startZ 778m
param *.uav[13].startX 3537m
param *.uav[13].startY 965m
param *.uav[13].startZ 539m
param *.uav[14].startX 312m
param *.uav[14].startY 1262m
param *.uav[14].startZ 540m
param *.uav[15].startX 2185m
param *.uav[15].startY 3026m
param *.uav[15].startZ 778m
param *.uav[16].startX 3537m
param *.uav[16].startY 965m
param *.uav[16].startZ 539m
param *.uav[17].startX 312m
param *.uav[17].startY 1262m
param *.uav[17].startZ 540m
param *.uav[18].startX 2185m
param *.uav[18].startY 3026m
param *.uav[18].startZ 778m
param *.uav[19].startX 3537m
param *.uav[19].startY 965m
param *.uav[19].startZ 539m
param *.uav[20].startX 3537m
param *.uav[20].startY 965m
param *.uav[20].startZ 539m
param *.uav[21].startX 312m
param *.uav[21].startY 1262m
param *.uav[21].startZ 540m
param *.uav[22].startX 2185m
param *.uav[22].startY 3026m
param *.uav[22].startZ 778m
param *.uav[23].startX 3537m
param *.uav[23].startY 965m
param *.uav[23].startZ 539m
param *.uav[24].startX 312m
param *.uav[24].startY 1262m
param *.uav[24].startZ 540m
param *.uav[25].startX 2185m
param *.uav[25].startY 3026m
param *.uav[25].startZ 778m
param *.uav[26].startX 3537m
param *.uav[26].startY 965m
param *.uav[26].startZ 539m
param *.uav[27].startX 312m
param *.uav[27].startY 1262m
param *.uav[27].startZ 540m
param *.uav[28].startX 2185m
param *.uav[28].startY 3026m
param *.uav[28].startZ 778m
param *.uav[29].startX 3537m
param *.uav[29].startY 965m
param *.uav[29].startZ 539m
param *.uav[30].startX 3537m
param *.uav[30].startY 965m
param *.uav[30].startZ 539m
param *.uav[31].startX 312m
param *.uav[31].startY 1262m
param *.uav[31].startZ 540m
param *.uav[32].startX 2185m
param *.uav[32].startY 3026m
param *.uav[32].startZ 778m
param *.uav[33].startX 3537m
param *.uav[33].startY 965m
param *.uav[33].startZ 539m
param *.uav[34].startX 312m
param *.uav[34].startY 1262m
param *.uav[34].startZ 540m
param *.uav[35].startX 2185m
param *.uav[35].startY 3026m
param *.uav[35].startZ 778m
param *.uav[36].startX 3537m
param *.uav[36].startY 965m
param *.uav[36].startZ 539m
param *.uav[37].startX 312m
param *.uav[37].startY 1262m
param *.uav[37].startZ 540m
param *.uav[38].startX 2185m
param *.uav[38].startY 3026m
param *.uav[38].startZ 778m
param *.uav[39].startX 3537m
param *.uav[39].startY 965m
param *.uav[39].startZ 539m
param *.uav[40].startX 3537m
param *.uav[40].startY 965m
param *.uav[40].startZ 539m
param *.uav[41].startX 312m
param *.uav[41].startY 1262m
param *.uav[41].startZ 540m
param *.uav[42].startX 2185m
param *.uav[42].startY 3026m
param *.uav[42].startZ 778m
param *.uav[43].startX 3537m
param *.uav[43].startY 965m
param *.uav[43].startZ 539m
param *.uav[44].startX 312m
param *.uav[44].startY 1262m
param *.uav[44].startZ 540m
param *.uav[45].startX 2185m
param *.uav[45].startY 3026m
param *.uav[45].startZ 778m
param *.uav[46].startX 3537m
param *.uav[46].startY 965m
param *.uav[46].startZ 539m
param *.uav[47].startX 312m
param *.uav[47].startY 1262m
param *.uav[47].startZ 540m
param *.uav[48].startX 2185m
param *.uav[48].startY 3026m
param *.uav[48].startZ 778m
param *.uav[49].startX 3537m
param *.uav[49].startY 965m
param *.uav[49].startZ 539m
param *.uav[50].startX 3537m
param *.uav[50].startY 965m
param *.uav[50].startZ 539m
param *.uav[51].startX 312m
param *.uav[51].startY 1262m
param *.uav[51].startZ 540m
param *.uav[52].startX 2185m
param *.uav[52].startY 3026m
param *.uav[52].startZ 778m
param *.uav[53].startX 3537m
param *.uav[53].startY 965m
param *.uav[53].startZ 539m
param *.uav[54].startX 312m
param *.uav[54].startY 1262m
param *.uav[54].startZ 540m
param *.uav[55].startX 2185m
param *.uav[55].startY 3026m
param *.uav[55].startZ 778m
param *.uav[56].startX 3537m
param *.uav[56].startY 965m
param *.uav[56].startZ 539m
param *.uav[57].startX 312m
param *.uav[57].startY 1262m
param *.uav[57].startZ 540m
param *.uav[58].startX 2185m
param *.uav[58].startY 3026m
param *.uav[58].startZ 778m
param *.uav[59].startX 3537m
param *.uav[59].startY 965m
param *.uav[59].startZ 539m
param *.uav[60].startX 3537m
param *.uav[60].startY 965m
param *.uav[60].startZ 539m
param *.uav[61].startX 312m
param *.uav[61].startY 1262m
param *.uav[61].startZ 540m
param *.uav[62].startX 2185m
param *.uav[62].startY 3026m
param *.uav[62].startZ 778m
param *.uav[63].startX 3537m
param *.uav[63].startY 965m
param *.uav[63].startZ 539m
param *.uav[64].startX 312m
param *.uav[64].startY 1262m
param *.uav[64].startZ 540m
param *.uav[65].startX 2185m
param *.uav[65].startY 3026m
param *.uav[65].startZ 778m
param *.uav[66].startX 3537m
param *.uav[66].startY 965m
param *.uav[66].startZ 539m
param *.uav[67].startX 312m
param *.uav[67].startY 1262m
param *.uav[67].startZ 540m
param *.uav[68].startX 2185m
param *.uav[68].startY 3026m
param *.uav[68].startZ 778m
param *.uav[69].startX 3537m
param *.uav[69].startY 965m
param *.uav[69].startZ 539m
param *.uav[70].startX 3537m
param *.uav[70].startY 965m
param *.uav[70].startZ 539m
param *.uav[71].startX 312m
param *.uav[71].startY 1262m
param *.uav[71].startZ 540m
param *.uav[72].startX 2185m
param *.uav[72].startY 3026m
param *.uav[72].startZ 778m
param *.uav[73].startX 3537m
param *.uav[73].startY 965m
param *.uav[73].startZ 539m
param *.uav[74].startX 312m
param *.uav[74].startY 1262m
param *.uav[74].startZ 540m
param *.uav[75].startX 2185m
param *.uav[75].startY 3026m
param *.uav[75].startZ 778m
param *.uav[76].startX 3537m
param *.uav[76].startY 965m
param *.uav[76].startZ 539m
param *.uav[77].startX 312m
param *.uav[77].startY 1262m
param *.uav[77].startZ 540m
param *.uav[78].startX 2185m
param *.uav[78].startY 3026m
param *.uav[78].startZ 778m
param *.uav[79].startX 3537m
param *.uav[79].startY 965m
param *.uav[79].startZ 539m
param *.uav[80].startX 3537m
param *.uav[80].startY 965m
param *.uav[80].startZ 539m
param *.uav[81].startX 312m
param *.uav[81].startY 1262m
param *.uav[81].startZ 540m
param *.uav[82].startX 2185m
param *.uav[82].startY 3026m
param *.uav[82].startZ 778m
param *.uav[83].startX 3537m
param *.uav[83].startY 965m
param *.uav[83].startZ 539m
param *.uav[84].startX 312m
param *.uav[84].startY 1262m
param *.uav[84].startZ 540m
param *.uav[85].startX 2185m
param *.uav[85].startY 3026m
param *.uav[85].startZ 778m
param *.uav[86].startX 3537m
param *.uav[86].startY 965m
param *.uav[86].startZ 539m
param *.uav[87].startX 312m
param *.uav[87].startY 1262m
param *.uav[87].startZ 540m
param *.uav[88].startX 2185m
param *.uav[88].startY 3026m
param *.uav[88].startZ 778m
param *.uav[89].startX 3537m
param *.uav[89].startY 965m
param *.uav[89].startZ 539m
param *.uav[90].startX 3537m
param *.uav[90].startY 965m
param *.uav[90].startZ 539m
param *.uav[91].startX 312m
param *.uav[91].startY 1262m
param *.uav[91].startZ 540m
param *.uav[92].startX 2185m
param *.uav[92].startY 3026m
param *.uav[92].startZ 778m
param *.uav[93].startX 3537m
param *.uav[93].startY 965m
param *.uav[93].startZ 539m
param *.uav[94].startX 312m
param *.uav[94].startY 1262m
param *.uav[94].startZ 540m
param *.uav[95].startX 2185m
param *.uav[95].startY 3026m
param *.uav[95].startZ 778m
param *.uav[96].startX 3537m
param *.uav[96].startY 965m
param *.uav[96].startZ 539m
param *.uav[97].startX 312m
param *.uav[97].startY 1262m
param *.uav[97].startZ 540m
param *.uav[98].startX 2185m
param *.uav[98].startY 3026m
param *.uav[98].startZ 778m
param *.uav[99].startX 3537m
param *.uav[99].startY 965m
param *.uav[99].startZ 539m
param *.osgEarthScene.scene "\"boston.earth\""
param *.playgroundLatitude 42.3558
param *.playgroundLongitude -71.0677
param *.playgroundWidth 400m
param *.playgroundHeight 200m
param *.channelController.connectionColor "\"#0000FF40\""
param *.channelController.showConnections false
param *.uav[*].modelURL "\"quadrocopter.small.obj.15.scale.0,0,90.rot\""
param *.uav[*].labelColor "\"#FF7C00CC\""
param *.uav[*].label2Color "\"#FF7C00EE\""
param *.uav[*].batteryCapacity 5200mAh
param *.uav[*].batteryRemaining uav[index].batteryCapacity
param *.uav[*].predictionQuantile 0.95
param *.uav[*].replacementMethod 2
param *.uav[*].weightedSumWeight 0.5
param *.cs[*].modelURL "\"chargingstation_v1.osgt.2.scale.0,0,0.rot.0,0,-15e-1.trans\""
param *.cs[*].spotsWaiting 999
param *.cs[*].spotsCharging 999
param *.cs[*].chargeEffectivenessPercentage 100
param *.cs[*].nonLinearPhaseStartPercentage 85
param *.cs[*].chargeCurrent 6.0A
param *.cs[*].prioritizeFastCharge true
param *.missionControl.replacementSearchMethod 0
param *.*.timeStep 9s

scalar OsgEarthNet.uav[0] utilizationSecMission 2218.7879732897
scalar OsgEarthNet.uav[0] utilizationSecMaintenance 732.32299618671
scalar OsgEarthNet.uav[0] utilizationSecCharge 10790
scalar OsgEarthNet.uav[0] utilizationSecIdle 245458.88803052
scalar OsgEarthNet.uav[0] utilizationEnergyMission 9969.8162765503
scalar OsgEarthNet.uav[0] utilizationEnergyMaintenance 3580.0001106262
scalar OsgEarthNet.uav[0] utilizationEnergyCharge 13438.971191406
scalar OsgEarthNet.uav[0] utilizationEnergyOverdrawMission 0
scalar OsgEarthNet.uav[0] utilizationEnergyOverdrawMaintenance 0
scalar OsgEarthNet.uav[0] utilizationCountMissions 3
scalar OsgEarthNet.uav[0] utilizationCountManeuversMission 34
scalar OsgEarthNet.uav[0] utilizationCountManeuversMaintenance 6
scalar OsgEarthNet.uav[0] utilizationCountChargeState 3
scalar OsgEarthNet.uav[0] utilizationCountOverdrawnAfterMission 0
scalar OsgEarthNet.uav[0] utilizationCountIdleState 4
scalar OsgEarthNet.uav[0] utilizationFail 0
scalar OsgEarthNet.uav[0] simulationTime 259200
scalar OsgEarthNet.uav[1] utilizationSecMission 27313.635977711
scalar OsgEarthNet.uav[1] utilizationSecMaintenance 14200.381937638
scalar OsgEarthNet.uav[1] utilizationSecCharge 161125.01809832
scalar OsgEarthNet.uav[1] utilizationSecIdle 56560.962986334
scalar OsgEarthNet.uav[1] utilizationEnergyMission 124900.77923203
scalar OsgEarthNet.uav[1] utilizationEnergyMaintenance 67291.192703247
scalar OsgEarthNet.uav[1] utilizationEnergyCharge 192165.66870117
scalar OsgEarthNet.uav[1] utilizationEnergyOverdrawMission 0
scalar OsgEarthNet.uav[1] utilizationEnergyOverdrawMaintenance 0
scalar OsgEarthNet.uav[1] utilizationCountMissions 50
scalar OsgEarthNet.uav[1] utilizationCountManeuversMission 441
scalar OsgEarthNet.uav[1] utilizationCountManeuversMaintenance 100
scalar OsgEarthNet.uav[1] utilizationCountChargeState 50
scalar OsgEarthNet.uav[1] utilizationCountOverdrawnAfterMission 0
scalar OsgEarthNet.uav[1] utilizationCountIdleState 50
scalar OsgEarthNet.uav[1] utilizationFail 0
scalar OsgEarthNet.uav[1] simulationTime 259200
scalar OsgEarthNet.uav[2] utilizationSecMission 27693.25773985
scalar OsgEarthNet.uav[2] utilizationSecMaintenance 11036.485338537
scalar OsgEarthNet.uav[2] utilizationSecCharge 147880
scalar OsgEarthNet.uav[2] utilizationSecIdle 72590.255921613
scalar OsgEarthNet.uav[2] utilizationEnergyMission 128870.6111145
scalar OsgEarthNet.uav[2] utilizationEnergyMaintenance 50614.444850922
scalar OsgEarthNet.uav[2] utilizationEnergyCharge 179374.78515625
scalar OsgEarthNet.uav[2] utilizationEnergyOverdrawMission 0
scalar OsgEarthNet.uav[2] utilizationEnergyOverdrawMaintenance 0
scalar OsgEarthNet.uav[2] utilizationCountMissions 44
scalar OsgEarthNet.uav[2] utilizationCountManeuversMission 436
scalar OsgEarthNet.uav[2] utilizationCountManeuversMaintenance 88
scalar OsgEarthNet.uav[2] utilizationCountChargeState 44
scalar OsgEarthNet.uav[2] utilizationCountOverdrawnAfterMission 0
scalar OsgEarthNet.uav[2] utilizationCountIdleState 45
scalar OsgEarthNet.uav[2] utilizationFail 0
scalar OsgEarthNet.uav[2] simulationTime 259200
scalar OsgEarthNet.uav[3] utilizationSecMission 3943.015142578
scalar OsgEarthNet.uav[3] utilizationSecMaintenance 1535.9370066426
scalar OsgEarthNet.uav[3] utilizationSecCharge 20180
scalar OsgEarthNet.uav[3] utilizationSecIdle 233541.04685078
scalar OsgEarthNet.uav[3] utilizationEnergyMission 17335.106254578
scalar OsgEarthNet.uav[3] utilizationEnergyMaintenance 6777.685295105
scalar OsgEarthNet.uav[3] utilizationEnergyCharge 24477.659179688
scalar OsgEarthNet.uav[3] utilizationEnergyOverdrawMission 0
scalar OsgEarthNet.uav[3] utilizationEnergyOverdrawMaintenance 0
scalar OsgEarthNet.uav[3] utilizationCountMissions 6
scalar OsgEarthNet.uav[3] utilizationCountManeuversMission 60
scalar OsgEarthNet.uav[3] utilizationCountManeuversMaintenance 12
scalar OsgEarthNet.uav[3] utilizationCountChargeState 6
scalar OsgEarthNet.uav[3] utilizationCountOverdrawnAfterMission 0
scalar OsgEarthNet.uav[3] utilizationCountIdleState 7
scalar OsgEarthNet.uav[3] utilizationFail 0
scalar OsgEarthNet.uav[3] simulationTime 259200
scalar OsgEarthNet.uav[4] utilizationSecMission 19245.805765165
scalar OsgEarthNet.uav[4] utilizationSecMaintenance 10334.751587997
scalar OsgEarthNet.uav[4] utilizationSecCharge 115210
scalar OsgEarthNet.uav[4] utilizationSecIdle 114409.44164684
scalar OsgEarthNet.uav[4] utilizationEnergyMission 89067.540683746
scalar OsgEarthNet.uav[4] utilizationEnergyMaintenance 47800.089962006
scalar OsgEarthNet.uav[4] utilizationEnergyCharge 136702.08056641
scalar OsgEarthNet.uav[4] utilizationEnergyOverdrawMission 0
scalar OsgEarthNet.uav[4] utilizationEnergyOverdrawMaintenance 0
scalar OsgEarthNet.uav[4] utilizationCountMissions 36
scalar OsgEarthNet.uav[4] utilizationCountManeuversMission 314
scalar OsgEarthNet.uav[4] utilizationCountManeuversMaintenance 72
scalar OsgEarthNet.uav[4] utilizationCountChargeState 36
scalar OsgEarthNet.uav[4] utilizationCountOverdrawnAfterMission 0
scalar OsgEarthNet.uav[4] utilizationCountIdleState 37
scalar OsgEarthNet.uav[4] utilizationFail 0
scalar OsgEarthNet.uav[4] simulationTime 259200
scalar OsgEarthNet.uav[5] utilizationSecMission 694.00169469977
scalar OsgEarthNet.uav[5] utilizationSecMaintenance 223.34597234416
scalar OsgEarthNet.uav[5] utilizationSecCharge 3540
scalar OsgEarthNet.uav[5] utilizationSecIdle 254742.65133296
scalar OsgEarthNet.uav[5] utilizationEnergyMission 3370.6127929687
scalar OsgEarthNet.uav[5] utilizationEnergyMaintenance 983.69935226441
scalar OsgEarthNet.uav[5] utilizationEnergyCharge 4381.5263671875
scalar OsgEarthNet.uav[5] utilizationEnergyOverdrawMission 0
scalar OsgEarthNet.uav[5] utilizationEnergyOverdrawMaintenance 0
scalar OsgEarthNet.uav[5] utilizationCountMissions 1
scalar OsgEarthNet.uav[5] utilizationCountManeuversMission 13
scalar OsgEarthNet.uav[5] utilizationCountManeuversMaintenance 2
scalar OsgEarthNet.uav[5] utilizationCountChargeState 1
scalar OsgEarthNet.uav[5] utilizationCountOverdrawnAfterMission 0
scalar OsgEarthNet.uav[5] utilizationCountIdleState 2
scalar OsgEarthNet.uav[5] utilizationFail 0
scalar OsgEarthNet.uav[5] simulationTime 259200
scalar OsgEarthNet.uav[6] utilizationSecMission 760.62515258028
scalar OsgEarthNet.uav[6] utilizationSecMaintenance 245.74410321072
scalar OsgEarthNet.uav[6] utilizationSecCharge 3600
scalar OsgEarthNet.uav[6] utilizationSecIdle 254593.62974421
scalar OsgEarthNet.uav[6] utilizationEnergyMission 3395.4837036133
scalar OsgEarthNet.uav[6] utilizationEnergyMaintenance 1046.9546012878
scalar OsgEarthNet.uav[6] utilizationEnergyCharge 4442.44140625
scalar OsgEarthNet.uav[6] utilizationEnergyOverdrawMission 0
scalar OsgEarthNet.uav[6] utilizationEnergyOverdrawMaintenance 0
scalar OsgEarthNet.uav[6] utilizationCountMissions 1
scalar OsgEarthNet.uav[6] utilizationCountManeuversMission 12
scalar OsgEarthNet.uav[6] utilizationCountManeuversMaintenance 2
scalar OsgEarthNet.uav[6] utilizationCountChargeState 1
scalar OsgEarthNet.uav[6] utilizationCountOverdrawnAfterMission 0
scalar OsgEarthNet.uav[6] utilizationCountIdleState 2
scalar OsgEarthNet.uav[6] utilizationFail 0
scalar OsgEarthNet.uav[6] simulationTime 259200
scalar OsgEarthNet.uav[7] utilizationSecMission 10931.66751613
scalar OsgEarthNet.uav[7] utilizationSecMaintenance 5089.8509128083
scalar OsgEarthNet.uav[7] utilizationSecCharge 61010
scalar OsgEarthNet.uav[7] utilizationSecIdle 182168.48057106
scalar OsgEarthNet.uav[7] utilizationEnergyMission 50587.141418457
scalar OsgEarthNet.uav[7] utilizationEnergyMaintenance 23864.268222809
scalar OsgEarthNet.uav[7] utilizationEnergyCharge 74383.708740234
scalar OsgEarthNet.uav[7] utilizationEnergyOverdrawMission 0
scalar OsgEarthNet.uav[7] utilizationEnergyOverdrawMaintenance 0
scalar OsgEarthNet.uav[7] utilizationCountMissions 18
scalar OsgEarthNet.uav[7] utilizationCountManeuversMission 179
scalar OsgEarthNet.uav[7] utilizationCountManeuversMaintenance 36
scalar OsgEarthNet.uav[7] utilizationCountChargeState 18
scalar OsgEarthNet.uav[7] utilizationCountOverdrawnAfterMission 0
scalar OsgEarthNet.uav[7] utilizationCountIdleState 19
scalar OsgEarthNet.uav[7] utilizationFail 0
scalar OsgEarthNet.uav[7] simulationTime 259200
scalar OsgEarthNet.uav[8] utilizationSecMission 694.00169469977
scalar OsgEarthNet.uav[8] utilizationSecMaintenance 223.34597234416
scalar OsgEarthNet.uav[8] utilizationSecCharge 3400
scalar OsgEarthNet.uav[8] utilizationSecIdle 254882.65133296
scalar OsgEarthNet.uav[8] utilizationEnergyMission 3276.296081543
scalar OsgEarthNet.uav[8] utilizationEnergyMaintenance 887.92905807495
scalar OsgEarthNet.uav[8] utilizationEnergyCharge 4161.1708984375
scalar OsgEarthNet.uav[8] utilizationEnergyOverdrawMission 0
scalar OsgEarthNet.uav[8] utilizationEnergyOverdrawMaintenance 0
scalar OsgEarthNet.uav[8] utilizationCountMissions 1
scalar OsgEarthNet.uav[8] utilizationCountManeuversMission 13
scalar OsgEarthNet.uav[8] utilizationCountManeuversMaintenance 2
scalar OsgEarthNet.uav[8] utilizationCountChargeState 1
scalar OsgEarthNet.uav[8] utilizationCountOverdrawnAfterMission 0
scalar OsgEarthNet.uav[8] utilizationCountIdleState 2
scalar OsgEarthNet.uav[8] utilizationFail 0
scalar OsgEarthNet.uav[8] simulationTime 259200
scalar OsgEarthNet.uav[9] utilizationSecMission 760.62515258028
scalar OsgEarthNet.uav[9] utilizationSecMaintenance 245.74410321072
scalar OsgEarthNet.uav[9] utilizationSecCharge 3790
scalar OsgEarthNet.uav[9] utilizationSecIdle 254403.62974421
scalar OsgEarthNet.uav[9] utilizationEnergyMission 3587.5196990967
scalar OsgEarthNet.uav[9] utilizationEnergyMaintenance 1191.8875846863
scalar OsgEarthNet.uav[9] utilizationEnergyCharge 4779.4086914062
scalar OsgEarthNet.uav[9] utilizationEnergyOverdrawMission 0
scalar OsgEarthNet.uav[9] utilizationEnergyOverdrawMaintenance 0
scalar OsgEarthNet.uav[9] utilizationCountMissions 1
scalar OsgEarthNet.uav[9] utilizationCountManeuversMission 12
scalar OsgEarthNet.uav[9] utilizationCountManeuversMaintenance 2
scalar OsgEarthNet.uav[9] utilizationCountChargeState 1
scalar OsgEarthNet.uav[9] utilizationCountOverdrawnAfterMission 0
scalar OsgEarthNet.uav[9] utilizationCountIdleState 2
scalar OsgEarthNet.uav[9] utilizationFail 0
scalar OsgEarthNet.uav[9] simulationTime 259200
scalar OsgEarthNet.uav[10] utilizationSecMission 21387.215803968
scalar OsgEarthNet.uav[10] utilizationSecMaintenance 10194.105499724
scalar OsgEarthNet.uav[10] utilizationSecCharge 119910
scalar OsgEarthNet.uav[10] utilizationSecIdle 107708.67769631
scalar OsgEarthNet.uav[10] utilizationEnergyMission 97585.452568795
scalar OsgEarthNet.uav[10] utilizationEnergyMaintenance 47975.124099731
scalar OsgEarthNet.uav[10] utilizationEnergyCharge 144519.75537109
scalar OsgEarthNet.uav[10] utilizationEnergyOverdrawMission 0
scalar OsgEarthNet.uav[10] utilizationEnergyOverdrawMaintenance 0
scalar OsgEarthNet.uav[10] utilizationCountMissions 36
scalar OsgEarthNet.uav[10] utilizationCountManeuversMission 363
scalar OsgEarthNet.uav[10] utilizationCountManeuversMaintenance 73
scalar OsgEarthNet.uav[10] utilizationCountChargeState 36
scalar OsgEarthNet.uav[10] utilizationCountOverdrawnAfterMission 0
scalar OsgEarthNet.uav[10] utilizationCountIdleState 37
scalar OsgEarthNet.uav[10] utilizationFail 0
scalar OsgEarthNet.uav[10] simulationTime 259200
scalar OsgEarthNet.uav[11] utilizationSecMission 4754.7869334639
scalar OsgEarthNet.uav[11] utilizationSecMaintenance 2596.4662113741
scalar OsgEarthNet.uav[11] utilizationSecCharge 28800
scalar OsgEarthNet.uav[11] utilizationSecIdle 223048.74585516
scalar OsgEarthNet.uav[11] utilizationEnergyMission 22014.750289917
scalar OsgEarthNet.uav[11] utilizationEnergyMaintenance 12212.254325867
scalar OsgEarthNet.uav[11] utilizationEnergyCharge 34227.012451172
scalar OsgEarthNet.uav[11] utilizationEnergyOverdrawMission 0
scalar OsgEarthNet.uav[11] utilizationEnergyOverdrawMaintenance 0
scalar OsgEarthNet.uav[11] utilizationCountMissions 9
scalar OsgEarthNet.uav[11] utilizationCountManeuversMission 74
scalar OsgEarthNet.uav[11] utilizationCountManeuversMaintenance 18
scalar OsgEarthNet.uav[11] utilizationCountChargeState 9
scalar OsgEarthNet.uav[11] utilizationCountOverdrawnAfterMission 0
scalar OsgEarthNet.uav[11] utilizationCountIdleState 10
scalar OsgEarthNet.uav[11] utilizationFail 0
scalar OsgEarthNet.uav[11] simulationTime 259200
scalar OsgEarthNet.uav[12] utilizationSecMission 15368.255147104
scalar OsgEarthNet.uav[12] utilizationSecMaintenance 8149.9785961416
scalar OsgEarthNet.uav[12] utilizationSecCharge 87824.863485806
scalar OsgEarthNet.uav[12] utilizationSecIdle 147856.90177095
scalar OsgEarthNet.uav[12] utilizationEnergyMission 71032.123451233
scalar OsgEarthNet.uav[12] utilizationEnergyMaintenance 38204.34960556
scalar OsgEarthNet.uav[12] utilizationEnergyCharge 106614.46447754
scalar OsgEarthNet.uav[12] utilizationEnergyOverdrawMission 0
scalar OsgEarthNet.uav[12] utilizationEnergyOverdrawMaintenance 0
scalar OsgEarthNet.uav[12] utilizationCountMissions 27
scalar OsgEarthNet.uav[12] utilizationCountManeuversMission 251
scalar OsgEarthNet.uav[12] utilizationCountManeuversMaintenance 54
scalar OsgEarthNet.uav[12] utilizationCountChargeState 27
scalar OsgEarthNet.uav[12] utilizationCountOverdrawnAfterMission 0
scalar OsgEarthNet.uav[12] utilizationCountIdleState 27
scalar OsgEarthNet.uav[12] utilizationFail 0
scalar OsgEarthNet.uav[12] simulationTime 259200
scalar OsgEarthNet.uav[13] utilizationSecMission 443.5870541303
scalar OsgEarthNet.uav[13] utilizationSecMaintenance 425.80795651079
scalar OsgEarthNet.uav[13] utilizationSecCharge 3450
scalar OsgEarthNet.uav[13] utilizationSecIdle 254880.60398936
scalar OsgEarthNet.uav[13] utilizationEnergyMission 2283.3185272217
scalar OsgEarthNet.uav[13] utilizationEnergyMaintenance 2143.8710746765
scalar OsgEarthNet.uav[13] utilizationEnergyCharge 4265.66796875
scalar OsgEarthNet.uav[13] utilizationEnergyOverdrawMission 0
scalar OsgEarthNet.uav[13] utilizationEnergyOverdrawMaintenance 0
scalar OsgEarthNet.uav[13] utilizationCountMissions 1
scalar OsgEarthNet.uav[13] utilizationCountManeuversMission 7
scalar OsgEarthNet.uav[13] utilizationCountManeuversMaintenance 2
scalar OsgEarthNet.uav[13] utilizationCountChargeState 1
scalar OsgEarthNet.uav[13] utilizationCountOverdrawnAfterMission 0
scalar OsgEarthNet.uav[13] utilizationCountIdleState 2
scalar OsgEarthNet.uav[13] utilizationFail 0
scalar OsgEarthNet.uav[13] simulationTime 259200
scalar OsgEarthNet.uav[14] utilizationSecMission 28408.734750457
scalar OsgEarthNet.uav[14] utilizationSecMaintenance 14018.431079348
scalar OsgEarthNet.uav[14] utilizationSecCharge 165030.27683119
scalar OsgEarthNet.uav[14] utilizationSecIdle 51742.556339009
scalar OsgEarthNet.uav[14] utilizationEnergyMission 131448.38343811
scalar OsgEarthNet.uav[14] utilizationEnergyMaintenance 66373.30814743
scalar OsgEarthNet.uav[14] utilizationEnergyCharge 196471.56494141
scalar OsgEarthNet.uav[14] utilizationEnergyOverdrawMission 0
scalar OsgEarthNet.uav[14] utilizationEnergyOverdrawMaintenance 0
scalar OsgEarthNet.uav[14] utilizationCountMissions 52
scalar OsgEarthNet.uav[14] utilizationCountManeuversMission 468
scalar OsgEarthNet.uav[14] utilizationCountManeuversMaintenance 104
scalar OsgEarthNet.uav[14] utilizationCountChargeState 52
scalar OsgEarthNet.uav[14] utilizationCountOverdrawnAfterMission 0
scalar OsgEarthNet.uav[14] utilizationCountIdleState 52
scalar OsgEarthNet.uav[14] utilizationFail 0
scalar OsgEarthNet.uav[14] simulationTime 259200
scalar OsgEarthNet.uav[15] utilizationSecMission 887.1741082606
scalar OsgEarthNet.uav[15] utilizationSecMaintenance 125.81102573108
scalar OsgEarthNet.uav[15] utilizationSecCharge 3630
scalar OsgEarthNet.uav[15] utilizationSecIdle 254557.01386601
scalar OsgEarthNet.uav[15] utilizationEnergyMission 3949.9691009521
scalar OsgEarthNet.uav[15] utilizationEnergyMaintenance 525.0214920044
scalar OsgEarthNet.uav[15] utilizationEnergyCharge 4494.6645507812
scalar OsgEarthNet.uav[15] utilizationEnergyOverdrawMission 0
scalar OsgEarthNet.uav[15] utilizationEnergyOverdrawMaintenance 0
scalar OsgEarthNet.uav[15] utilizationCountMissions 1
scalar OsgEarthNet.uav[15] utilizationCountManeuversMission 14
scalar OsgEarthNet.uav[15] utilizationCountManeuversMaintenance 2
scalar OsgEarthNet.uav[15] utilizationCountChargeState 1
scalar OsgEarthNet.uav[15] utilizationCountOverdrawnAfterMission 0
scalar OsgEarthNet.uav[15] utilizationCountIdleState 2
scalar OsgEarthNet.uav[15] utilizationFail 0
scalar OsgEarthNet.uav[15] simulationTime 259200
scalar OsgEarthNet.uav[16] utilizationSecMission 750.20472747826
scalar OsgEarthNet.uav[16] utilizationSecMaintenance 261.68051383311
scalar OsgEarthNet.uav[16] utilizationSecCharge 3690
scalar OsgEarthNet.uav[16] utilizationSecIdle 254498.11375869
scalar OsgEarthNet.uav[16] utilizationEnergyMission 3424.9674072266
scalar OsgEarthNet.uav[16] utilizationEnergyMaintenance 1198.9288139343
scalar OsgEarthNet.uav[16] utilizationEnergyCharge 4623.9018554688
scalar OsgEarthNet.uav[16] utilizationEnergyOverdrawMission 0
scalar OsgEarthNet.uav[16] utilizationEnergyOverdrawMaintenance 0
scalar OsgEarthNet.uav[16] utilizationCountMissions 1
scalar OsgEarthNet.uav[16] utilizationCountManeuversMission 11
scalar OsgEarthNet.uav[16] utilizationCountManeuversMaintenance 2
scalar OsgEarthNet.uav[16] utilizationCountChargeState 1
scalar OsgEarthNet.uav[16] utilizationCountOverdrawnAfterMission 0
scalar OsgEarthNet.uav[16] utilizationCountIdleState 2
scalar OsgEarthNet.uav[16] utilizationFail 0
scalar OsgEarthNet.uav[16] simulationTime 259200
scalar OsgEarthNet.uav[17] utilizationSecMission 24855.626092317
scalar OsgEarthNet.uav[17] utilizationSecMaintenance 10414.638309672
scalar OsgEarthNet.uav[17] utilizationSecCharge 131850
scalar OsgEarthNet.uav[17] utilizationSecIdle 92079.734598011
scalar OsgEarthNet.uav[17] utilizationEnergyMission 113056.52958679
scalar OsgEarthNet.uav[17] utilizationEnergyMaintenance 48340.769203186
scalar OsgEarthNet.uav[17] utilizationEnergyCharge 162140.92504883
scalar OsgEarthNet.uav[17] utilizationEnergyOverdrawMission 0
scalar OsgEarthNet.uav[17] utilizationEnergyOverdrawMaintenance 0
scalar OsgEarthNet.uav[17] utilizationCountMissions 38
scalar OsgEarthNet.uav[17] utilizationCountManeuversMission 396
scalar OsgEarthNet.uav[17] utilizationCountManeuversMaintenance 76
scalar OsgEarthNet.uav[17] utilizationCountChargeState 38
scalar OsgEarthNet.uav[17] utilizationCountOverdrawnAfterMission 0
scalar OsgEarthNet.uav[17] utilizationCountIdleState 39
scalar OsgEarthNet.uav[17] utilizationFail 0
scalar OsgEarthNet.uav[17] simulationTime 259200
scalar OsgEarthNet.uav[18] utilizationSecMission 694.00169469977
scalar OsgEarthNet.uav[18] utilizationSecMaintenance 223.34597234416
scalar OsgEarthNet.uav[18] utilizationSecCharge 3440
scalar OsgEarthNet.uav[18] utilizationSecIdle 254842.65133296
scalar OsgEarthNet.uav[18] utilizationEnergyMission 3062.3330154419
scalar OsgEarthNet.uav[18] utilizationEnergyMaintenance 1088.1007804871
scalar OsgEarthNet.uav[18] utilizationEnergyCharge 4156.0346679688
scalar OsgEarthNet.uav[18] utilizationEnergyOverdrawMission 0
scalar OsgEarthNet.uav[18] utilizationEnergyOverdrawMaintenance 0
scalar OsgEarthNet.uav[18] utilizationCountMissions 1
scalar OsgEarthNet.uav[18] utilizationCountManeuversMission 13
scalar OsgEarthNet.uav[18] utilizationCountManeuversMaintenance 2
scalar OsgEarthNet.uav[18] utilizationCountChargeState 1
scalar OsgEarthNet.uav[18] utilizationCountOverdrawnAfterMission 0
scalar OsgEarthNet.uav[18] utilizationCountIdleState 2
scalar OsgEarthNet.uav[18] utilizationFail 0
scalar OsgEarthNet.uav[18] simulationTime 259200
scalar OsgEarthNet.uav[19] utilizationSecMission 760.62515258028
scalar OsgEarthNet.uav[19] utilizationSecMaintenance 245.74410321072
scalar OsgEarthNet.uav[19] utilizationSecCharge 3720
scalar OsgEarthNet.uav[19] utilizationSecIdle 254473.62974421
scalar OsgEarthNet.uav[19] utilizationEnergyMission 3413.9214248657
scalar OsgEarthNet.uav[19] utilizationEnergyMaintenance 1259.6317863464
scalar OsgEarthNet.uav[19] utilizationEnergyCharge 4673.5576171875
scalar OsgEarthNet.uav[19] utilizationEnergyOverdrawMission 0
scalar OsgEarthNet.uav[19] utilizationEnergyOverdrawMaintenance 0
scalar OsgEarthNet.uav[19] utilizationCountMissions 1
scalar OsgEarthNet.uav[19] utilizationCountManeuversMission 12
scalar OsgEarthNet.uav[19] utilizationCountManeuversMaintenance 2
scalar OsgEarthNet.uav[19] utilizationCountChargeState 1
scalar OsgEarthNet.uav[19] utilizationCountOverdrawnAfterMission 0
scalar OsgEarthNet.uav[19] utilizationCountIdleState 2
scalar OsgEarthNet.uav[19] utilizationFail 0
scalar OsgEarthNet.uav[19] simulationTime 259200
scalar OsgEarthNet.uav[20] utilizationSecMission 750.20472747826
scalar OsgEarthNet.uav[20] utilizationSecMaintenance 261.68051383311
scalar OsgEarthNet.uav[20] utilizationSecCharge 3850
scalar OsgEarthNet.uav[20] utilizationSecIdle 254338.11375869
scalar OsgEarthNet.uav[20] utilizationEnergyMission 3621.1722869873
scalar OsgEarthNet.uav[20] utilizationEnergyMaintenance 1313.5024833679
scalar OsgEarthNet.uav[20] utilizationEnergyCharge 4934.6708984375
scalar OsgEarthNet.uav[20] utilizationEnergyOverdrawMission 0
scalar OsgEarthNet.uav[20] utilizationEnergyOverdrawMaintenance 0
scalar OsgEarthNet.uav[20] utilizationCountMissions 1
scalar OsgEarthNet.uav[20] utilizationCountManeuversMission 11
scalar OsgEarthNet.uav[20] utilizationCountManeuversMaintenance 2
scalar OsgEarthNet.uav[20] utilizationCountChargeState 1
scalar OsgEarthNet.uav[20] utilizationCountOverdrawnAfterMission 0
scalar OsgEarthNet.uav[20] utilizationCountIdleState 2
scalar OsgEarthNet.uav[20] utilizationFail 0
scalar OsgEarthNet.uav[20] simulationTime 259200
scalar OsgEarthNet.uav[21] utilizationSecMission 19173.467477027
scalar OsgEarthNet.uav[21] utilizationSecMaintenance 9775.0704011603
scalar OsgEarthNet.uav[21] utilizationSecCharge 107149.090557
scalar OsgEarthNet.uav[21] utilizationSecIdle 123102.37056481
scalar OsgEarthNet.uav[21] utilizationEnergyMission 88647.146595001
scalar OsgEarthNet.uav[21] utilizationEnergyMaintenance 45273.298278809
scalar OsgEarthNet.uav[21] utilizationEnergyCharge 131337.27197266
scalar OsgEarthNet.uav[21] utilizationEnergyOverdrawMission 0
scalar OsgEarthNet.uav[21] utilizationEnergyOverdrawMaintenance 0
scalar OsgEarthNet.uav[21] utilizationCountMissions 32
scalar OsgEarthNet.uav[21] utilizationCountManeuversMission 323
scalar OsgEarthNet.uav[21] utilizationCountManeuversMaintenance 64
scalar OsgEarthNet.uav[21] utilizationCountChargeState 32
scalar OsgEarthNet.uav[21] utilizationCountOverdrawnAfterMission 0
scalar OsgEarthNet.uav[21] utilizationCountIdleState 32
scalar OsgEarthNet.uav[21] utilizationFail 0
scalar OsgEarthNet.uav[21] simulationTime 259200
scalar OsgEarthNet.uav[22] utilizationSecMission 887.1741082606
scalar OsgEarthNet.uav[22] utilizationSecMaintenance 125.81102573108
scalar OsgEarthNet.uav[22] utilizationSecCharge 3680
scalar OsgEarthNet.uav[22] utilizationSecIdle 254507.01386601
scalar OsgEarthNet.uav[22] utilizationEnergyMission 3848.7487945557
scalar OsgEarthNet.uav[22] utilizationEnergyMaintenance 586.62770843506
scalar OsgEarthNet.uav[22] utilizationEnergyCharge 4593.7998046875
scalar OsgEarthNet.uav[22] utilizationEnergyOverdrawMission 0
scalar OsgEarthNet.uav[22] utilizationEnergyOverdrawMaintenance 0
scalar OsgEarthNet.uav[22] utilizationCountMissions 1
scalar OsgEarthNet.uav[22] utilizationCountManeuversMission 14
scalar OsgEarthNet.uav[22] utilizationCountManeuversMaintenance 2
scalar OsgEarthNet.uav[22] utilizationCountChargeState 1
scalar OsgEarthNet.uav[22] utilizationCountOverdrawnAfterMission 0
scalar OsgEarthNet.uav[22] utilizationCountIdleState 2
scalar OsgEarthNet.uav[22] utilizationFail 0
scalar OsgEarthNet.uav[22] simulationTime 259200
scalar OsgEarthNet.uav[23] utilizationSecMission 29982.562469372
scalar OsgEarthNet.uav[23] utilizationSecMaintenance 12420.940402465
scalar OsgEarthNet.uav[23] utilizationSecCharge 158290.32306149
scalar OsgEarthNet.uav[23] utilizationSecIdle 58506.173066668
scalar OsgEarthNet.uav[23] utilizationEnergyMission 138489.37479401
scalar OsgEarthNet.uav[23] utilizationEnergyMaintenance 58494.367706299
scalar OsgEarthNet.uav[23] utilizationEnergyCharge 191937.48147583
scalar OsgEarthNet.uav[23] utilizationEnergyOverdrawMission 0
scalar OsgEarthNet.uav[23] utilizationEnergyOverdrawMaintenance 0
scalar OsgEarthNet.uav[23] utilizationCountMissions 48
scalar OsgEarthNet.uav[23] utilizationCountManeuversMission 475
scalar OsgEarthNet.uav[23] utilizationCountManeuversMaintenance 96
scalar OsgEarthNet.uav[23] utilizationCountChargeState 48
scalar OsgEarthNet.uav[23] utilizationCountOverdrawnAfterMission 0
scalar OsgEarthNet.uav[23] utilizationCountIdleState 48
scalar OsgEarthNet.uav[23] utilizationFail 0
scalar OsgEarthNet.uav[23] simulationTime 259200
scalar OsgEarthNet.uav[24] utilizationSecMission 25708.368582396
scalar OsgEarthNet.uav[24] utilizationSecMaintenance 12852.172074583
scalar OsgEarthNet.uav[24] utilizationSecCharge 149069.44006756
scalar OsgEarthNet.uav[24] utilizationSecIdle 71570.018275466
scalar OsgEarthNet.uav[24] utilizationEnergyMission 118415.26560593
scalar OsgEarthNet.uav[24] utilizationEnergyMaintenance 61154.838233948
scalar OsgEarthNet.uav[24] utilizationEnergyCharge 179856.67382812
scalar OsgEarthNet.uav[24] utilizationEnergyOverdrawMission 0
scalar OsgEarthNet.uav[24] utilizationEnergyOverdrawMaintenance 0
scalar OsgEarthNet.uav[24] utilizationCountMissions 45
scalar OsgEarthNet.uav[24] utilizationCountManeuversMission 434
scalar OsgEarthNet.uav[24] utilizationCountManeuversMaintenance 90
scalar OsgEarthNet.uav[24] utilizationCountChargeState 45
scalar OsgEarthNet.uav[24] utilizationCountOverdrawnAfterMission 0
scalar OsgEarthNet.uav[24] utilizationCountIdleState 45
scalar OsgEarthNet.uav[24] utilizationFail 0
scalar OsgEarthNet.uav[24] simulationTime 259200
scalar OsgEarthNet.uav[25] utilizationSecMission 694.00169469977
scalar OsgEarthNet.uav[25] utilizationSecMaintenance 223.34597234416
scalar OsgEarthNet.uav[25] utilizationSecCharge 3390
scalar OsgEarthNet.uav[25] utilizationSecIdle 254892.65133296
scalar OsgEarthNet.uav[25] utilizationEnergyMission 3267.3997192383
scalar OsgEarthNet.uav[25] utilizationEnergyMaintenance 914.26197433472
scalar OsgEarthNet.uav[25] utilizationEnergyCharge 4102.9541015625
scalar OsgEarthNet.uav[25] utilizationEnergyOverdrawMission 0
scalar OsgEarthNet.uav[25] utilizationEnergyOverdrawMaintenance 0
scalar OsgEarthNet.uav[25] utilizationCountMissions 1
scalar OsgEarthNet.uav[25] utilizationCountManeuversMission 13
scalar OsgEarthNet.uav[25] utilizationCountManeuversMaintenance 2
scalar OsgEarthNet.uav[25] utilizationCountChargeState 1
scalar OsgEarthNet.uav[25] utilizationCountOverdrawnAfterMission 0
scalar OsgEarthNet.uav[25] utilizationCountIdleState 2
scalar OsgEarthNet.uav[25] utilizationFail 0
scalar OsgEarthNet.uav[25] simulationTime 259200
scalar OsgEarthNet.uav[26] utilizationSecMission 7063.5784927315
scalar OsgEarthNet.uav[26] utilizationSecMaintenance 3466.0986588136
scalar OsgEarthNet.uav[26] utilizationSecCharge 40770
scalar OsgEarthNet.uav[26] utilizationSecIdle 207900.32184845
scalar OsgEarthNet.uav[26] utilizationEnergyMission 32739.149536133
scalar OsgEarthNet.uav[26] utilizationEnergyMaintenance 16821.088085175
scalar OsgEarthNet.uav[26] utilizationEnergyCharge 49657.601806641
scalar OsgEarthNet.uav[26] utilizationEnergyOverdrawMission 0
scalar OsgEarthNet.uav[26] utilizationEnergyOverdrawMaintenance 0
scalar OsgEarthNet.uav[26] utilizationCountMissions 12
scalar OsgEarthNet.uav[26] utilizationCountManeuversMission 116
scalar OsgEarthNet.uav[26] utilizationCountManeuversMaintenance 24
scalar OsgEarthNet.uav[26] utilizationCountChargeState 12
scalar OsgEarthNet.uav[26] utilizationCountOverdrawnAfterMission 0
scalar OsgEarthNet.uav[26] utilizationCountIdleState 13
scalar OsgEarthNet.uav[26] utilizationFail 0
scalar OsgEarthNet.uav[26] simulationTime 259200
scalar OsgEarthNet.uav[27] utilizationSecMission 656.98932075123
scalar OsgEarthNet.uav[27] utilizationSecMaintenance 757.76865647216
scalar OsgEarthNet.uav[27] utilizationSecCharge 5860
scalar OsgEarthNet.uav[27] utilizationSecIdle 251925.24102278
scalar OsgEarthNet.uav[27] utilizationEnergyMission 3087.9603881836
scalar OsgEarthNet.uav[27] utilizationEnergyMaintenance 3560.7187843323
scalar OsgEarthNet.uav[27] utilizationEnergyCharge 6753.4357910156
scalar OsgEarthNet.uav[27] utilizationEnergyOverdrawMission 0
scalar OsgEarthNet.uav[27] utilizationEnergyOverdrawMaintenance 0
scalar OsgEarthNet.uav[27] utilizationCountMissions 2
scalar OsgEarthNet.uav[27] utilizationCountManeuversMission 10
scalar OsgEarthNet.uav[27] utilizationCountManeuversMaintenance 4
scalar OsgEarthNet.uav[27] utilizationCountChargeState 2
scalar OsgEarthNet.uav[27] utilizationCountOverdrawnAfterMission 0
scalar OsgEarthNet.uav[27] utilizationCountIdleState 3
scalar OsgEarthNet.uav[27] utilizationFail 0
scalar OsgEarthNet.uav[27] simulationTime 259200
scalar OsgEarthNet.uav[28] utilizationSecMission 750.20472747826
scalar OsgEarthNet.uav[28] utilizationSecMaintenance 218.84515192887
scalar OsgEarthNet.uav[28] utilizationSecCharge 3450
scalar OsgEarthNet.uav[28] utilizationSecIdle 254780.94912059
scalar OsgEarthNet.uav[28] utilizationEnergyMission 3347.5521240234
scalar OsgEarthNet.uav[28] utilizationEnergyMaintenance 954.11022186279
scalar OsgEarthNet.uav[28] utilizationEnergyCharge 4264.3100585938
scalar OsgEarthNet.uav[28] utilizationEnergyOverdrawMission 0
scalar OsgEarthNet.uav[28] utilizationEnergyOverdrawMaintenance 0
scalar OsgEarthNet.uav[28] utilizationCountMissions 1
scalar OsgEarthNet.uav[28] utilizationCountManeuversMission 11
scalar OsgEarthNet.uav[28] utilizationCountManeuversMaintenance 2
scalar OsgEarthNet.uav[28] utilizationCountChargeState 1
scalar OsgEarthNet.uav[28] utilizationCountOverdrawnAfterMission 0
scalar OsgEarthNet.uav[28] utilizationCountIdleState 2
scalar OsgEarthNet.uav[28] utilizationFail 0
scalar OsgEarthNet.uav[28] simulationTime 259200
scalar OsgEarthNet.uav[29] utilizationSecMission 760.62515258028
scalar OsgEarthNet.uav[29] utilizationSecMaintenance 245.74410321072
scalar OsgEarthNet.uav[29] utilizationSecCharge 3630
scalar OsgEarthNet.uav[29] utilizationSecIdle 254563.62974421
scalar OsgEarthNet.uav[29] utilizationEnergyMission 3404.1933441162
scalar OsgEarthNet.uav[29] utilizationEnergyMaintenance 1106.1382865906
scalar OsgEarthNet.uav[29] utilizationEnergyCharge 4510.33203125
scalar OsgEarthNet.uav[29] utilizationEnergyOverdrawMission 0
scalar OsgEarthNet.uav[29] utilizationEnergyOverdrawMaintenance 0
scalar OsgEarthNet.uav[29] utilizationCountMissions 1
scalar OsgEarthNet.uav[29] utilizationCountManeuversMission 12
scalar OsgEarthNet.uav[29] utilizationCountManeuversMaintenance 2
scalar OsgEarthNet.uav[29] utilizationCountChargeState 1
scalar OsgEarthNet.uav[29] utilizationCountOverdrawnAfterMission 0
scalar OsgEarthNet.uav[29] utilizationCountIdleState 2
scalar OsgEarthNet.uav[29] utilizationFail 0
scalar OsgEarthNet.uav[29] simulationTime 259200
scalar OsgEarthNet.uav[30] utilizationSecMission 760.62515258028
scalar OsgEarthNet.uav[30] utilizationSecMaintenance 245.74410321072
scalar OsgEarthNet.uav[30] utilizationSecCharge 3760
scalar OsgEarthNet.uav[30] utilizationSecIdle 254433.62974421
scalar OsgEarthNet.uav[30] utilizationEnergyMission 3504.1549072266
scalar OsgEarthNet.uav[30] utilizationEnergyMaintenance 1242.9916191101
scalar OsgEarthNet.uav[30] utilizationEnergyCharge 4747.1435546875
scalar OsgEarthNet.uav[30] utilizationEnergyOverdrawMission 0
scalar OsgEarthNet.uav[30] utilizationEnergyOverdrawMaintenance 0
scalar OsgEarthNet.uav[30] utilizationCountMissions 1
scalar OsgEarthNet.uav[30] utilizationCountManeuversMission 12
scalar OsgEarthNet.uav[30] utilizationCountManeuversMaintenance 2
scalar OsgEarthNet.uav[30] utilizationCountChargeState 1
scalar OsgEarthNet.uav[30] utilizationCountOverdrawnAfterMission 0
scalar OsgEarthNet.uav[30] utilizationCountIdleState 2
scalar OsgEarthNet.uav[30] utilizationFail 0
scalar OsgEarthNet.uav[30] simulationTime 259200
scalar OsgEarthNet.uav[31] utilizationSecMission 27241.837961761
scalar OsgEarthNet.uav[31] utilizationSecMaintenance 15748.019857945
scalar OsgEarthNet.uav[31] utilizationSecCharge 166338.14067291
scalar OsgEarthNet.uav[31] utilizationSecIdle 49872.000507383
scalar OsgEarthNet.uav[31] utilizationEnergyMission 126355.72264099
scalar OsgEarthNet.uav[31] utilizationEnergyMaintenance 74153.198581696
scalar OsgEarthNet.uav[31] utilizationEnergyCharge 200105.39233398
scalar OsgEarthNet.uav[31] utilizationEnergyOverdrawMission 0
scalar OsgEarthNet.uav[31] utilizationEnergyOverdrawMaintenance 0
scalar OsgEarthNet.uav[31] utilizationCountMissions 51
scalar OsgEarthNet.uav[31] utilizationCountManeuversMission 448
scalar OsgEarthNet.uav[31] utilizationCountManeuversMaintenance 102
scalar OsgEarthNet.uav[31] utilizationCountChargeState 51
scalar OsgEarthNet.uav[31] utilizationCountOverdrawnAfterMission 0
scalar OsgEarthNet.uav[31] utilizationCountIdleState 51
scalar OsgEarthNet.uav[31] utilizationFail 0
scalar OsgEarthNet.uav[31] simulationTime 259200
scalar OsgEarthNet.uav[32] utilizationSecMission 887.1741082606
scalar OsgEarthNet.uav[32] utilizationSecMaintenance 125.81102573108
scalar OsgEarthNet.uav[32] utilizationSecCharge 3830
scalar OsgEarthNet.uav[32] utilizationSecIdle 254357.01386601
scalar OsgEarthNet.uav[32] utilizationEnergyMission 4146.4366760254
scalar OsgEarthNet.uav[32] utilizationEnergyMaintenance 631.57807159424
scalar OsgEarthNet.uav[32] utilizationEnergyCharge 4889.4140625
scalar OsgEarthNet.uav[32] utilizationEnergyOverdrawMission 0
scalar OsgEarthNet.uav[32] utilizationEnergyOverdrawMaintenance 0
scalar OsgEarthNet.uav[32] utilizationCountMissions 1
scalar OsgEarthNet.uav[32] utilizationCountManeuversMission 14
scalar OsgEarthNet.uav[32] utilizationCountManeuversMaintenance 2
scalar OsgEarthNet.uav[32] utilizationCountChargeState 1
scalar OsgEarthNet.uav[32] utilizationCountOverdrawnAfterMission 0
scalar OsgEarthNet.uav[32] utilizationCountIdleState 2
scalar OsgEarthNet.uav[32] utilizationFail 0
scalar OsgEarthNet.uav[32] simulationTime 259200
scalar OsgEarthNet.uav[33] utilizationSecMission 760.62515258028
scalar OsgEarthNet.uav[33] utilizationSecMaintenance 291.95923480269
scalar OsgEarthNet.uav[33] utilizationSecCharge 3840
scalar OsgEarthNet.uav[33] utilizationSecIdle 254307.41461262
scalar OsgEarthNet.uav[33] utilizationEnergyMission 3476.9182281494
scalar OsgEarthNet.uav[33] utilizationEnergyMaintenance 1383.1271896362
scalar OsgEarthNet.uav[33] utilizationEnergyCharge 4860.0483398438
scalar OsgEarthNet.uav[33] utilizationEnergyOverdrawMission 0
scalar OsgEarthNet.uav[33] utilizationEnergyOverdrawMaintenance 0
scalar OsgEarthNet.uav[33] utilizationCountMissions 1
scalar OsgEarthNet.uav[33] utilizationCountManeuversMission 12
scalar OsgEarthNet.uav[33] utilizationCountManeuversMaintenance 2
scalar OsgEarthNet.uav[33] utilizationCountChargeState 1
scalar OsgEarthNet.uav[33] utilizationCountOverdrawnAfterMission 0
scalar OsgEarthNet.uav[33] utilizationCountIdleState 2
scalar OsgEarthNet.uav[33] utilizationFail 0
scalar OsgEarthNet.uav[33] simulationTime 259200
scalar OsgEarthNet.uav[34] utilizationSecMission 2470.9846159761
scalar OsgEarthNet.uav[34] utilizationSecMaintenance 1298.8065360613
scalar OsgEarthNet.uav[34] utilizationSecCharge 13790
scalar OsgEarthNet.uav[34] utilizationSecIdle 241640.20784796
scalar OsgEarthNet.uav[34] utilizationEnergyMission 10837.745727539
scalar OsgEarthNet.uav[34] utilizationEnergyMaintenance 6233.7229576111
scalar OsgEarthNet.uav[34] utilizationEnergyCharge 16998.766113281
scalar OsgEarthNet.uav[34] utilizationEnergyOverdrawMission 0
scalar OsgEarthNet.uav[34] utilizationEnergyOverdrawMaintenance 0
scalar OsgEarthNet.uav[34] utilizationCountMissions 4
scalar OsgEarthNet.uav[34] utilizationCountManeuversMission 40
scalar OsgEarthNet.uav[34] utilizationCountManeuversMaintenance 8
scalar OsgEarthNet.uav[34] utilizationCountChargeState 4
scalar OsgEarthNet.uav[34] utilizationCountOverdrawnAfterMission 0
scalar OsgEarthNet.uav[34] utilizationCountIdleState 5
scalar OsgEarthNet.uav[34] utilizationFail 0
scalar OsgEarthNet.uav[34] simulationTime 259200
scalar OsgEarthNet.uav[35] utilizationSecMission 27337.194526408
scalar OsgEarthNet.uav[35] utilizationSecMaintenance 13629.338971656
scalar OsgEarthNet.uav[35] utilizationSecCharge 158661.46550194
scalar OsgEarthNet.uav[35] utilizationSecIdle 59572
scalar OsgEarthNet.uav[35] utilizationEnergyMission 127172.38265084
scalar OsgEarthNet.uav[35] utilizationEnergyMaintenance 64242.426540375
scalar OsgEarthNet.uav[35] utilizationEnergyCharge 190496.09692383
scalar OsgEarthNet.uav[35] utilizationEnergyOverdrawMission 0
scalar OsgEarthNet.uav[35] utilizationEnergyOverdrawMaintenance 0
scalar OsgEarthNet.uav[35] utilizationCountMissions 49
scalar OsgEarthNet.uav[35] utilizationCountManeuversMission 456
scalar OsgEarthNet.uav[35] utilizationCountManeuversMaintenance 97
scalar OsgEarthNet.uav[35] utilizationCountChargeState 49
scalar OsgEarthNet.uav[35] utilizationCountOverdrawnAfterMission 0
scalar OsgEarthNet.uav[35] utilizationCountIdleState 49
scalar OsgEarthNet.uav[35] utilizationFail 0
scalar OsgEarthNet.uav[35] simulationTime 259200
scalar OsgEarthNet.uav[36] utilizationSecMission 760.62515258028
scalar OsgEarthNet.uav[36] utilizationSecMaintenance 245.74410321072
scalar OsgEarthNet.uav[36] utilizationSecCharge 3700
scalar OsgEarthNet.uav[36] utilizationSecIdle 254493.62974421
scalar OsgEarthNet.uav[36] utilizationEnergyMission 3518.4662628174
scalar OsgEarthNet.uav[36] utilizationEnergyMaintenance 1109.2316398621
scalar OsgEarthNet.uav[36] utilizationEnergyCharge 4627.7021484375
scalar OsgEarthNet.uav[36] utilizationEnergyOverdrawMission 0
scalar OsgEarthNet.uav[36] utilizationEnergyOverdrawMaintenance 0
scalar OsgEarthNet.uav[36] utilizationCountMissions 1
scalar OsgEarthNet.uav[36] utilizationCountManeuversMission 12
scalar OsgEarthNet.uav[36] utilizationCountManeuversMaintenance 2
scalar OsgEarthNet.uav[36] utilizationCountChargeState 1
scalar OsgEarthNet.uav[36] utilizationCountOverdrawnAfterMission 0
scalar OsgEarthNet.uav[36] utilizationCountIdleState 2
scalar OsgEarthNet.uav[36] utilizationFail 0
scalar OsgEarthNet.uav[36] simulationTime 259200
scalar OsgEarthNet.uav[37] utilizationSecMission 443.5870541303
scalar OsgEarthNet.uav[37] utilizationSecMaintenance 465.20364065929
scalar OsgEarthNet.uav[37] utilizationSecCharge 3330
scalar OsgEarthNet.uav[37] utilizationSecIdle 254961.20830521
scalar OsgEarthNet.uav[37] utilizationEnergyMission 1991.9589538574
scalar OsgEarthNet.uav[37] utilizationEnergyMaintenance 2146.9539604187
scalar OsgEarthNet.uav[37] utilizationEnergyCharge 4054.8491210938
scalar OsgEarthNet.uav[37] utilizationEnergyOverdrawMission 0
scalar OsgEarthNet.uav[37] utilizationEnergyOverdrawMaintenance 0
scalar OsgEarthNet.uav[37] utilizationCountMissions 1
scalar OsgEarthNet.uav[37] utilizationCountManeuversMission 7
scalar OsgEarthNet.uav[37] utilizationCountManeuversMaintenance 2
scalar OsgEarthNet.uav[37] utilizationCountChargeState 1
scalar OsgEarthNet.uav[37] utilizationCountOverdrawnAfterMission 0
scalar OsgEarthNet.uav[37] utilizationCountIdleState 2
scalar OsgEarthNet.uav[37] utilizationFail 0
scalar OsgEarthNet.uav[37] simulationTime 259200
scalar OsgEarthNet.uav[38] utilizationSecMission 5700.8609484516
scalar OsgEarthNet.uav[38] utilizationSecMaintenance 1108.2175262087
scalar OsgEarthNet.uav[38] utilizationSecCharge 24710.91088377
scalar OsgEarthNet.uav[38] utilizationSecIdle 227680.00964157
scalar OsgEarthNet.uav[38] utilizationEnergyMission 26384.272224426
scalar OsgEarthNet.uav[38] utilizationEnergyMaintenance 4879.949508667
scalar OsgEarthNet.uav[38] utilizationEnergyCharge 31378.743408203
scalar OsgEarthNet.uav[38] utilizationEnergyOverdrawMission 0
scalar OsgEarthNet.uav[38] utilizationEnergyOverdrawMaintenance 0
scalar OsgEarthNet.uav[38] utilizationCountMissions 7
scalar OsgEarthNet.uav[38] utilizationCountManeuversMission 91
scalar OsgEarthNet.uav[38] utilizationCountManeuversMaintenance 14
scalar OsgEarthNet.uav[38] utilizationCountChargeState 7
scalar OsgEarthNet.uav[38] utilizationCountOverdrawnAfterMission 0
scalar OsgEarthNet.uav[38] utilizationCountIdleState 7
scalar OsgEarthNet.uav[38] utilizationFail 0
scalar OsgEarthNet.uav[38] simulationTime 259200
scalar OsgEarthNet.uav[39] utilizationSecMission 684.4732299383
scalar OsgEarthNet.uav[39] utilizationSecMaintenance 298.56834692969
scalar OsgEarthNet.uav[39] utilizationSecCharge 3690
scalar OsgEarthNet.uav[39] utilizationSecIdle 254526.95742313
scalar OsgEarthNet.uav[39] utilizationEnergyMission 3152.139541626
scalar OsgEarthNet.uav[39] utilizationEnergyMaintenance 1442.7777023315
scalar OsgEarthNet.uav[39] utilizationEnergyCharge 4594.916015625
scalar OsgEarthNet.uav[39] utilizationEnergyOverdrawMission 0
scalar OsgEarthNet.uav[39] utilizationEnergyOverdrawMaintenance 0
scalar OsgEarthNet.uav[39] utilizationCountMissions 1
scalar OsgEarthNet.uav[39] utilizationCountManeuversMission 11
scalar OsgEarthNet.uav[39] utilizationCountManeuversMaintenance 2
scalar OsgEarthNet.uav[39] utilizationCountChargeState 1
scalar OsgEarthNet.uav[39] utilizationCountOverdrawnAfterMission 0
scalar OsgEarthNet.uav[39] utilizationCountIdleState 2
scalar OsgEarthNet.uav[39] utilizationFail 0
scalar OsgEarthNet.uav[39] simulationTime 259200
scalar OsgEarthNet.uav[40] utilizationSecMission 17604.032691052
scalar OsgEarthNet.uav[40] utilizationSecMaintenance 9601.1538675242
scalar OsgEarthNet.uav[40] utilizationSecCharge 104910
scalar OsgEarthNet.uav[40] utilizationSecIdle 127084.81244142
scalar OsgEarthNet.uav[40] utilizationEnergyMission 80528.385414124
scalar OsgEarthNet.uav[40] utilizationEnergyMaintenance 44954.93913269
scalar OsgEarthNet.uav[40] utilizationEnergyCharge 125481.71166992
scalar OsgEarthNet.uav[40] utilizationEnergyOverdrawMission 0
scalar OsgEarthNet.uav[40] utilizationEnergyOverdrawMaintenance 0
scalar OsgEarthNet.uav[40] utilizationCountMissions 32
scalar OsgEarthNet.uav[40] utilizationCountManeuversMission 289
scalar OsgEarthNet.uav[40] utilizationCountManeuversMaintenance 64
scalar OsgEarthNet.uav[40] utilizationCountChargeState 32
scalar OsgEarthNet.uav[40] utilizationCountOverdrawnAfterMission 0
scalar OsgEarthNet.uav[40] utilizationCountIdleState 33
scalar OsgEarthNet.uav[40] utilizationFail 0
scalar OsgEarthNet.uav[40] simulationTime 259200
scalar OsgEarthNet.uav[41] utilizationSecMission 29554.11830847
scalar OsgEarthNet.uav[41] utilizationSecMaintenance 13673.88069153
scalar OsgEarthNet.uav[41] utilizationSecCharge 163480
scalar OsgEarthNet.uav[41] utilizationSecIdle 52492
scalar OsgEarthNet.uav[41] utilizationEnergyMission 137280.93699646
scalar OsgEarthNet.uav[41] utilizationEnergyMaintenance 64376.245012578
scalar OsgEarthNet.uav[41] utilizationEnergyCharge 197461.10107422
scalar OsgEarthNet.uav[41] utilizationEnergyOverdrawMission 0
scalar OsgEarthNet.uav[41] utilizationEnergyOverdrawMaintenance 0
scalar OsgEarthNet.uav[41] utilizationCountMissions 50
scalar OsgEarthNet.uav[41] utilizationCountManeuversMission 484
scalar OsgEarthNet.uav[41] utilizationCountManeuversMaintenance 99
scalar OsgEarthNet.uav[41] utilizationCountChargeState 49
scalar OsgEarthNet.uav[41] utilizationCountOverdrawnAfterMission 0
scalar OsgEarthNet.uav[41] utilizationCountIdleState 50
scalar OsgEarthNet.uav[41] utilizationFail 0
scalar OsgEarthNet.uav[41] simulationTime 259200
scalar OsgEarthNet.uav[42] utilizationSecMission 887.1741082606
scalar OsgEarthNet.uav[42] utilizationSecMaintenance 125.81102573108
scalar OsgEarthNet.uav[42] utilizationSecCharge 3830
scalar OsgEarthNet.uav[42] utilizationSecIdle 254357.01386601
scalar OsgEarthNet.uav[42] utilizationEnergyMission 4268.287979126
scalar OsgEarthNet.uav[42] utilizationEnergyMaintenance 656.32189178467
scalar OsgEarthNet.uav[42] utilizationEnergyCharge 4854.7299804688
scalar OsgEarthNet.uav[42] utilizationEnergyOverdrawMission 0
scalar OsgEarthNet.uav[42] utilizationEnergyOverdrawMaintenance 0
scalar OsgEarthNet.uav[42] utilizationCountMissions 1
scalar OsgEarthNet.uav[42] utilizationCountManeuversMission 14
scalar OsgEarthNet.uav[42] utilizationCountManeuversMaintenance 2
scalar OsgEarthNet.uav[42] utilizationCountChargeState 1
scalar OsgEarthNet.uav[42] utilizationCountOverdrawnAfterMission 0
scalar OsgEarthNet.uav[42] utilizationCountIdleState 2
scalar OsgEarthNet.uav[42] utilizationFail 0
scalar OsgEarthNet.uav[42] simulationTime 259200
scalar OsgEarthNet.uav[43] utilizationSecMission 213.40226662092
scalar OsgEarthNet.uav[43] utilizationSecMaintenance 474.30151219871
scalar OsgEarthNet.uav[43] utilizationSecCharge 3080
scalar OsgEarthNet.uav[43] utilizationSecIdle 255432.29522118
scalar OsgEarthNet.uav[43] utilizationEnergyMission 987.06732177734
scalar OsgEarthNet.uav[43] utilizationEnergyMaintenance 2513.8230819702
scalar OsgEarthNet.uav[43] utilizationEnergyCharge 3500.8959960938
scalar OsgEarthNet.uav[43] utilizationEnergyOverdrawMission 0
scalar OsgEarthNet.uav[43] utilizationEnergyOverdrawMaintenance 0
scalar OsgEarthNet.uav[43] utilizationCountMissions 1
scalar OsgEarthNet.uav[43] utilizationCountManeuversMission 3
scalar OsgEarthNet.uav[43] utilizationCountManeuversMaintenance 2
scalar OsgEarthNet.uav[43] utilizationCountChargeState 1
scalar OsgEarthNet.uav[43] utilizationCountOverdrawnAfterMission 0
scalar OsgEarthNet.uav[43] utilizationCountIdleState 2
scalar OsgEarthNet.uav[43] utilizationFail 0
scalar OsgEarthNet.uav[43] simulationTime 259200
scalar OsgEarthNet.uav[44] utilizationSecMission 24241.964748709
scalar OsgEarthNet.uav[44] utilizationSecMaintenance 8354.772986507
scalar OsgEarthNet.uav[44] utilizationSecCharge 119790.93857598
scalar OsgEarthNet.uav[44] utilizationSecIdle 106812.3226888
scalar OsgEarthNet.uav[44] utilizationEnergyMission 110678.2436142
scalar OsgEarthNet.uav[44] utilizationEnergyMaintenance 38630.145793915
scalar OsgEarthNet.uav[44] utilizationEnergyCharge 146407.42358398
scalar OsgEarthNet.uav[44] utilizationEnergyOverdrawMission 0
scalar OsgEarthNet.uav[44] utilizationEnergyOverdrawMaintenance 0
scalar OsgEarthNet.uav[44] utilizationCountMissions 36
scalar OsgEarthNet.uav[44] utilizationCountManeuversMission 395
scalar OsgEarthNet.uav[44] utilizationCountManeuversMaintenance 72
scalar OsgEarthNet.uav[44] utilizationCountChargeState 36
scalar OsgEarthNet.uav[44] utilizationCountOverdrawnAfterMission 0
scalar OsgEarthNet.uav[44] utilizationCountIdleState 36
scalar OsgEarthNet.uav[44] utilizationFail 0
scalar OsgEarthNet.uav[44] simulationTime 259200
scalar OsgEarthNet.uav[45] utilizationSecMission 26306.01843742
scalar OsgEarthNet.uav[45] utilizationSecMaintenance 10357.625415876
scalar OsgEarthNet.uav[45] utilizationSecCharge 141170
scalar OsgEarthNet.uav[45] utilizationSecIdle 81366.355146703
scalar OsgEarthNet.uav[45] utilizationEnergyMission 121049.30666351
scalar OsgEarthNet.uav[45] utilizationEnergyMaintenance 48039.416877747
scalar OsgEarthNet.uav[45] utilizationEnergyCharge 169170.82861328
scalar OsgEarthNet.uav[45] utilizationEnergyOverdrawMission 0
scalar OsgEarthNet.uav[45] utilizationEnergyOverdrawMaintenance 0
scalar OsgEarthNet.uav[45] utilizationCountMissions 43
scalar OsgEarthNet.uav[45] utilizationCountManeuversMission 433
scalar OsgEarthNet.uav[45] utilizationCountManeuversMaintenance 86
scalar OsgEarthNet.uav[45] utilizationCountChargeState 43
scalar OsgEarthNet.uav[45] utilizationCountOverdrawnAfterMission 0
scalar OsgEarthNet.uav[45] utilizationCountIdleState 44
scalar OsgEarthNet.uav[45] utilizationFail 0
scalar OsgEarthNet.uav[45] simulationTime 259200
scalar OsgEarthNet.uav[46] utilizationSecMission 32856.803376659
scalar OsgEarthNet.uav[46] utilizationSecMaintenance 11617.635226902
scalar OsgEarthNet.uav[46] utilizationSecCharge 168813.56039644
scalar OsgEarthNet.uav[46] utilizationSecIdle 45912
scalar OsgEarthNet.uav[46] utilizationEnergyMission 153189.02474736
scalar OsgEarthNet.uav[46] utilizationEnergyMaintenance 55076.311336517
scalar OsgEarthNet.uav[46] utilizationEnergyCharge 207658.44970703
scalar OsgEarthNet.uav[46] utilizationEnergyOverdrawMission 0
scalar OsgEarthNet.uav[46] utilizationEnergyOverdrawMaintenance 0
scalar OsgEarthNet.uav[46] utilizationCountMissions 49
scalar OsgEarthNet.uav[46] utilizationCountManeuversMission 532
scalar OsgEarthNet.uav[46] utilizationCountManeuversMaintenance 97
scalar OsgEarthNet.uav[46] utilizationCountChargeState 49
scalar OsgEarthNet.uav[46] utilizationCountOverdrawnAfterMission 0
scalar OsgEarthNet.uav[46] utilizationCountIdleState 49
scalar OsgEarthNet.uav[46] utilizationFail 0
scalar OsgEarthNet.uav[46] simulationTime 259200
scalar OsgEarthNet.uav[47] utilizationSecMission 27276.699885213
scalar OsgEarthNet.uav[47] utilizationSecMaintenance 13943.960078823
scalar OsgEarthNet.uav[47] utilizationSecCharge 158468.28323945
scalar OsgEarthNet.uav[47] utilizationSecIdle 59511.055796515
scalar OsgEarthNet.uav[47] utilizationEnergyMission 125551.89406586
scalar OsgEarthNet.uav[47] utilizationEnergyMaintenance 65606.727790833
scalar OsgEarthNet.uav[47] utilizationEnergyCharge 191168.79003906
scalar OsgEarthNet.uav[47] utilizationEnergyOverdrawMission 0
scalar OsgEarthNet.uav[47] utilizationEnergyOverdrawMaintenance 0
scalar OsgEarthNet.uav[47] utilizationCountMissions 48
scalar OsgEarthNet.uav[47] utilizationCountManeuversMission 446
scalar OsgEarthNet.uav[47] utilizationCountManeuversMaintenance 96
scalar OsgEarthNet.uav[47] utilizationCountChargeState 48
scalar OsgEarthNet.uav[47] utilizationCountOverdrawnAfterMission 0
scalar OsgEarthNet.uav[47] utilizationCountIdleState 48
scalar OsgEarthNet.uav[47] utilizationFail 0
scalar OsgEarthNet.uav[47] simulationTime 259200
scalar OsgEarthNet.uav[48] utilizationSecMission 22651.13282282
scalar OsgEarthNet.uav[48] utilizationSecMaintenance 9851.6125528222
scalar OsgEarthNet.uav[48] utilizationSecCharge 125330
scalar OsgEarthNet.uav[48] utilizationSecIdle 101367.25362436
scalar OsgEarthNet.uav[48] utilizationEnergyMission 104857.22881699
scalar OsgEarthNet.uav[48] utilizationEnergyMaintenance 46349.287433624
scalar OsgEarthNet.uav[48] utilizationEnergyCharge 150679.35229492
scalar OsgEarthNet.uav[48] utilizationEnergyOverdrawMission 0
scalar OsgEarthNet.uav[48] utilizationEnergyOverdrawMaintenance 0
scalar OsgEarthNet.uav[48] utilizationCountMissions 38
scalar OsgEarthNet.uav[48] utilizationCountManeuversMission 370
scalar OsgEarthNet.uav[48] utilizationCountManeuversMaintenance 76
scalar OsgEarthNet.uav[48] utilizationCountChargeState 38
scalar OsgEarthNet.uav[48] utilizationCountOverdrawnAfterMission 0
scalar OsgEarthNet.uav[48] utilizationCountIdleState 39
scalar OsgEarthNet.uav[48] utilizationFail 0
scalar OsgEarthNet.uav[48] simulationTime 259200
scalar OsgEarthNet.uav[49] utilizationSecMission 2803.599689581
scalar OsgEarthNet.uav[49] utilizationSecMaintenance 1834.1202540446
scalar OsgEarthNet.uav[49] utilizationSecCharge 17440
scalar OsgEarthNet.uav[49] utilizationSecIdle 237122.27905637
scalar OsgEarthNet.uav[49] utilizationEnergyMission 12772.875717163
scalar OsgEarthNet.uav[49] utilizationEnergyMaintenance 8667.358669281
scalar OsgEarthNet.uav[49] utilizationEnergyCharge 21440.244384766
scalar OsgEarthNet.uav[49] utilizationEnergyOverdrawMission 0
scalar OsgEarthNet.uav[49] utilizationEnergyOverdrawMaintenance 0
scalar OsgEarthNet.uav[49] utilizationCountMissions 5
scalar OsgEarthNet.uav[49] utilizationCountManeuversMission 46
scalar OsgEarthNet.uav[49] utilizationCountManeuversMaintenance 10
scalar OsgEarthNet.uav[49] utilizationCountChargeState 5
scalar OsgEarthNet.uav[49] utilizationCountOverdrawnAfterMission 0
scalar OsgEarthNet.uav[49] utilizationCountIdleState 6
scalar OsgEarthNet.uav[49] utilizationFail 0
scalar OsgEarthNet.uav[49] simulationTime 259200
scalar OsgEarthNet.uav[50] utilizationSecMission 4088.9144535266
scalar OsgEarthNet.uav[50] utilizationSecMaintenance 2154.2147294064
scalar OsgEarthNet.uav[50] utilizationSecCharge 24910
scalar OsgEarthNet.uav[50] utilizationSecIdle 228046.86981707
scalar OsgEarthNet.uav[50] utilizationEnergyMission 18852.211582184
scalar OsgEarthNet.uav[50] utilizationEnergyMaintenance 10228.882312775
scalar OsgEarthNet.uav[50] utilizationEnergyCharge 29162.355224609
scalar OsgEarthNet.uav[50] utilizationEnergyOverdrawMission 0
scalar OsgEarthNet.uav[50] utilizationEnergyOverdrawMaintenance 0
scalar OsgEarthNet.uav[50] utilizationCountMissions 8
scalar OsgEarthNet.uav[50] utilizationCountManeuversMission 62
scalar OsgEarthNet.uav[50] utilizationCountManeuversMaintenance 16
scalar OsgEarthNet.uav[50] utilizationCountChargeState 8
scalar OsgEarthNet.uav[50] utilizationCountOverdrawnAfterMission 0
scalar OsgEarthNet.uav[50] utilizationCountIdleState 9
scalar OsgEarthNet.uav[50] utilizationFail 0
scalar OsgEarthNet.uav[50] simulationTime 259200
scalar OsgEarthNet.uav[51] utilizationSecMission 23589.220175161
scalar OsgEarthNet.uav[51] utilizationSecMaintenance 12474.470857306
scalar OsgEarthNet.uav[51] utilizationSecCharge 142400
scalar OsgEarthNet.uav[51] utilizationSecIdle 80736.307967533
scalar OsgEarthNet.uav[51] utilizationEnergyMission 109171.56477356
scalar OsgEarthNet.uav[51] utilizationEnergyMaintenance 59109.110580444
scalar OsgEarthNet.uav[51] utilizationEnergyCharge 167787.09716797
scalar OsgEarthNet.uav[51] utilizationEnergyOverdrawMission 0
scalar OsgEarthNet.uav[51] utilizationEnergyOverdrawMaintenance 0
scalar OsgEarthNet.uav[51] utilizationCountMissions 45
scalar OsgEarthNet.uav[51] utilizationCountManeuversMission 379
scalar OsgEarthNet.uav[51] utilizationCountManeuversMaintenance 90
scalar OsgEarthNet.uav[51] utilizationCountChargeState 45
scalar OsgEarthNet.uav[51] utilizationCountOverdrawnAfterMission 0
scalar OsgEarthNet.uav[51] utilizationCountIdleState 46
scalar OsgEarthNet.uav[51] utilizationFail 0
scalar OsgEarthNet.uav[51] simulationTime 259200
scalar OsgEarthNet.uav[52] utilizationSecMission 887.1741082606
scalar OsgEarthNet.uav[52] utilizationSecMaintenance 125.81102573108
scalar OsgEarthNet.uav[52] utilizationSecCharge 3710
scalar OsgEarthNet.uav[52] utilizationSecIdle 254477.01386601
scalar OsgEarthNet.uav[52] utilizationEnergyMission 3840.3730163574
scalar OsgEarthNet.uav[52] utilizationEnergyMaintenance 714.45821380615
scalar OsgEarthNet.uav[52] utilizationEnergyCharge 4660.8984375
scalar OsgEarthNet.uav[52] utilizationEnergyOverdrawMission 0
scalar OsgEarthNet.uav[52] utilizationEnergyOverdrawMaintenance 0
scalar OsgEarthNet.uav[52] utilizationCountMissions 1
scalar OsgEarthNet.uav[52] utilizationCountManeuversMission 14
scalar OsgEarthNet.uav[52] utilizationCountManeuversMaintenance 2
scalar OsgEarthNet.uav[52] utilizationCountChargeState 1
scalar OsgEarthNet.uav[52] utilizationCountOverdrawnAfterMission 0
scalar OsgEarthNet.uav[52] utilizationCountIdleState 2
scalar OsgEarthNet.uav[52] utilizationFail 0
scalar OsgEarthNet.uav[52] simulationTime 259200
scalar OsgEarthNet.uav[53] utilizationSecMission 760.62515258028
scalar OsgEarthNet.uav[53] utilizationSecMaintenance 245.74410321072
scalar OsgEarthNet.uav[53] utilizationSecCharge 3780
scalar OsgEarthNet.uav[53] utilizationSecIdle 254413.62974421
scalar OsgEarthNet.uav[53] utilizationEnergyMission 3519.4579315186
scalar OsgEarthNet.uav[53] utilizationEnergyMaintenance 1279.3474845886
scalar OsgEarthNet.uav[53] utilizationEnergyCharge 4798.80859375
scalar OsgEarthNet.uav[53] utilizationEnergyOverdrawMission 0
scalar OsgEarthNet.uav[53] utilizationEnergyOverdrawMaintenance 0
scalar OsgEarthNet.uav[53] utilizationCountMissions 1
scalar OsgEarthNet.uav[53] utilizationCountManeuversMission 12
scalar OsgEarthNet.uav[53] utilizationCountManeuversMaintenance 2
scalar OsgEarthNet.uav[53] utilizationCountChargeState 1
scalar OsgEarthNet.uav[53] utilizationCountOverdrawnAfterMission 0
scalar OsgEarthNet.uav[53] utilizationCountIdleState 2
scalar OsgEarthNet.uav[53] utilizationFail 0
scalar OsgEarthNet.uav[53] simulationTime 259200
scalar OsgEarthNet.uav[54] utilizationSecMission 27305.506275779
scalar OsgEarthNet.uav[54] utilizationSecMaintenance 13654.723563514
scalar OsgEarthNet.uav[54] utilizationSecCharge 158537.41210444
scalar OsgEarthNet.uav[54] utilizationSecIdle 59702.357056264
scalar OsgEarthNet.uav[54] utilizationEnergyMission 126601.342556
scalar OsgEarthNet.uav[54] utilizationEnergyMaintenance 64387.464382172
scalar OsgEarthNet.uav[54] utilizationEnergyCharge 190452.44506836
scalar OsgEarthNet.uav[54] utilizationEnergyOverdrawMission 0
scalar OsgEarthNet.uav[54] utilizationEnergyOverdrawMaintenance 0
scalar OsgEarthNet.uav[54] utilizationCountMissions 49
scalar OsgEarthNet.uav[54] utilizationCountManeuversMission 457
scalar OsgEarthNet.uav[54] utilizationCountManeuversMaintenance 98
scalar OsgEarthNet.uav[54] utilizationCountChargeState 49
scalar OsgEarthNet.uav[54] utilizationCountOverdrawnAfterMission 0
scalar OsgEarthNet.uav[54] utilizationCountIdleState 49
scalar OsgEarthNet.uav[54] utilizationFail 0
scalar OsgEarthNet.uav[54] simulationTime 259200
scalar OsgEarthNet.uav[55] utilizationSecMission 694.00169469977
scalar OsgEarthNet.uav[55] utilizationSecMaintenance 223.34597234416
scalar OsgEarthNet.uav[55] utilizationSecCharge 3500
scalar OsgEarthNet.uav[55] utilizationSecIdle 254782.65133296
scalar OsgEarthNet.uav[55] utilizationEnergyMission 3184.0994033813
scalar OsgEarthNet.uav[55] utilizationEnergyMaintenance 1098.4350395203
scalar OsgEarthNet.uav[55] utilizationEnergyCharge 4290.6333007812
scalar OsgEarthNet.uav[55] utilizationEnergyOverdrawMission 0
scalar OsgEarthNet.uav[55] utilizationEnergyOverdrawMaintenance 0
scalar OsgEarthNet.uav[55] utilizationCountMissions 1
scalar OsgEarthNet.uav[55] utilizationCountManeuversMission 13
scalar OsgEarthNet.uav[55] utilizationCountManeuversMaintenance 2
scalar OsgEarthNet.uav[55] utilizationCountChargeState 1
scalar OsgEarthNet.uav[55] utilizationCountOverdrawnAfterMission 0
scalar OsgEarthNet.uav[55] utilizationCountIdleState 2
scalar OsgEarthNet.uav[55] utilizationFail 0
scalar OsgEarthNet.uav[55] simulationTime 259200
scalar OsgEarthNet.uav[56] utilizationSecMission 26569.717790211
scalar OsgEarthNet.uav[56] utilizationSecMaintenance 10260.538789654
scalar OsgEarthNet.uav[56] utilizationSecCharge 141670
scalar OsgEarthNet.uav[56] utilizationSecIdle 80699.742420135
scalar OsgEarthNet.uav[56] utilizationEnergyMission 121218.52663422
scalar OsgEarthNet.uav[56] utilizationEnergyMaintenance 48532.221374512
scalar OsgEarthNet.uav[56] utilizationEnergyCharge 169999.77490234
scalar OsgEarthNet.uav[56] utilizationEnergyOverdrawMission 0
scalar OsgEarthNet.uav[56] utilizationEnergyOverdrawMaintenance 0
scalar OsgEarthNet.uav[56] utilizationCountMissions 43
scalar OsgEarthNet.uav[56] utilizationCountManeuversMission 415
scalar OsgEarthNet.uav[56] utilizationCountManeuversMaintenance 86
scalar OsgEarthNet.uav[56] utilizationCountChargeState 43
scalar OsgEarthNet.uav[56] utilizationCountOverdrawnAfterMission 0
scalar OsgEarthNet.uav[56] utilizationCountIdleState 44
scalar OsgEarthNet.uav[56] utilizationFail 0
scalar OsgEarthNet.uav[56] simulationTime 259200
scalar OsgEarthNet.uav[57] utilizationSecMission 5731.781652324
scalar OsgEarthNet.uav[57] utilizationSecMaintenance 3299.9165438229
scalar OsgEarthNet.uav[57] utilizationSecCharge 35890
scalar OsgEarthNet.uav[57] utilizationSecIdle 214278.30080385
scalar OsgEarthNet.uav[57] utilizationEnergyMission 25993.890350342
scalar OsgEarthNet.uav[57] utilizationEnergyMaintenance 15048.367427826
scalar OsgEarthNet.uav[57] utilizationEnergyCharge 41041.975830078
scalar OsgEarthNet.uav[57] utilizationEnergyOverdrawMission 0
scalar OsgEarthNet.uav[57] utilizationEnergyOverdrawMaintenance 0
scalar OsgEarthNet.uav[57] utilizationCountMissions 12
scalar OsgEarthNet.uav[57] utilizationCountManeuversMission 93
scalar OsgEarthNet.uav[57] utilizationCountManeuversMaintenance 24
scalar OsgEarthNet.uav[57] utilizationCountChargeState 12
scalar OsgEarthNet.uav[57] utilizationCountOverdrawnAfterMission 0
scalar OsgEarthNet.uav[57] utilizationCountIdleState 13
scalar OsgEarthNet.uav[57] utilizationFail 0
scalar OsgEarthNet.uav[57] simulationTime 259200
scalar OsgEarthNet.uav[58] utilizationSecMission 694.00169469977
scalar OsgEarthNet.uav[58] utilizationSecMaintenance 223.34597234416
scalar OsgEarthNet.uav[58] utilizationSecCharge 3380
scalar OsgEarthNet.uav[58] utilizationSecIdle 254902.65133296
scalar OsgEarthNet.uav[58] utilizationEnergyMission 3174.2146682739
scalar OsgEarthNet.uav[58] utilizationEnergyMaintenance 957.92078781128
scalar OsgEarthNet.uav[58] utilizationEnergyCharge 4107.30859375
scalar OsgEarthNet.uav[58] utilizationEnergyOverdrawMission 0
scalar OsgEarthNet.uav[58] utilizationEnergyOverdrawMaintenance 0
scalar OsgEarthNet.uav[58] utilizationCountMissions 1
scalar OsgEarthNet.uav[58] utilizationCountManeuversMission 13
scalar OsgEarthNet.uav[58] utilizationCountManeuversMaintenance 2
scalar OsgEarthNet.uav[58] utilizationCountChargeState 1
scalar OsgEarthNet.uav[58] utilizationCountOverdrawnAfterMission 0
scalar OsgEarthNet.uav[58] utilizationCountIdleState 2
scalar OsgEarthNet.uav[58] utilizationFail 0
scalar OsgEarthNet.uav[58] simulationTime 259200
scalar OsgEarthNet.uav[59] utilizationSecMission 750.20472747826
scalar OsgEarthNet.uav[59] utilizationSecMaintenance 261.68051383311
scalar OsgEarthNet.uav[59] utilizationSecCharge 3780
scalar OsgEarthNet.uav[59] utilizationSecIdle 254408.11375869
scalar OsgEarthNet.uav[59] utilizationEnergyMission 3389.5956726074
scalar OsgEarthNet.uav[59] utilizationEnergyMaintenance 1326.3783988953
scalar OsgEarthNet.uav[59] utilizationEnergyCharge 4715.96875
scalar OsgEarthNet.uav[59] utilizationEnergyOverdrawMission 0
scalar OsgEarthNet.uav[59] utilizationEnergyOverdrawMaintenance 0
scalar OsgEarthNet.uav[59] utilizationCountMissions 1
scalar OsgEarthNet.uav[59] utilizationCountManeuversMission 11
scalar OsgEarthNet.uav[59] utilizationCountManeuversMaintenance 2
scalar OsgEarthNet.uav[59] utilizationCountChargeState 1
scalar OsgEarthNet.uav[59] utilizationCountOverdrawnAfterMission 0
scalar OsgEarthNet.uav[59] utilizationCountIdleState 2
scalar OsgEarthNet.uav[59] utilizationFail 0
scalar OsgEarthNet.uav[59] simulationTime 259200
scalar OsgEarthNet.uav[60] utilizationSecMission 760.62515258028
scalar OsgEarthNet.uav[60] utilizationSecMaintenance 245.74410321072
scalar OsgEarthNet.uav[60] utilizationSecCharge 3690
scalar OsgEarthNet.uav[60] utilizationSecIdle 254503.62974421
scalar OsgEarthNet.uav[60] utilizationEnergyMission 3506.6272735596
scalar OsgEarthNet.uav[60] utilizationEnergyMaintenance 1116.6758232117
scalar OsgEarthNet.uav[60] utilizationEnergyCharge 4623.3046875
scalar OsgEarthNet.uav[60] utilizationEnergyOverdrawMission 0
scalar OsgEarthNet.uav[60] utilizationEnergyOverdrawMaintenance 0
scalar OsgEarthNet.uav[60] utilizationCountMissions 1
scalar OsgEarthNet.uav[60] utilizationCountManeuversMission 12
scalar OsgEarthNet.uav[60] utilizationCountManeuversMaintenance 2
scalar OsgEarthNet.uav[60] utilizationCountChargeState 1
scalar OsgEarthNet.uav[60] utilizationCountOverdrawnAfterMission 0
scalar OsgEarthNet.uav[60] utilizationCountIdleState 2
scalar OsgEarthNet.uav[60] utilizationFail 0
scalar OsgEarthNet.uav[60] simulationTime 259200
scalar OsgEarthNet.uav[61] utilizationSecMission 16753.322825243
scalar OsgEarthNet.uav[61] utilizationSecMaintenance 6809.4196090395
scalar OsgEarthNet.uav[61] utilizationSecCharge 88630
scalar OsgEarthNet.uav[61] utilizationSecIdle 147007.25656572
scalar OsgEarthNet.uav[61] utilizationEnergyMission 77626.42462219
scalar OsgEarthNet.uav[61] utilizationEnergyMaintenance 32810.455997467
scalar OsgEarthNet.uav[61] utilizationEnergyCharge 108083.26586914
scalar OsgEarthNet.uav[61] utilizationEnergyOverdrawMission 0
scalar OsgEarthNet.uav[61] utilizationEnergyOverdrawMaintenance 0
scalar OsgEarthNet.uav[61] utilizationCountMissions 26
scalar OsgEarthNet.uav[61] utilizationCountManeuversMission 275
scalar OsgEarthNet.uav[61] utilizationCountManeuversMaintenance 53
scalar OsgEarthNet.uav[61] utilizationCountChargeState 26
scalar OsgEarthNet.uav[61] utilizationCountOverdrawnAfterMission 0
scalar OsgEarthNet.uav[61] utilizationCountIdleState 27
scalar OsgEarthNet.uav[61] utilizationFail 0
scalar OsgEarthNet.uav[61] simulationTime 259200
scalar OsgEarthNet.uav[62] utilizationSecMission 24005.927011809
scalar OsgEarthNet.uav[62] utilizationSecMaintenance 10780.449282553
scalar OsgEarthNet.uav[62] utilizationSecCharge 130730.7881688
scalar OsgEarthNet.uav[62] utilizationSecIdle 93682.834536841
scalar OsgEarthNet.uav[62] utilizationEnergyMission 110002.92436981
scalar OsgEarthNet.uav[62] utilizationEnergyMaintenance 50535.960739136
scalar OsgEarthNet.uav[62] utilizationEnergyCharge 158276.57641602
scalar OsgEarthNet.uav[62] utilizationEnergyOverdrawMission 0
scalar OsgEarthNet.uav[62] utilizationEnergyOverdrawMaintenance 0
scalar OsgEarthNet.uav[62] utilizationCountMissions 40
scalar OsgEarthNet.uav[62] utilizationCountManeuversMission 383
scalar OsgEarthNet.uav[62] utilizationCountManeuversMaintenance 80
scalar OsgEarthNet.uav[62] utilizationCountChargeState 40
scalar OsgEarthNet.uav[62] utilizationCountOverdrawnAfterMission 0
scalar OsgEarthNet.uav[62] utilizationCountIdleState 40
scalar OsgEarthNet.uav[62] utilizationFail 0
scalar OsgEarthNet.uav[62] simulationTime 259200
scalar OsgEarthNet.uav[63] utilizationSecMission 27295.794600378
scalar OsgEarthNet.uav[63] utilizationSecMaintenance 12187.154574461
scalar OsgEarthNet.uav[63] utilizationSecCharge 149669.62444367
scalar OsgEarthNet.uav[63] utilizationSecIdle 70047.425381488
scalar OsgEarthNet.uav[63] utilizationEnergyMission 124707.42698669
scalar OsgEarthNet.uav[63] utilizationEnergyMaintenance 57321.690990448
scalar OsgEarthNet.uav[63] utilizationEnergyCharge 182224.38330078
scalar OsgEarthNet.uav[63] utilizationEnergyOverdrawMission 0
scalar OsgEarthNet.uav[63] utilizationEnergyOverdrawMaintenance 0
scalar OsgEarthNet.uav[63] utilizationCountMissions 45
scalar OsgEarthNet.uav[63] utilizationCountManeuversMission 436
scalar OsgEarthNet.uav[63] utilizationCountManeuversMaintenance 90
scalar OsgEarthNet.uav[63] utilizationCountChargeState 45
scalar OsgEarthNet.uav[63] utilizationCountOverdrawnAfterMission 0
scalar OsgEarthNet.uav[63] utilizationCountIdleState 45
scalar OsgEarthNet.uav[63] utilizationFail 0
scalar OsgEarthNet.uav[63] simulationTime 259200
scalar OsgEarthNet.uav[64] utilizationSecMission 25526.530663982
scalar OsgEarthNet.uav[64] utilizationSecMaintenance 13493.944297068
scalar OsgEarthNet.uav[64] utilizationSecCharge 147912.11614628
scalar OsgEarthNet.uav[64] utilizationSecIdle 72267.407892672
scalar OsgEarthNet.uav[64] utilizationEnergyMission 118472.69634247
scalar OsgEarthNet.uav[64] utilizationEnergyMaintenance 63518.81036377
scalar OsgEarthNet.uav[64] utilizationEnergyCharge 179412.46594238
scalar OsgEarthNet.uav[64] utilizationEnergyOverdrawMission 0
scalar OsgEarthNet.uav[64] utilizationEnergyOverdrawMaintenance 0
scalar OsgEarthNet.uav[64] utilizationCountMissions 45
scalar OsgEarthNet.uav[64] utilizationCountManeuversMission 415
scalar OsgEarthNet.uav[64] utilizationCountManeuversMaintenance 90
scalar OsgEarthNet.uav[64] utilizationCountChargeState 45
scalar OsgEarthNet.uav[64] utilizationCountOverdrawnAfterMission 0
scalar OsgEarthNet.uav[64] utilizationCountIdleState 45
scalar OsgEarthNet.uav[64] utilizationFail 0
scalar OsgEarthNet.uav[64] simulationTime 259200
scalar OsgEarthNet.uav[65] utilizationSecMission 570.98871244881
scalar OsgEarthNet.uav[65] utilizationSecMaintenance 295.50253239167
scalar OsgEarthNet.uav[65] utilizationSecCharge 3460
scalar OsgEarthNet.uav[65] utilizationSecIdle 254873.50775516
[...]
scalar OsgEarthNet.uav[82] utilizationEnergyMission 137231.43447876
scalar OsgEarthNet.uav[82] utilizationEnergyMaintenance 54790.504570007
scalar OsgEarthNet.uav[82] utilizationEnergyCharge 187993.77111816
scalar OsgEarthNet.uav[82] utilizationEnergyOverdrawMission 0
scalar OsgEarthNet.uav[82] utilizationEnergyOverdrawMaintenance 0
scalar OsgEarthNet.uav[82] utilizationCountMissions 47
scalar OsgEarthNet.uav[82] utilizationCountManeuversMission 490
scalar OsgEarthNet.uav[82] utilizationCountManeuversMaintenance 94
scalar OsgEarthNet.uav[82] utilizationCountChargeState 47
scalar OsgEarthNet.uav[82] utilizationCountOverdrawnAfterMission 0
scalar OsgEarthNet.uav[82] utilizationCountIdleState 47
scalar OsgEarthNet.uav[82] utilizationFail 0
scalar OsgEarthNet.uav[82] simulationTime 259200
scalar OsgEarthNet.uav[83] utilizationSecMission 28656.011527829
scalar OsgEarthNet.uav[83] utilizationSecMaintenance 13410.772499526
scalar OsgEarthNet.uav[83] utilizationSecCharge 165990
scalar OsgEarthNet.uav[83] utilizationSecIdle 51143.214972645
scalar OsgEarthNet.uav[83] utilizationEnergyMission 132237.24093628
scalar OsgEarthNet.uav[83] utilizationEnergyMaintenance 64749.005157471
scalar OsgEarthNet.uav[83] utilizationEnergyCharge 196578.52441406
scalar OsgEarthNet.uav[83] utilizationEnergyOverdrawMission 0
scalar OsgEarthNet.uav[83] utilizationEnergyOverdrawMaintenance 0
scalar OsgEarthNet.uav[83] utilizationCountMissions 52
scalar OsgEarthNet.uav[83] utilizationCountManeuversMission 480
scalar OsgEarthNet.uav[83] utilizationCountManeuversMaintenance 103
scalar OsgEarthNet.uav[83] utilizationCountChargeState 52
scalar OsgEarthNet.uav[83] utilizationCountOverdrawnAfterMission 0
scalar OsgEarthNet.uav[83] utilizationCountIdleState 53
scalar OsgEarthNet.uav[83] utilizationFail 0
scalar OsgEarthNet.uav[83] simulationTime 259200
scalar OsgEarthNet.uav[84] utilizationSecMission 25031.186474099
scalar OsgEarthNet.uav[84] utilizationSecMaintenance 12252.56086078
scalar OsgEarthNet.uav[84] utilizationSecCharge 144650
scalar OsgEarthNet.uav[84] utilizationSecIdle 77266.251665121
scalar OsgEarthNet.uav[84] utilizationEnergyMission 115611.75827789
scalar OsgEarthNet.uav[84] utilizationEnergyMaintenance 57974.422115326
scalar OsgEarthNet.uav[84] utilizationEnergyCharge 173674.234375
scalar OsgEarthNet.uav[84] utilizationEnergyOverdrawMission 0
scalar OsgEarthNet.uav[84] utilizationEnergyOverdrawMaintenance 0
scalar OsgEarthNet.uav[84] utilizationCountMissions 44
scalar OsgEarthNet.uav[84] utilizationCountManeuversMission 404
scalar OsgEarthNet.uav[84] utilizationCountManeuversMaintenance 88
scalar OsgEarthNet.uav[84] utilizationCountChargeState 44
scalar OsgEarthNet.uav[84] utilizationCountOverdrawnAfterMission 0
scalar OsgEarthNet.uav[84] utilizationCountIdleState 45
scalar OsgEarthNet.uav[84] utilizationFail 0
scalar OsgEarthNet.uav[84] simulationTime 259200
scalar OsgEarthNet.uav[85] utilizationSecMission 10255.260104524
scalar OsgEarthNet.uav[85] utilizationSecMaintenance 4374.9695871386
scalar OsgEarthNet.uav[85] utilizationSecCharge 54670
scalar OsgEarthNet.uav[85] utilizationSecIdle 189899.76930834
scalar OsgEarthNet.uav[85] utilizationEnergyMission 47072.269012451
scalar OsgEarthNet.uav[85] utilizationEnergyMaintenance 19739.501983643
scalar OsgEarthNet.uav[85] utilizationEnergyCharge 66758.907226562
scalar OsgEarthNet.uav[85] utilizationEnergyOverdrawMission 0
scalar OsgEarthNet.uav[85] utilizationEnergyOverdrawMaintenance 0
scalar OsgEarthNet.uav[85] utilizationCountMissions 16
scalar OsgEarthNet.uav[85] utilizationCountManeuversMission 173
scalar OsgEarthNet.uav[85] utilizationCountManeuversMaintenance 32
scalar OsgEarthNet.uav[85] utilizationCountChargeState 16
scalar OsgEarthNet.uav[85] utilizationCountOverdrawnAfterMission 0
scalar OsgEarthNet.uav[85] utilizationCountIdleState 17
scalar OsgEarthNet.uav[85] utilizationFail 0
scalar OsgEarthNet.uav[85] simulationTime 259200
scalar OsgEarthNet.uav[86] utilizationSecMission 28357.50092399
scalar OsgEarthNet.uav[86] utilizationSecMaintenance 12475.842995225
scalar OsgEarthNet.uav[86] utilizationSecCharge 156910
scalar OsgEarthNet.uav[86] utilizationSecIdle 61456.655080786
scalar OsgEarthNet.uav[86] utilizationEnergyMission 131046.10759735
scalar OsgEarthNet.uav[86] utilizationEnergyMaintenance 59477.486637115
scalar OsgEarthNet.uav[86] utilizationEnergyCharge 191135.81713867
scalar OsgEarthNet.uav[86] utilizationEnergyOverdrawMission 0
scalar OsgEarthNet.uav[86] utilizationEnergyOverdrawMaintenance 0
scalar OsgEarthNet.uav[86] utilizationCountMissions 46
scalar OsgEarthNet.uav[86] utilizationCountManeuversMission 468
scalar OsgEarthNet.uav[86] utilizationCountManeuversMaintenance 92
scalar OsgEarthNet.uav[86] utilizationCountChargeState 46
scalar OsgEarthNet.uav[86] utilizationCountOverdrawnAfterMission 0
scalar OsgEarthNet.uav[86] utilizationCountIdleState 47
scalar OsgEarthNet.uav[86] utilizationFail 0
scalar OsgEarthNet.uav[86] simulationTime 259200
scalar OsgEarthNet.uav[87] utilizationSecMission 27230.896829734
scalar OsgEarthNet.uav[87] utilizationSecMaintenance 13625.720453105
scalar OsgEarthNet.uav[87] utilizationSecCharge 156007.02195919
scalar OsgEarthNet.uav[87] utilizationSecIdle 62336.359757974
scalar OsgEarthNet.uav[87] utilizationEnergyMission 125368.67094421
scalar OsgEarthNet.uav[87] utilizationEnergyMaintenance 63548.320209503
scalar OsgEarthNet.uav[87] utilizationEnergyCharge 187867.73022461
scalar OsgEarthNet.uav[87] utilizationEnergyOverdrawMission 0
scalar OsgEarthNet.uav[87] utilizationEnergyOverdrawMaintenance 0
scalar OsgEarthNet.uav[87] utilizationCountMissions 48
scalar OsgEarthNet.uav[87] utilizationCountManeuversMission 463
scalar OsgEarthNet.uav[87] utilizationCountManeuversMaintenance 96
scalar OsgEarthNet.uav[87] utilizationCountChargeState 48
scalar OsgEarthNet.uav[87] utilizationCountOverdrawnAfterMission 0
scalar OsgEarthNet.uav[87] utilizationCountIdleState 48
scalar OsgEarthNet.uav[87] utilizationFail 0
scalar OsgEarthNet.uav[87] simulationTime 259200
scalar OsgEarthNet.uav[88] utilizationSecMission 570.98871244881
scalar OsgEarthNet.uav[88] utilizationSecMaintenance 295.50253239167
scalar OsgEarthNet.uav[88] utilizationSecCharge 3500
scalar OsgEarthNet.uav[88] utilizationSecIdle 254833.50775516
scalar OsgEarthNet.uav[88] utilizationEnergyMission 2872.1455535889
scalar OsgEarthNet.uav[88] utilizationEnergyMaintenance 1401.8000907898
scalar OsgEarthNet.uav[88] utilizationEnergyCharge 4273.9467773438
scalar OsgEarthNet.uav[88] utilizationEnergyOverdrawMission 0
scalar OsgEarthNet.uav[88] utilizationEnergyOverdrawMaintenance 0
scalar OsgEarthNet.uav[88] utilizationCountMissions 1
scalar OsgEarthNet.uav[88] utilizationCountManeuversMission 8
scalar OsgEarthNet.uav[88] utilizationCountManeuversMaintenance 2
scalar OsgEarthNet.uav[88] utilizationCountChargeState 1
scalar OsgEarthNet.uav[88] utilizationCountOverdrawnAfterMission 0
scalar OsgEarthNet.uav[88] utilizationCountIdleState 2
scalar OsgEarthNet.uav[88] utilizationFail 0
scalar OsgEarthNet.uav[88] simulationTime 259200
scalar OsgEarthNet.uav[89] utilizationSecMission 29048.008775825
scalar OsgEarthNet.uav[89] utilizationSecMaintenance 14434.048306432
scalar OsgEarthNet.uav[89] utilizationSecCharge 167222.39500849
scalar OsgEarthNet.uav[89] utilizationSecIdle 48495.546909258
scalar OsgEarthNet.uav[89] utilizationEnergyMission 134973.08768845
scalar OsgEarthNet.uav[89] utilizationEnergyMaintenance 68231.183387756
scalar OsgEarthNet.uav[89] utilizationEnergyCharge 202714.05761719
scalar OsgEarthNet.uav[89] utilizationEnergyOverdrawMission 0
scalar OsgEarthNet.uav[89] utilizationEnergyOverdrawMaintenance 0
scalar OsgEarthNet.uav[89] utilizationCountMissions 50
scalar OsgEarthNet.uav[89] utilizationCountManeuversMission 488
scalar OsgEarthNet.uav[89] utilizationCountManeuversMaintenance 100
scalar OsgEarthNet.uav[89] utilizationCountChargeState 50
scalar OsgEarthNet.uav[89] utilizationCountOverdrawnAfterMission 0
scalar OsgEarthNet.uav[89] utilizationCountIdleState 50
scalar OsgEarthNet.uav[89] utilizationFail 0
scalar OsgEarthNet.uav[89] simulationTime 259200
scalar OsgEarthNet.uav[90] utilizationSecMission 13970.602498915
scalar OsgEarthNet.uav[90] utilizationSecMaintenance 5352.4694854279
scalar OsgEarthNet.uav[90] utilizationSecCharge 69665.3242506
scalar OsgEarthNet.uav[90] utilizationSecIdle 170211.60276506
scalar OsgEarthNet.uav[90] utilizationEnergyMission 64651.295021057
scalar OsgEarthNet.uav[90] utilizationEnergyMaintenance 24961.792758942
scalar OsgEarthNet.uav[90] utilizationEnergyCharge 85667.579956055
scalar OsgEarthNet.uav[90] utilizationEnergyOverdrawMission 0
scalar OsgEarthNet.uav[90] utilizationEnergyOverdrawMaintenance 0
scalar OsgEarthNet.uav[90] utilizationCountMissions 21
scalar OsgEarthNet.uav[90] utilizationCountManeuversMission 222
scalar OsgEarthNet.uav[90] utilizationCountManeuversMaintenance 42
scalar OsgEarthNet.uav[90] utilizationCountChargeState 21
scalar OsgEarthNet.uav[90] utilizationCountOverdrawnAfterMission 0
scalar OsgEarthNet.uav[90] utilizationCountIdleState 21
scalar OsgEarthNet.uav[90] utilizationFail 0
scalar OsgEarthNet.uav[90] simulationTime 259200
scalar OsgEarthNet.uav[91] utilizationSecMission 23779.610634187
scalar OsgEarthNet.uav[91] utilizationSecMaintenance 10697.060906849
scalar OsgEarthNet.uav[91] utilizationSecCharge 133737.35686632
scalar OsgEarthNet.uav[91] utilizationSecIdle 90985.970592646
scalar OsgEarthNet.uav[91] utilizationEnergyMission 110077.88428497
scalar OsgEarthNet.uav[91] utilizationEnergyMaintenance 51132.544826508
scalar OsgEarthNet.uav[91] utilizationEnergyCharge 161968.35180664
scalar OsgEarthNet.uav[91] utilizationEnergyOverdrawMission 0
scalar OsgEarthNet.uav[91] utilizationEnergyOverdrawMaintenance 0
scalar OsgEarthNet.uav[91] utilizationCountMissions 40
scalar OsgEarthNet.uav[91] utilizationCountManeuversMission 395
scalar OsgEarthNet.uav[91] utilizationCountManeuversMaintenance 80
scalar OsgEarthNet.uav[91] utilizationCountChargeState 40
scalar OsgEarthNet.uav[91] utilizationCountOverdrawnAfterMission 0
scalar OsgEarthNet.uav[91] utilizationCountIdleState 40
scalar OsgEarthNet.uav[91] utilizationFail 0
scalar OsgEarthNet.uav[91] simulationTime 259200
scalar OsgEarthNet.uav[92] utilizationSecMission 29089.54481904
scalar OsgEarthNet.uav[92] utilizationSecMaintenance 11134.113583924
scalar OsgEarthNet.uav[92] utilizationSecCharge 152290.68116493
scalar OsgEarthNet.uav[92] utilizationSecIdle 66685.659432111
scalar OsgEarthNet.uav[92] utilizationEnergyMission 132613.78239822
scalar OsgEarthNet.uav[92] utilizationEnergyMaintenance 51749.912330627
scalar OsgEarthNet.uav[92] utilizationEnergyCharge 185200.73681641
scalar OsgEarthNet.uav[92] utilizationEnergyOverdrawMission 0
scalar OsgEarthNet.uav[92] utilizationEnergyOverdrawMaintenance 0
scalar OsgEarthNet.uav[92] utilizationCountMissions 45
scalar OsgEarthNet.uav[92] utilizationCountManeuversMission 469
scalar OsgEarthNet.uav[92] utilizationCountManeuversMaintenance 90
scalar OsgEarthNet.uav[92] utilizationCountChargeState 45
scalar OsgEarthNet.uav[92] utilizationCountOverdrawnAfterMission 0
scalar OsgEarthNet.uav[92] utilizationCountIdleState 45
scalar OsgEarthNet.uav[92] utilizationFail 0
scalar OsgEarthNet.uav[92] simulationTime 259200
scalar OsgEarthNet.uav[93] utilizationSecMission 13569.932158733
scalar OsgEarthNet.uav[93] utilizationSecMaintenance 7786.7719908688
scalar OsgEarthNet.uav[93] utilizationSecCharge 81550
scalar OsgEarthNet.uav[93] utilizationSecIdle 156293.2948504
scalar OsgEarthNet.uav[93] utilizationEnergyMission 63177.113923689
scalar OsgEarthNet.uav[93] utilizationEnergyMaintenance 36459.841400146
scalar OsgEarthNet.uav[93] utilizationEnergyCharge 98409.461914062
scalar OsgEarthNet.uav[93] utilizationEnergyOverdrawMission 0
scalar OsgEarthNet.uav[93] utilizationEnergyOverdrawMaintenance 0
scalar OsgEarthNet.uav[93] utilizationCountMissions 25
scalar OsgEarthNet.uav[93] utilizationCountManeuversMission 222
scalar OsgEarthNet.uav[93] utilizationCountManeuversMaintenance 51
scalar OsgEarthNet.uav[93] utilizationCountChargeState 25
scalar OsgEarthNet.uav[93] utilizationCountOverdrawnAfterMission 0
scalar OsgEarthNet.uav[93] utilizationCountIdleState 24
scalar OsgEarthNet.uav[93] utilizationFail 0
scalar OsgEarthNet.uav[93] simulationTime 259200
scalar OsgEarthNet.uav[94] utilizationSecMission 28238.828494828
scalar OsgEarthNet.uav[94] utilizationSecMaintenance 12432.817901632
scalar OsgEarthNet.uav[94] utilizationSecCharge 153460
scalar OsgEarthNet.uav[94] utilizationSecIdle 65068.35260354
scalar OsgEarthNet.uav[94] utilizationEnergyMission 129477.73325445
scalar OsgEarthNet.uav[94] utilizationEnergyMaintenance 58614.371963501
scalar OsgEarthNet.uav[94] utilizationEnergyCharge 186953.64404297
scalar OsgEarthNet.uav[94] utilizationEnergyOverdrawMission 0
scalar OsgEarthNet.uav[94] utilizationEnergyOverdrawMaintenance 0
scalar OsgEarthNet.uav[94] utilizationCountMissions 45
scalar OsgEarthNet.uav[94] utilizationCountManeuversMission 470
scalar OsgEarthNet.uav[94] utilizationCountManeuversMaintenance 91
scalar OsgEarthNet.uav[94] utilizationCountChargeState 45
scalar OsgEarthNet.uav[94] utilizationCountOverdrawnAfterMission 0
scalar OsgEarthNet.uav[94] utilizationCountIdleState 46
scalar OsgEarthNet.uav[94] utilizationFail 0
scalar OsgEarthNet.uav[94] simulationTime 259200
scalar OsgEarthNet.uav[95] utilizationSecMission 21425.853512883
scalar OsgEarthNet.uav[95] utilizationSecMaintenance 10277.627985407
scalar OsgEarthNet.uav[95] utilizationSecCharge 120370.06992924
scalar OsgEarthNet.uav[95] utilizationSecIdle 107126.44757247
scalar OsgEarthNet.uav[95] utilizationEnergyMission 99503.964126587
scalar OsgEarthNet.uav[95] utilizationEnergyMaintenance 48245.234092712
scalar OsgEarthNet.uav[95] utilizationEnergyCharge 147105.48779297
scalar OsgEarthNet.uav[95] utilizationEnergyOverdrawMission 0
scalar OsgEarthNet.uav[95] utilizationEnergyOverdrawMaintenance 0
scalar OsgEarthNet.uav[95] utilizationCountMissions 36
scalar OsgEarthNet.uav[95] utilizationCountManeuversMission 346
scalar OsgEarthNet.uav[95] utilizationCountManeuversMaintenance 72
scalar OsgEarthNet.uav[95] utilizationCountChargeState 36
scalar OsgEarthNet.uav[95] utilizationCountOverdrawnAfterMission 0
scalar OsgEarthNet.uav[95] utilizationCountIdleState 36
scalar OsgEarthNet.uav[95] utilizationFail 0
scalar OsgEarthNet.uav[95] simulationTime 259200
scalar OsgEarthNet.uav[96] utilizationSecMission 1650.0637487836
scalar OsgEarthNet.uav[96] utilizationSecMaintenance 1577.7983852176
scalar OsgEarthNet.uav[96] utilizationSecCharge 12790
scalar OsgEarthNet.uav[96] utilizationSecIdle 243182.136866
scalar OsgEarthNet.uav[96] utilizationEnergyMission 7850.9068603516
scalar OsgEarthNet.uav[96] utilizationEnergyMaintenance 7485.3183064421
scalar OsgEarthNet.uav[96] utilizationEnergyCharge 15188.337646484
scalar OsgEarthNet.uav[96] utilizationEnergyOverdrawMission 0
scalar OsgEarthNet.uav[96] utilizationEnergyOverdrawMaintenance 0
scalar OsgEarthNet.uav[96] utilizationCountMissions 4
scalar OsgEarthNet.uav[96] utilizationCountManeuversMission 25
scalar OsgEarthNet.uav[96] utilizationCountManeuversMaintenance 9
scalar OsgEarthNet.uav[96] utilizationCountChargeState 4
scalar OsgEarthNet.uav[96] utilizationCountOverdrawnAfterMission 0
scalar OsgEarthNet.uav[96] utilizationCountIdleState 5
scalar OsgEarthNet.uav[96] utilizationFail 0
scalar OsgEarthNet.uav[96] simulationTime 259200
scalar OsgEarthNet.uav[97] utilizationSecMission 25820.706434104
scalar OsgEarthNet.uav[97] utilizationSecMaintenance 12384.890656299
scalar OsgEarthNet.uav[97] utilizationSecCharge 143090.0367482
scalar OsgEarthNet.uav[97] utilizationSecIdle 77904.365161394
scalar OsgEarthNet.uav[97] utilizationEnergyMission 119696.03630447
scalar OsgEarthNet.uav[97] utilizationEnergyMaintenance 58349.018413544
scalar OsgEarthNet.uav[97] utilizationEnergyCharge 174257.92736816
scalar OsgEarthNet.uav[97] utilizationEnergyOverdrawMission 0
scalar OsgEarthNet.uav[97] utilizationEnergyOverdrawMaintenance 0
scalar OsgEarthNet.uav[97] utilizationCountMissions 43
scalar OsgEarthNet.uav[97] utilizationCountManeuversMission 422
scalar OsgEarthNet.uav[97] utilizationCountManeuversMaintenance 86
scalar OsgEarthNet.uav[97] utilizationCountChargeState 43
scalar OsgEarthNet.uav[97] utilizationCountOverdrawnAfterMission 0
scalar OsgEarthNet.uav[97] utilizationCountIdleState 43
scalar OsgEarthNet.uav[97] utilizationFail 0
scalar OsgEarthNet.uav[97] simulationTime 259200
scalar OsgEarthNet.uav[98] utilizationSecMission 4548.8662115807
scalar OsgEarthNet.uav[98] utilizationSecMaintenance 3696.2256216643
scalar OsgEarthNet.uav[98] utilizationSecCharge 30280
scalar OsgEarthNet.uav[98] utilizationSecIdle 220674.90716675
scalar OsgEarthNet.uav[98] utilizationEnergyMission 20912.923944229
scalar OsgEarthNet.uav[98] utilizationEnergyMaintenance 17724.011573792
scalar OsgEarthNet.uav[98] utilizationEnergyCharge 36623.461181641
scalar OsgEarthNet.uav[98] utilizationEnergyOverdrawMission 0
scalar OsgEarthNet.uav[98] utilizationEnergyOverdrawMaintenance 0
scalar OsgEarthNet.uav[98] utilizationCountMissions 9
scalar OsgEarthNet.uav[98] utilizationCountManeuversMission 76
scalar OsgEarthNet.uav[98] utilizationCountManeuversMaintenance 19
scalar OsgEarthNet.uav[98] utilizationCountChargeState 9
scalar OsgEarthNet.uav[98] utilizationCountOverdrawnAfterMission 0
scalar OsgEarthNet.uav[98] utilizationCountIdleState 10
scalar OsgEarthNet.uav[98] utilizationFail 0
scalar OsgEarthNet.uav[98] simulationTime 259200
scalar OsgEarthNet.uav[99] utilizationSecMission 25481.89637856
scalar OsgEarthNet.uav[99] utilizationSecMaintenance 11070.051082542
scalar OsgEarthNet.uav[99] utilizationSecCharge 136750
scalar OsgEarthNet.uav[99] utilizationSecIdle 85898.051538898
scalar OsgEarthNet.uav[99] utilizationEnergyMission 115597.73708344
scalar OsgEarthNet.uav[99] utilizationEnergyMaintenance 52149.378728801
scalar OsgEarthNet.uav[99] utilizationEnergyCharge 165080.1796875
scalar OsgEarthNet.uav[99] utilizationEnergyOverdrawMission 0
scalar OsgEarthNet.uav[99] utilizationEnergyOverdrawMaintenance 0
scalar OsgEarthNet.uav[99] utilizationCountMissions 41
scalar OsgEarthNet.uav[99] utilizationCountManeuversMission 411
scalar OsgEarthNet.uav[99] utilizationCountManeuversMaintenance 83
scalar OsgEarthNet.uav[99] utilizationCountChargeState 41
scalar OsgEarthNet.uav[99] utilizationCountOverdrawnAfterMission 0
scalar OsgEarthNet.uav[99] utilizationCountIdleState 42
scalar OsgEarthNet.uav[99] utilizationFail 0
scalar OsgEarthNet.uav[99] simulationTime 259200
scalar OsgEarthNet.cs[0] usedPower 0
scalar OsgEarthNet.cs[0] chargedPower 0
scalar OsgEarthNet.cs[0] chargedMobileNodes 0
scalar OsgEarthNet.cs[0] reservations 0
scalar OsgEarthNet.cs[1] usedPower 854928.963991
scalar OsgEarthNet.cs[1] chargedPower 854928.963991
scalar OsgEarthNet.cs[1] chargedMobileNodes 301
scalar OsgEarthNet.cs[1] reservations 303
scalar OsgEarthNet.cs[2] usedPower 2797239.306266
scalar OsgEarthNet.cs[2] chargedPower 2797239.306266
scalar OsgEarthNet.cs[2] chargedMobileNodes 653
scalar OsgEarthNet.cs[2] reservations 664
scalar OsgEarthNet.cs[3] usedPower 998588.37708802
scalar OsgEarthNet.cs[3] chargedPower 998588.37708802
scalar OsgEarthNet.cs[3] chargedMobileNodes 227
scalar OsgEarthNet.cs[3] reservations 230
scalar OsgEarthNet.cs[4] usedPower 1047248.455617
scalar OsgEarthNet.cs[4] chargedPower 1047248.455617
scalar OsgEarthNet.cs[4] chargedMobileNodes 234
scalar OsgEarthNet.cs[4] reservations 238
scalar OsgEarthNet.cs[5] usedPower 1027924.0545723
scalar OsgEarthNet.cs[5] chargedPower 1027924.0545723
scalar OsgEarthNet.cs[5] chargedMobileNodes 233
scalar OsgEarthNet.cs[5] reservations 238
scalar OsgEarthNet.cs[6] usedPower 1921654.1607406
scalar OsgEarthNet.cs[6] chargedPower 1921654.1607406
scalar OsgEarthNet.cs[6] chargedMobileNodes 491
scalar OsgEarthNet.cs[6] reservations 497

