version 2
run Szenario_Hotel_Gabelbach-79-20180709-16:15:31-48348
attr configname Szenario_Hotel_Gabelbach
attr datetime 20180709-16:15:31
attr experiment Szenario_Hotel_Gabelbach
attr inifile omnetpp.ini
attr iterationvars "$replM=2, $biWeight=1.0"
attr iterationvarsf replM=2,biWeight=1.0-
attr measurement "$replM=2, $biWeight=1.0"
attr network OsgEarthNet
attr processid 48348
attr repetition 7
attr replication #7
attr resultdir results
attr runnumber 79
attr seedset 79
itervar biWeight 1.0
itervar replM 2
param *.osgEarthScene.scene "\"Szenario_Hotel_Gabelbach.earth\""
param *.playgroundLatitude 50.6830269
param *.playgroundLongitude 10.8538055
param *.playgroundWidth 3500m
param *.playgroundHeight 3500m
param *.numUAVs 100
param *.cs[0].posX 3537m
param *.cs[0].posY 965m
param *.cs[0].posZ 538m
param *.cs[1].posX 312m
param *.cs[1].posY 1262m
param *.cs[1].posZ 539m
param *.cs[2].posX 2185m
param *.cs[2].posY 3026m
param *.cs[2].posZ 777m
param *.cs[3].posX 10m
param *.cs[3].posY 2200m
param *.cs[3].posZ 560m
param *.cs[4].posX 750m
param *.cs[4].posY 200m
param *.cs[4].posZ 540m
param *.cs[5].posX 2450m
param *.cs[5].posY 180m
param *.cs[5].posZ 524m
param *.cs[6].posX 3140m
param *.cs[6].posY 1790m
param *.cs[6].posZ 606m
param *.numCSs 7
param *.uav[*].replacementMethod 2
param *.uav[*].weightedSumWeight 1.0
param *.*.timeStep 10s
param *.uav[*].commandPreviewCommandCount 20
param *.missionControl.missionFiles "\"missions\\\\Szenario_WB_Hotel_Gabelbach_Mission_Hotel.waypoints,missions\\\\Szenario_WB_Hotel_Gabelbach_Mission_Kickelhahn.waypoints,missions\\\\Szenario_WB_Hotel_Gabelbach_Mission_Ilmenau_Sportplatz.waypoints,missions\\\\Szenario_WB_Hotel_Gabelbach_Mission_Manebach_Mitte.waypoints,missions\\\\Szenario_WB_Hotel_Gabelbach_Mission_Manebach_Sued.waypoints\""
param *.missionControl.missionFiles "\"missions\\\\Szenario_WB_Hotel_Gabelbach_Mission_Hotel.waypoints,missions\\\\Szenario_WB_Hotel_Gabelbach_Mission_Kickelhahn.waypoints,missions\\\\Szenario_WB_Hotel_Gabelbach_Mission_Ilmenau_Sportplatz.waypoints,missions\\\\Szenario_WB_Hotel_Gabelbach_Mission_Manebach_Mitte.waypoints,missions\\\\Szenario_WB_Hotel_Gabelbach_Mission_Manebach_Sued.waypoints,missions\\\\Szenario_WB_Hotel_Gabelbach_Hover_HoheSchlaufe.waypoints,missions\\\\Szenario_WB_Hotel_Gabelbach_Hover_Kickelhahn.waypoints,missions\\\\Szenario_WB_Hotel_Gabelbach_Hover_Gabelbachskopf.waypoints,missions\\\\Szenario_WB_Hotel_Gabelbach_Hover_Dachskopf.waypoints\""
param *.uav[0].startX 3537m
param *.uav[0].startY 965m
param *.uav[0].startZ 539m
param *.uav[1].startX 312m
param *.uav[1].startY 1262m
param *.uav[1].startZ 540m
param *.uav[2].startX 2185m
param *.uav[2].startY 3026m
param *.uav[2].startZ 778m
param *.uav[3].startX 3537m
param *.uav[3].startY 965m
param *.uav[3].startZ 539m
param *.uav[4].startX 312m
param *.uav[4].startY 1262m
param *.uav[4].startZ 540m
param *.uav[5].startX 2185m
param *.uav[5].startY 3026m
param *.uav[5].startZ 778m
param *.uav[6].startX 3537m
param *.uav[6].startY 965m
param *.uav[6].startZ 539m
param *.uav[7].startX 312m
param *.uav[7].startY 1262m
param *.uav[7].startZ 540m
param *.uav[8].startX 2185m
param *.uav[8].startY 3026m
param *.uav[8].startZ 778m
param *.uav[9].startX 3537m
param *.uav[9].startY 965m
param *.uav[9].startZ 539m
param *.uav[10].startX 3537m
param *.uav[10].startY 965m
param *.uav[10].startZ 539m
param *.uav[11].startX 312m
param *.uav[11].startY 1262m
param *.uav[11].startZ 540m
param *.uav[12].startX 2185m
param *.uav[12].startY 3026m
param *.uav[12].startZ 778m
param *.uav[13].startX 3537m
param *.uav[13].startY 965m
param *.uav[13].startZ 539m
param *.uav[14].startX 312m
param *.uav[14].startY 1262m
param *.uav[14].startZ 540m
param *.uav[15].startX 2185m
param *.uav[15].startY 3026m
param *.uav[15].startZ 778m
param *.uav[16].startX 3537m
param *.uav[16].startY 965m
param *.uav[16].startZ 539m
param *.uav[17].startX 312m
param *.uav[17].startY 1262m
param *.uav[17].startZ 540m
param *.uav[18].startX 2185m
param *.uav[18].startY 3026m
param *.uav[18].startZ 778m
param *.uav[19].startX 3537m
param *.uav[19].startY 965m
param *.uav[19].startZ 539m
param *.uav[20].startX 3537m
param *.uav[20].startY 965m
param *.uav[20].startZ 539m
param *.uav[21].startX 312m
param *.uav[21].startY 1262m
param *.uav[21].startZ 540m
param *.uav[22].startX 2185m
param *.uav[22].startY 3026m
param *.uav[22].startZ 778m
param *.uav[23].startX 3537m
param *.uav[23].startY 965m
param *.uav[23].startZ 539m
param *.uav[24].startX 312m
param *.uav[24].startY 1262m
param *.uav[24].startZ 540m
param *.uav[25].startX 2185m
param *.uav[25].startY 3026m
param *.uav[25].startZ 778m
param *.uav[26].startX 3537m
param *.uav[26].startY 965m
param *.uav[26].startZ 539m
param *.uav[27].startX 312m
param *.uav[27].startY 1262m
param *.uav[27].startZ 540m
param *.uav[28].startX 2185m
param *.uav[28].startY 3026m
param *.uav[28].startZ 778m
param *.uav[29].startX 3537m
param *.uav[29].startY 965m
param *.uav[29].startZ 539m
param *.uav[30].startX 3537m
param *.uav[30].startY 965m
param *.uav[30].startZ 539m
param *.uav[31].startX 312m
param *.uav[31].startY 1262m
param *.uav[31].startZ 540m
param *.uav[32].startX 2185m
param *.uav[32].startY 3026m
param *.uav[32].startZ 778m
param *.uav[33].startX 3537m
param *.uav[33].startY 965m
param *.uav[33].startZ 539m
param *.uav[34].startX 312m
param *.uav[34].startY 1262m
param *.uav[34].startZ 540m
param *.uav[35].startX 2185m
param *.uav[35].startY 3026m
param *.uav[35].startZ 778m
param *.uav[36].startX 3537m
param *.uav[36].startY 965m
param *.uav[36].startZ 539m
param *.uav[37].startX 312m
param *.uav[37].startY 1262m
param *.uav[37].startZ 540m
param *.uav[38].startX 2185m
param *.uav[38].startY 3026m
param *.uav[38].startZ 778m
param *.uav[39].startX 3537m
param *.uav[39].startY 965m
param *.uav[39].startZ 539m
param *.uav[40].startX 3537m
param *.uav[40].startY 965m
param *.uav[40].startZ 539m
param *.uav[41].startX 312m
param *.uav[41].startY 1262m
param *.uav[41].startZ 540m
param *.uav[42].startX 2185m
param *.uav[42].startY 3026m
param *.uav[42].startZ 778m
param *.uav[43].startX 3537m
param *.uav[43].startY 965m
param *.uav[43].startZ 539m
param *.uav[44].startX 312m
param *.uav[44].startY 1262m
param *.uav[44].startZ 540m
param *.uav[45].startX 2185m
param *.uav[45].startY 3026m
param *.uav[45].startZ 778m
param *.uav[46].startX 3537m
param *.uav[46].startY 965m
param *.uav[46].startZ 539m
param *.uav[47].startX 312m
param *.uav[47].startY 1262m
param *.uav[47].startZ 540m
param *.uav[48].startX 2185m
param *.uav[48].startY 3026m
param *.uav[48].startZ 778m
param *.uav[49].startX 3537m
param *.uav[49].startY 965m
param *.uav[49].startZ 539m
param *.uav[50].startX 3537m
param *.uav[50].startY 965m
param *.uav[50].startZ 539m
param *.uav[51].startX 312m
param *.uav[51].startY 1262m
param *.uav[51].startZ 540m
param *.uav[52].startX 2185m
param *.uav[52].startY 3026m
param *.uav[52].startZ 778m
param *.uav[53].startX 3537m
param *.uav[53].startY 965m
param *.uav[53].startZ 539m
param *.uav[54].startX 312m
param *.uav[54].startY 1262m
param *.uav[54].startZ 540m
param *.uav[55].startX 2185m
param *.uav[55].startY 3026m
param *.uav[55].startZ 778m
param *.uav[56].startX 3537m
param *.uav[56].startY 965m
param *.uav[56].startZ 539m
param *.uav[57].startX 312m
param *.uav[57].startY 1262m
param *.uav[57].startZ 540m
param *.uav[58].startX 2185m
param *.uav[58].startY 3026m
param *.uav[58].startZ 778m
param *.uav[59].startX 3537m
param *.uav[59].startY 965m
param *.uav[59].startZ 539m
param *.uav[60].startX 3537m
param *.uav[60].startY 965m
param *.uav[60].startZ 539m
param *.uav[61].startX 312m
param *.uav[61].startY 1262m
param *.uav[61].startZ 540m
param *.uav[62].startX 2185m
param *.uav[62].startY 3026m
param *.uav[62].startZ 778m
param *.uav[63].startX 3537m
param *.uav[63].startY 965m
param *.uav[63].startZ 539m
param *.uav[64].startX 312m
param *.uav[64].startY 1262m
param *.uav[64].startZ 540m
param *.uav[65].startX 2185m
param *.uav[65].startY 3026m
param *.uav[65].startZ 778m
param *.uav[66].startX 3537m
param *.uav[66].startY 965m
param *.uav[66].startZ 539m
param *.uav[67].startX 312m
param *.uav[67].startY 1262m
param *.uav[67].startZ 540m
param *.uav[68].startX 2185m
param *.uav[68].startY 3026m
param *.uav[68].startZ 778m
param *.uav[69].startX 3537m
param *.uav[69].startY 965m
param *.uav[69].startZ 539m
param *.uav[70].startX 3537m
param *.uav[70].startY 965m
param *.uav[70].startZ 539m
param *.uav[71].startX 312m
param *.uav[71].startY 1262m
param *.uav[71].startZ 540m
param *.uav[72].startX 2185m
param *.uav[72].startY 3026m
param *.uav[72].startZ 778m
param *.uav[73].startX 3537m
param *.uav[73].startY 965m
param *.uav[73].startZ 539m
param *.uav[74].startX 312m
param *.uav[74].startY 1262m
param *.uav[74].startZ 540m
param *.uav[75].startX 2185m
param *.uav[75].startY 3026m
param *.uav[75].startZ 778m
param *.uav[76].startX 3537m
param *.uav[76].startY 965m
param *.uav[76].startZ 539m
param *.uav[77].startX 312m
param *.uav[77].startY 1262m
param *.uav[77].startZ 540m
param *.uav[78].startX 2185m
param *.uav[78].startY 3026m
param *.uav[78].startZ 778m
param *.uav[79].startX 3537m
param *.uav[79].startY 965m
param *.uav[79].startZ 539m
param *.uav[80].startX 3537m
param *.uav[80].startY 965m
param *.uav[80].startZ 539m
param *.uav[81].startX 312m
param *.uav[81].startY 1262m
param *.uav[81].startZ 540m
param *.uav[82].startX 2185m
param *.uav[82].startY 3026m
param *.uav[82].startZ 778m
param *.uav[83].startX 3537m
param *.uav[83].startY 965m
param *.uav[83].startZ 539m
param *.uav[84].startX 312m
param *.uav[84].startY 1262m
param *.uav[84].startZ 540m
param *.uav[85].startX 2185m
param *.uav[85].startY 3026m
param *.uav[85].startZ 778m
param *.uav[86].startX 3537m
param *.uav[86].startY 965m
param *.uav[86].startZ 539m
param *.uav[87].startX 312m
param *.uav[87].startY 1262m
param *.uav[87].startZ 540m
param *.uav[88].startX 2185m
param *.uav[88].startY 3026m
param *.uav[88].startZ 778m
param *.uav[89].startX 3537m
param *.uav[89].startY 965m
param *.uav[89].startZ 539m
param *.uav[90].startX 3537m
param *.uav[90].startY 965m
param *.uav[90].startZ 539m
param *.uav[91].startX 312m
param *.uav[91].startY 1262m
param *.uav[91].startZ 540m
param *.uav[92].startX 2185m
param *.uav[92].startY 3026m
param *.uav[92].startZ 778m
param *.uav[93].startX 3537m
param *.uav[93].startY 965m
param *.uav[93].startZ 539m
param *.uav[94].startX 312m
param *.uav[94].startY 1262m
param *.uav[94].startZ 540m
param *.uav[95].startX 2185m
param *.uav[95].startY 3026m
param *.uav[95].startZ 778m
param *.uav[96].startX 3537m
param *.uav[96].startY 965m
param *.uav[96].startZ 539m
param *.uav[97].startX 312m
param *.uav[97].startY 1262m
param *.uav[97].startZ 540m
param *.uav[98].startX 2185m
param *.uav[98].startY 3026m
param *.uav[98].startZ 778m
param *.uav[99].startX 3537m
param *.uav[99].startY 965m
param *.uav[99].startZ 539m
param *.osgEarthScene.scene "\"boston.earth\""
param *.playgroundLatitude 42.3558
param *.playgroundLongitude -71.0677
param *.playgroundWidth 400m
param *.playgroundHeight 200m
param *.channelController.connectionColor "\"#0000FF40\""
param *.channelController.showConnections false
param *.uav[*].modelURL "\"quadrocopter.small.obj.15.scale.0,0,90.rot\""
param *.uav[*].labelColor "\"#FF7C00CC\""
param *.uav[*].label2Color "\"#FF7C00EE\""
param *.uav[*].batteryCapacity 5200mAh
param *.uav[*].batteryRemaining uav[index].batteryCapacity
param *.uav[*].predictionQuantile 0.95
param *.uav[*].replacementMethod 2
param *.uav[*].weightedSumWeight 0.5
param *.cs[*].modelURL "\"chargingstation_v1.osgt.2.scale.0,0,0.rot.0,0,-15e-1.trans\""
param *.cs[*].spotsWaiting 999
param *.cs[*].spotsCharging 999
param *.cs[*].chargeEffectivenessPercentage 100
param *.cs[*].nonLinearPhaseStartPercentage 85
param *.cs[*].chargeCurrent 6.0A
param *.cs[*].prioritizeFastCharge true
param *.missionControl.replacementSearchMethod 0
param *.*.timeStep 9s

scalar OsgEarthNet.uav[0] utilizationSecMission 30029.522686931
scalar OsgEarthNet.uav[0] utilizationSecMaintenance 13888.962652119
scalar OsgEarthNet.uav[0] utilizationSecCharge 159960
scalar OsgEarthNet.uav[0] utilizationSecIdle 55321.51366095
scalar OsgEarthNet.uav[0] utilizationEnergyMission 139766.11356354
scalar OsgEarthNet.uav[0] utilizationEnergyMaintenance 65143.459428602
scalar OsgEarthNet.uav[0] utilizationEnergyCharge 200425.42822266
scalar OsgEarthNet.uav[0] utilizationEnergyOverdrawMission 0
scalar OsgEarthNet.uav[0] utilizationEnergyOverdrawMaintenance 0
scalar OsgEarthNet.uav[0] utilizationCountMissions 44
scalar OsgEarthNet.uav[0] utilizationCountManeuversMission 496
scalar OsgEarthNet.uav[0] utilizationCountManeuversMaintenance 88
scalar OsgEarthNet.uav[0] utilizationCountChargeState 43
scalar OsgEarthNet.uav[0] utilizationCountOverdrawnAfterMission 0
scalar OsgEarthNet.uav[0] utilizationCountIdleState 44
scalar OsgEarthNet.uav[0] utilizationFail 0
scalar OsgEarthNet.uav[0] simulationTime 259200
scalar OsgEarthNet.uav[1] utilizationSecMission 11394.302247293
scalar OsgEarthNet.uav[1] utilizationSecMaintenance 5470.4140780367
scalar OsgEarthNet.uav[1] utilizationSecCharge 59523.281158011
scalar OsgEarthNet.uav[1] utilizationSecIdle 182812.00151666
scalar OsgEarthNet.uav[1] utilizationEnergyMission 52709.473297119
scalar OsgEarthNet.uav[1] utilizationEnergyMaintenance 26360.347942352
scalar OsgEarthNet.uav[1] utilizationEnergyCharge 74579.016601562
scalar OsgEarthNet.uav[1] utilizationEnergyOverdrawMission 0
scalar OsgEarthNet.uav[1] utilizationEnergyOverdrawMaintenance 0
scalar OsgEarthNet.uav[1] utilizationCountMissions 17
scalar OsgEarthNet.uav[1] utilizationCountManeuversMission 193
scalar OsgEarthNet.uav[1] utilizationCountManeuversMaintenance 34
scalar OsgEarthNet.uav[1] utilizationCountChargeState 17
scalar OsgEarthNet.uav[1] utilizationCountOverdrawnAfterMission 0
scalar OsgEarthNet.uav[1] utilizationCountIdleState 17
scalar OsgEarthNet.uav[1] utilizationFail 0
scalar OsgEarthNet.uav[1] simulationTime 259200
scalar OsgEarthNet.uav[2] utilizationSecMission 622.34811799271
scalar OsgEarthNet.uav[2] utilizationSecMaintenance 344.57130305472
scalar OsgEarthNet.uav[2] utilizationSecCharge 3690
scalar OsgEarthNet.uav[2] utilizationSecIdle 254543.07957895
scalar OsgEarthNet.uav[2] utilizationEnergyMission 3066.1053314209
scalar OsgEarthNet.uav[2] utilizationEnergyMaintenance 1532.6025505066
scalar OsgEarthNet.uav[2] utilizationEnergyCharge 4598.70703125
scalar OsgEarthNet.uav[2] utilizationEnergyOverdrawMission 0
scalar OsgEarthNet.uav[2] utilizationEnergyOverdrawMaintenance 0
scalar OsgEarthNet.uav[2] utilizationCountMissions 1
scalar OsgEarthNet.uav[2] utilizationCountManeuversMission 9
scalar OsgEarthNet.uav[2] utilizationCountManeuversMaintenance 2
scalar OsgEarthNet.uav[2] utilizationCountChargeState 1
scalar OsgEarthNet.uav[2] utilizationCountOverdrawnAfterMission 0
scalar OsgEarthNet.uav[2] utilizationCountIdleState 2
scalar OsgEarthNet.uav[2] utilizationFail 0
scalar OsgEarthNet.uav[2] simulationTime 259200
scalar OsgEarthNet.uav[3] utilizationSecMission 760.62515258028
scalar OsgEarthNet.uav[3] utilizationSecMaintenance 223.6438949726
scalar OsgEarthNet.uav[3] utilizationSecCharge 3680
scalar OsgEarthNet.uav[3] utilizationSecIdle 254535.72995245
scalar OsgEarthNet.uav[3] utilizationEnergyMission 3419.9653930664
scalar OsgEarthNet.uav[3] utilizationEnergyMaintenance 1146.9190788269
scalar OsgEarthNet.uav[3] utilizationEnergyCharge 4566.8823242188
scalar OsgEarthNet.uav[3] utilizationEnergyOverdrawMission 0
scalar OsgEarthNet.uav[3] utilizationEnergyOverdrawMaintenance 0
scalar OsgEarthNet.uav[3] utilizationCountMissions 1
scalar OsgEarthNet.uav[3] utilizationCountManeuversMission 12
scalar OsgEarthNet.uav[3] utilizationCountManeuversMaintenance 2
scalar OsgEarthNet.uav[3] utilizationCountChargeState 1
scalar OsgEarthNet.uav[3] utilizationCountOverdrawnAfterMission 0
scalar OsgEarthNet.uav[3] utilizationCountIdleState 2
scalar OsgEarthNet.uav[3] utilizationFail 0
scalar OsgEarthNet.uav[3] simulationTime 259200
scalar OsgEarthNet.uav[4] utilizationSecMission 528.55000878666
scalar OsgEarthNet.uav[4] utilizationSecMaintenance 478.92797493542
scalar OsgEarthNet.uav[4] utilizationSecCharge 3630
scalar OsgEarthNet.uav[4] utilizationSecIdle 254562.52101628
scalar OsgEarthNet.uav[4] utilizationEnergyMission 2226.3343887329
scalar OsgEarthNet.uav[4] utilizationEnergyMaintenance 2263.3858261108
scalar OsgEarthNet.uav[4] utilizationEnergyCharge 4489.7255859375
scalar OsgEarthNet.uav[4] utilizationEnergyOverdrawMission 0
scalar OsgEarthNet.uav[4] utilizationEnergyOverdrawMaintenance 0
scalar OsgEarthNet.uav[4] utilizationCountMissions 1
scalar OsgEarthNet.uav[4] utilizationCountManeuversMission 10
scalar OsgEarthNet.uav[4] utilizationCountManeuversMaintenance 2
scalar OsgEarthNet.uav[4] utilizationCountChargeState 1
scalar OsgEarthNet.uav[4] utilizationCountOverdrawnAfterMission 0
scalar OsgEarthNet.uav[4] utilizationCountIdleState 2
scalar OsgEarthNet.uav[4] utilizationFail 0
scalar OsgEarthNet.uav[4] simulationTime 259200
scalar OsgEarthNet.uav[5] utilizationSecMission 698.84532193436
scalar OsgEarthNet.uav[5] utilizationSecMaintenance 251.76601760685
scalar OsgEarthNet.uav[5] utilizationSecCharge 3750
scalar OsgEarthNet.uav[5] utilizationSecIdle 254499.38766046
scalar OsgEarthNet.uav[5] utilizationEnergyMission 3413.7250518799
scalar OsgEarthNet.uav[5] utilizationEnergyMaintenance 1249.4838981628
scalar OsgEarthNet.uav[5] utilizationEnergyCharge 4663.2099609375
scalar OsgEarthNet.uav[5] utilizationEnergyOverdrawMission 0
scalar OsgEarthNet.uav[5] utilizationEnergyOverdrawMaintenance 0
scalar OsgEarthNet.uav[5] utilizationCountMissions 1
scalar OsgEarthNet.uav[5] utilizationCountManeuversMission 10
scalar OsgEarthNet.uav[5] utilizationCountManeuversMaintenance 2
scalar OsgEarthNet.uav[5] utilizationCountChargeState 1
scalar OsgEarthNet.uav[5] utilizationCountOverdrawnAfterMission 0
scalar OsgEarthNet.uav[5] utilizationCountIdleState 2
scalar OsgEarthNet.uav[5] utilizationFail 0
scalar OsgEarthNet.uav[5] simulationTime 259200
scalar OsgEarthNet.uav[6] utilizationSecMission 30647.28431034
scalar OsgEarthNet.uav[6] utilizationSecMaintenance 15650.520665367
scalar OsgEarthNet.uav[6] utilizationSecCharge 169300.19402429
scalar OsgEarthNet.uav[6] utilizationSecIdle 43602
scalar OsgEarthNet.uav[6] utilizationEnergyMission 142069.74013901
scalar OsgEarthNet.uav[6] utilizationEnergyMaintenance 73104.780769348
scalar OsgEarthNet.uav[6] utilizationEnergyCharge 212855.57666016
scalar OsgEarthNet.uav[6] utilizationEnergyOverdrawMission 0
scalar OsgEarthNet.uav[6] utilizationEnergyOverdrawMaintenance 0
scalar OsgEarthNet.uav[6] utilizationCountMissions 46
scalar OsgEarthNet.uav[6] utilizationCountManeuversMission 507
scalar OsgEarthNet.uav[6] utilizationCountManeuversMaintenance 91
scalar OsgEarthNet.uav[6] utilizationCountChargeState 46
scalar OsgEarthNet.uav[6] utilizationCountOverdrawnAfterMission 0
scalar OsgEarthNet.uav[6] utilizationCountIdleState 46
scalar OsgEarthNet.uav[6] utilizationFail 0
scalar OsgEarthNet.uav[6] simulationTime 259200
scalar OsgEarthNet.uav[7] utilizationSecMission 694.00169469977
scalar OsgEarthNet.uav[7] utilizationSecMaintenance 297.56999528428
scalar OsgEarthNet.uav[7] utilizationSecCharge 3690
scalar OsgEarthNet.uav[7] utilizationSecIdle 254518.42731002
scalar OsgEarthNet.uav[7] utilizationEnergyMission 3229.5522918701
scalar OsgEarthNet.uav[7] utilizationEnergyMaintenance 1346.5777702332
scalar OsgEarthNet.uav[7] utilizationEnergyCharge 4576.12890625
scalar OsgEarthNet.uav[7] utilizationEnergyOverdrawMission 0
scalar OsgEarthNet.uav[7] utilizationEnergyOverdrawMaintenance 0
scalar OsgEarthNet.uav[7] utilizationCountMissions 1
scalar OsgEarthNet.uav[7] utilizationCountManeuversMission 13
scalar OsgEarthNet.uav[7] utilizationCountManeuversMaintenance 2
scalar OsgEarthNet.uav[7] utilizationCountChargeState 1
scalar OsgEarthNet.uav[7] utilizationCountOverdrawnAfterMission 0
scalar OsgEarthNet.uav[7] utilizationCountIdleState 2
scalar OsgEarthNet.uav[7] utilizationFail 0
scalar OsgEarthNet.uav[7] simulationTime 259200
scalar OsgEarthNet.uav[8] utilizationSecMission 5611.230815607
scalar OsgEarthNet.uav[8] utilizationSecMaintenance 2382.8564663619
scalar OsgEarthNet.uav[8] utilizationSecCharge 29700
scalar OsgEarthNet.uav[8] utilizationSecIdle 221505.91171803
scalar OsgEarthNet.uav[8] utilizationEnergyMission 25479.383232117
scalar OsgEarthNet.uav[8] utilizationEnergyMaintenance 11382.09495163
scalar OsgEarthNet.uav[8] utilizationEnergyCharge 37211.540039062
scalar OsgEarthNet.uav[8] utilizationEnergyOverdrawMission 0
scalar OsgEarthNet.uav[8] utilizationEnergyOverdrawMaintenance 0
scalar OsgEarthNet.uav[8] utilizationCountMissions 8
scalar OsgEarthNet.uav[8] utilizationCountManeuversMission 90
scalar OsgEarthNet.uav[8] utilizationCountManeuversMaintenance 16
scalar OsgEarthNet.uav[8] utilizationCountChargeState 8
scalar OsgEarthNet.uav[8] utilizationCountOverdrawnAfterMission 0
scalar OsgEarthNet.uav[8] utilizationCountIdleState 9
scalar OsgEarthNet.uav[8] utilizationFail 0
scalar OsgEarthNet.uav[8] simulationTime 259200
scalar OsgEarthNet.uav[9] utilizationSecMission 28978.813591765
scalar OsgEarthNet.uav[9] utilizationSecMaintenance 13631.868294746
scalar OsgEarthNet.uav[9] utilizationSecCharge 154460
scalar OsgEarthNet.uav[9] utilizationSecIdle 62129.317113489
scalar OsgEarthNet.uav[9] utilizationEnergyMission 133235.81692852
scalar OsgEarthNet.uav[9] utilizationEnergyMaintenance 64258.225856781
scalar OsgEarthNet.uav[9] utilizationEnergyCharge 194303.62597656
scalar OsgEarthNet.uav[9] utilizationEnergyOverdrawMission 0
scalar OsgEarthNet.uav[9] utilizationEnergyOverdrawMaintenance 0
scalar OsgEarthNet.uav[9] utilizationCountMissions 41
scalar OsgEarthNet.uav[9] utilizationCountManeuversMission 468
scalar OsgEarthNet.uav[9] utilizationCountManeuversMaintenance 83
scalar OsgEarthNet.uav[9] utilizationCountChargeState 41
scalar OsgEarthNet.uav[9] utilizationCountOverdrawnAfterMission 0
scalar OsgEarthNet.uav[9] utilizationCountIdleState 42
scalar OsgEarthNet.uav[9] utilizationFail 0
scalar OsgEarthNet.uav[9] simulationTime 259200
scalar OsgEarthNet.uav[10] utilizationSecMission 684.4732299383
scalar OsgEarthNet.uav[10] utilizationSecMaintenance 298.56834692969
scalar OsgEarthNet.uav[10] utilizationSecCharge 3790
scalar OsgEarthNet.uav[10] utilizationSecIdle 254426.95742313
scalar OsgEarthNet.uav[10] utilizationEnergyMission 3410.0824127197
scalar OsgEarthNet.uav[10] utilizationEnergyMaintenance 1398.5043563843
scalar OsgEarthNet.uav[10] utilizationEnergyCharge 4808.5883789062
scalar OsgEarthNet.uav[10] utilizationEnergyOverdrawMission 0
scalar OsgEarthNet.uav[10] utilizationEnergyOverdrawMaintenance 0
scalar OsgEarthNet.uav[10] utilizationCountMissions 1
scalar OsgEarthNet.uav[10] utilizationCountManeuversMission 11
scalar OsgEarthNet.uav[10] utilizationCountManeuversMaintenance 2
scalar OsgEarthNet.uav[10] utilizationCountChargeState 1
scalar OsgEarthNet.uav[10] utilizationCountOverdrawnAfterMission 0
scalar OsgEarthNet.uav[10] utilizationCountIdleState 2
scalar OsgEarthNet.uav[10] utilizationFail 0
scalar OsgEarthNet.uav[10] simulationTime 259200
scalar OsgEarthNet.uav[11] utilizationSecMission 30399.953635509
scalar OsgEarthNet.uav[11] utilizationSecMaintenance 12468.885882571
scalar OsgEarthNet.uav[11] utilizationSecCharge 156190
scalar OsgEarthNet.uav[11] utilizationSecIdle 60141.15948192
scalar OsgEarthNet.uav[11] utilizationEnergyMission 140465.62860107
scalar OsgEarthNet.uav[11] utilizationEnergyMaintenance 59126.355277597
scalar OsgEarthNet.uav[11] utilizationEnergyCharge 195538.84716797
scalar OsgEarthNet.uav[11] utilizationEnergyOverdrawMission 0
scalar OsgEarthNet.uav[11] utilizationEnergyOverdrawMaintenance 0
scalar OsgEarthNet.uav[11] utilizationCountMissions 43
scalar OsgEarthNet.uav[11] utilizationCountManeuversMission 476
scalar OsgEarthNet.uav[11] utilizationCountManeuversMaintenance 86
scalar OsgEarthNet.uav[11] utilizationCountChargeState 42
scalar OsgEarthNet.uav[11] utilizationCountOverdrawnAfterMission 0
scalar OsgEarthNet.uav[11] utilizationCountIdleState 43
scalar OsgEarthNet.uav[11] utilizationFail 0
scalar OsgEarthNet.uav[11] simulationTime 259200
scalar OsgEarthNet.uav[12] utilizationSecMission 750.20472747826
scalar OsgEarthNet.uav[12] utilizationSecMaintenance 300.8347882699
scalar OsgEarthNet.uav[12] utilizationSecCharge 3900
scalar OsgEarthNet.uav[12] utilizationSecIdle 254248.95948425
scalar OsgEarthNet.uav[12] utilizationEnergyMission 3546.8237609863
scalar OsgEarthNet.uav[12] utilizationEnergyMaintenance 1402.5619621277
scalar OsgEarthNet.uav[12] utilizationEnergyCharge 4949.3842773438
scalar OsgEarthNet.uav[12] utilizationEnergyOverdrawMission 0
scalar OsgEarthNet.uav[12] utilizationEnergyOverdrawMaintenance 0
scalar OsgEarthNet.uav[12] utilizationCountMissions 1
scalar OsgEarthNet.uav[12] utilizationCountManeuversMission 11
scalar OsgEarthNet.uav[12] utilizationCountManeuversMaintenance 2
scalar OsgEarthNet.uav[12] utilizationCountChargeState 1
scalar OsgEarthNet.uav[12] utilizationCountOverdrawnAfterMission 0
scalar OsgEarthNet.uav[12] utilizationCountIdleState 2
scalar OsgEarthNet.uav[12] utilizationFail 0
scalar OsgEarthNet.uav[12] simulationTime 259200
scalar OsgEarthNet.uav[13] utilizationSecMission 684.4732299383
scalar OsgEarthNet.uav[13] utilizationSecMaintenance 298.56834692969
scalar OsgEarthNet.uav[13] utilizationSecCharge 3720
scalar OsgEarthNet.uav[13] utilizationSecIdle 254496.95742313
scalar OsgEarthNet.uav[13] utilizationEnergyMission 3170.8409423828
scalar OsgEarthNet.uav[13] utilizationEnergyMaintenance 1514.4604721069
scalar OsgEarthNet.uav[13] utilizationEnergyCharge 4685.3022460938
scalar OsgEarthNet.uav[13] utilizationEnergyOverdrawMission 0
scalar OsgEarthNet.uav[13] utilizationEnergyOverdrawMaintenance 0
scalar OsgEarthNet.uav[13] utilizationCountMissions 1
scalar OsgEarthNet.uav[13] utilizationCountManeuversMission 11
scalar OsgEarthNet.uav[13] utilizationCountManeuversMaintenance 2
scalar OsgEarthNet.uav[13] utilizationCountChargeState 1
scalar OsgEarthNet.uav[13] utilizationCountOverdrawnAfterMission 0
scalar OsgEarthNet.uav[13] utilizationCountIdleState 2
scalar OsgEarthNet.uav[13] utilizationFail 0
scalar OsgEarthNet.uav[13] simulationTime 259200
scalar OsgEarthNet.uav[14] utilizationSecMission 25615.388593615
scalar OsgEarthNet.uav[14] utilizationSecMaintenance 13328.242577369
scalar OsgEarthNet.uav[14] utilizationSecCharge 141512.95339973
scalar OsgEarthNet.uav[14] utilizationSecIdle 78743.414429283
scalar OsgEarthNet.uav[14] utilizationEnergyMission 117563.45285797
scalar OsgEarthNet.uav[14] utilizationEnergyMaintenance 62314.036216736
scalar OsgEarthNet.uav[14] utilizationEnergyCharge 179206.38208008
scalar OsgEarthNet.uav[14] utilizationEnergyOverdrawMission 0
scalar OsgEarthNet.uav[14] utilizationEnergyOverdrawMaintenance 0
scalar OsgEarthNet.uav[14] utilizationCountMissions 38
scalar OsgEarthNet.uav[14] utilizationCountManeuversMission 420
scalar OsgEarthNet.uav[14] utilizationCountManeuversMaintenance 76
scalar OsgEarthNet.uav[14] utilizationCountChargeState 38
scalar OsgEarthNet.uav[14] utilizationCountOverdrawnAfterMission 0
scalar OsgEarthNet.uav[14] utilizationCountIdleState 38
scalar OsgEarthNet.uav[14] utilizationFail 0
scalar OsgEarthNet.uav[14] simulationTime 259200
scalar OsgEarthNet.uav[15] utilizationSecMission 694.00169469977
scalar OsgEarthNet.uav[15] utilizationSecMaintenance 338.49695459722
scalar OsgEarthNet.uav[15] utilizationSecCharge 3590
scalar OsgEarthNet.uav[15] utilizationSecIdle 254577.5003507
scalar OsgEarthNet.uav[15] utilizationEnergyMission 2926.3185806274
scalar OsgEarthNet.uav[15] utilizationEnergyMaintenance 1468.1827507019
scalar OsgEarthNet.uav[15] utilizationEnergyCharge 4394.498046875
scalar OsgEarthNet.uav[15] utilizationEnergyOverdrawMission 0
scalar OsgEarthNet.uav[15] utilizationEnergyOverdrawMaintenance 0
scalar OsgEarthNet.uav[15] utilizationCountMissions 1
scalar OsgEarthNet.uav[15] utilizationCountManeuversMission 13
scalar OsgEarthNet.uav[15] utilizationCountManeuversMaintenance 2
scalar OsgEarthNet.uav[15] utilizationCountChargeState 1
scalar OsgEarthNet.uav[15] utilizationCountOverdrawnAfterMission 0
scalar OsgEarthNet.uav[15] utilizationCountIdleState 2
scalar OsgEarthNet.uav[15] utilizationFail 0
scalar OsgEarthNet.uav[15] simulationTime 259200
scalar OsgEarthNet.uav[16] utilizationSecMission 836.77707522227
scalar OsgEarthNet.uav[16] utilizationSecMaintenance 217.0347828456
scalar OsgEarthNet.uav[16] utilizationSecCharge 3770
scalar OsgEarthNet.uav[16] utilizationSecIdle 254376.18714193
scalar OsgEarthNet.uav[16] utilizationEnergyMission 3607.9110412598
scalar OsgEarthNet.uav[16] utilizationEnergyMaintenance 1130.1801872253
scalar OsgEarthNet.uav[16] utilizationEnergyCharge 4738.0913085938
scalar OsgEarthNet.uav[16] utilizationEnergyOverdrawMission 0
scalar OsgEarthNet.uav[16] utilizationEnergyOverdrawMaintenance 0
scalar OsgEarthNet.uav[16] utilizationCountMissions 1
scalar OsgEarthNet.uav[16] utilizationCountManeuversMission 13
scalar OsgEarthNet.uav[16] utilizationCountManeuversMaintenance 2
scalar OsgEarthNet.uav[16] utilizationCountChargeState 1
scalar OsgEarthNet.uav[16] utilizationCountOverdrawnAfterMission 0
scalar OsgEarthNet.uav[16] utilizationCountIdleState 2
scalar OsgEarthNet.uav[16] utilizationFail 0
scalar OsgEarthNet.uav[16] simulationTime 259200
scalar OsgEarthNet.uav[17] utilizationSecMission 13870.106515655
scalar OsgEarthNet.uav[17] utilizationSecMaintenance 6460.2474323526
scalar OsgEarthNet.uav[17] utilizationSecCharge 74820
scalar OsgEarthNet.uav[17] utilizationSecIdle 164049.64505199
scalar OsgEarthNet.uav[17] utilizationEnergyMission 63611.77407074
scalar OsgEarthNet.uav[17] utilizationEnergyMaintenance 30444.631973267
scalar OsgEarthNet.uav[17] utilizationEnergyCharge 94023.545898438
scalar OsgEarthNet.uav[17] utilizationEnergyOverdrawMission 0
scalar OsgEarthNet.uav[17] utilizationEnergyOverdrawMaintenance 0
scalar OsgEarthNet.uav[17] utilizationCountMissions 20
scalar OsgEarthNet.uav[17] utilizationCountManeuversMission 231
scalar OsgEarthNet.uav[17] utilizationCountManeuversMaintenance 40
scalar OsgEarthNet.uav[17] utilizationCountChargeState 20
scalar OsgEarthNet.uav[17] utilizationCountOverdrawnAfterMission 0
scalar OsgEarthNet.uav[17] utilizationCountIdleState 21
scalar OsgEarthNet.uav[17] utilizationFail 0
scalar OsgEarthNet.uav[17] simulationTime 259200
scalar OsgEarthNet.uav[18] utilizationSecMission 29509.31043778
scalar OsgEarthNet.uav[18] utilizationSecMaintenance 14625.076414784
scalar OsgEarthNet.uav[18] utilizationSecCharge 163991.11420626
scalar OsgEarthNet.uav[18] utilizationSecIdle 51074.497941176
scalar OsgEarthNet.uav[18] utilizationEnergyMission 137063.77740479
scalar OsgEarthNet.uav[18] utilizationEnergyMaintenance 68855.64535141
scalar OsgEarthNet.uav[18] utilizationEnergyCharge 205800.41967773
scalar OsgEarthNet.uav[18] utilizationEnergyOverdrawMission 0
scalar OsgEarthNet.uav[18] utilizationEnergyOverdrawMaintenance 0
scalar OsgEarthNet.uav[18] utilizationCountMissions 44
scalar OsgEarthNet.uav[18] utilizationCountManeuversMission 480
scalar OsgEarthNet.uav[18] utilizationCountManeuversMaintenance 88
scalar OsgEarthNet.uav[18] utilizationCountChargeState 44
scalar OsgEarthNet.uav[18] utilizationCountOverdrawnAfterMission 0
scalar OsgEarthNet.uav[18] utilizationCountIdleState 44
scalar OsgEarthNet.uav[18] utilizationFail 0
scalar OsgEarthNet.uav[18] simulationTime 259200
scalar OsgEarthNet.uav[19] utilizationSecMission 836.77707522227
scalar OsgEarthNet.uav[19] utilizationSecMaintenance 217.0347828456
scalar OsgEarthNet.uav[19] utilizationSecCharge 3790
scalar OsgEarthNet.uav[19] utilizationSecIdle 254356.18714193
scalar OsgEarthNet.uav[19] utilizationEnergyMission 3835.5180892944
scalar OsgEarthNet.uav[19] utilizationEnergyMaintenance 928.80317306519
scalar OsgEarthNet.uav[19] utilizationEnergyCharge 4764.3237304688
scalar OsgEarthNet.uav[19] utilizationEnergyOverdrawMission 0
scalar OsgEarthNet.uav[19] utilizationEnergyOverdrawMaintenance 0
scalar OsgEarthNet.uav[19] utilizationCountMissions 1
scalar OsgEarthNet.uav[19] utilizationCountManeuversMission 13
scalar OsgEarthNet.uav[19] utilizationCountManeuversMaintenance 2
scalar OsgEarthNet.uav[19] utilizationCountChargeState 1
scalar OsgEarthNet.uav[19] utilizationCountOverdrawnAfterMission 0
scalar OsgEarthNet.uav[19] utilizationCountIdleState 2
scalar OsgEarthNet.uav[19] utilizationFail 0
scalar OsgEarthNet.uav[19] simulationTime 259200
scalar OsgEarthNet.uav[20] utilizationSecMission 684.4732299383
scalar OsgEarthNet.uav[20] utilizationSecMaintenance 298.56834692969
scalar OsgEarthNet.uav[20] utilizationSecCharge 3770
scalar OsgEarthNet.uav[20] utilizationSecIdle 254446.95742313
scalar OsgEarthNet.uav[20] utilizationEnergyMission 3332.9489059448
scalar OsgEarthNet.uav[20] utilizationEnergyMaintenance 1377.1337203979
scalar OsgEarthNet.uav[20] utilizationEnergyCharge 4710.0834960938
scalar OsgEarthNet.uav[20] utilizationEnergyOverdrawMission 0
scalar OsgEarthNet.uav[20] utilizationEnergyOverdrawMaintenance 0
scalar OsgEarthNet.uav[20] utilizationCountMissions 1
scalar OsgEarthNet.uav[20] utilizationCountManeuversMission 11
scalar OsgEarthNet.uav[20] utilizationCountManeuversMaintenance 2
scalar OsgEarthNet.uav[20] utilizationCountChargeState 1
scalar OsgEarthNet.uav[20] utilizationCountOverdrawnAfterMission 0
scalar OsgEarthNet.uav[20] utilizationCountIdleState 2
scalar OsgEarthNet.uav[20] utilizationFail 0
scalar OsgEarthNet.uav[20] simulationTime 259200
scalar OsgEarthNet.uav[21] utilizationSecMission 30096.386274282
scalar OsgEarthNet.uav[21] utilizationSecMaintenance 16145.9384535
scalar OsgEarthNet.uav[21] utilizationSecCharge 170265.67427222
scalar OsgEarthNet.uav[21] utilizationSecIdle 42692
scalar OsgEarthNet.uav[21] utilizationEnergyMission 139317.42775345
scalar OsgEarthNet.uav[21] utilizationEnergyMaintenance 75919.653129578
scalar OsgEarthNet.uav[21] utilizationEnergyCharge 214398.2109375
scalar OsgEarthNet.uav[21] utilizationEnergyOverdrawMission 0
scalar OsgEarthNet.uav[21] utilizationEnergyOverdrawMaintenance 0
scalar OsgEarthNet.uav[21] utilizationCountMissions 46
scalar OsgEarthNet.uav[21] utilizationCountManeuversMission 500
scalar OsgEarthNet.uav[21] utilizationCountManeuversMaintenance 91
scalar OsgEarthNet.uav[21] utilizationCountChargeState 46
scalar OsgEarthNet.uav[21] utilizationCountOverdrawnAfterMission 0
scalar OsgEarthNet.uav[21] utilizationCountIdleState 46
scalar OsgEarthNet.uav[21] utilizationFail 0
scalar OsgEarthNet.uav[21] simulationTime 259200
scalar OsgEarthNet.uav[22] utilizationSecMission 887.1741082606
scalar OsgEarthNet.uav[22] utilizationSecMaintenance 171.13387461676
scalar OsgEarthNet.uav[22] utilizationSecCharge 3850
scalar OsgEarthNet.uav[22] utilizationSecIdle 254291.69101712
scalar OsgEarthNet.uav[22] utilizationEnergyMission 4042.5433654785
scalar OsgEarthNet.uav[22] utilizationEnergyMaintenance 843.89797210693
scalar OsgEarthNet.uav[22] utilizationEnergyCharge 4840.4311523438
scalar OsgEarthNet.uav[22] utilizationEnergyOverdrawMission 0
scalar OsgEarthNet.uav[22] utilizationEnergyOverdrawMaintenance 0
scalar OsgEarthNet.uav[22] utilizationCountMissions 1
scalar OsgEarthNet.uav[22] utilizationCountManeuversMission 14
scalar OsgEarthNet.uav[22] utilizationCountManeuversMaintenance 2
scalar OsgEarthNet.uav[22] utilizationCountChargeState 1
scalar OsgEarthNet.uav[22] utilizationCountOverdrawnAfterMission 0
scalar OsgEarthNet.uav[22] utilizationCountIdleState 2
scalar OsgEarthNet.uav[22] utilizationFail 0
scalar OsgEarthNet.uav[22] simulationTime 259200
scalar OsgEarthNet.uav[23] utilizationSecMission 760.62515258028
scalar OsgEarthNet.uav[23] utilizationSecMaintenance 291.95923480269
scalar OsgEarthNet.uav[23] utilizationSecCharge 3810
scalar OsgEarthNet.uav[23] utilizationSecIdle 254337.41461262
scalar OsgEarthNet.uav[23] utilizationEnergyMission 3476.8843078613
scalar OsgEarthNet.uav[23] utilizationEnergyMaintenance 1343.1179122925
scalar OsgEarthNet.uav[23] utilizationEnergyCharge 4820.001953125
scalar OsgEarthNet.uav[23] utilizationEnergyOverdrawMission 0
scalar OsgEarthNet.uav[23] utilizationEnergyOverdrawMaintenance 0
scalar OsgEarthNet.uav[23] utilizationCountMissions 1
scalar OsgEarthNet.uav[23] utilizationCountManeuversMission 12
scalar OsgEarthNet.uav[23] utilizationCountManeuversMaintenance 2
scalar OsgEarthNet.uav[23] utilizationCountChargeState 1
scalar OsgEarthNet.uav[23] utilizationCountOverdrawnAfterMission 0
scalar OsgEarthNet.uav[23] utilizationCountIdleState 2
scalar OsgEarthNet.uav[23] utilizationFail 0
scalar OsgEarthNet.uav[23] simulationTime 259200
scalar OsgEarthNet.uav[24] utilizationSecMission 30490.41588235
scalar OsgEarthNet.uav[24] utilizationSecMaintenance 13854.074500058
scalar OsgEarthNet.uav[24] utilizationSecCharge 165144.45278406
scalar OsgEarthNet.uav[24] utilizationSecIdle 49711.055833533
scalar OsgEarthNet.uav[24] utilizationEnergyMission 141976.59392929
scalar OsgEarthNet.uav[24] utilizationEnergyMaintenance 66292.188228607
scalar OsgEarthNet.uav[24] utilizationEnergyCharge 208235.87255859
scalar OsgEarthNet.uav[24] utilizationEnergyOverdrawMission 0
scalar OsgEarthNet.uav[24] utilizationEnergyOverdrawMaintenance 0
scalar OsgEarthNet.uav[24] utilizationCountMissions 44
scalar OsgEarthNet.uav[24] utilizationCountManeuversMission 489
scalar OsgEarthNet.uav[24] utilizationCountManeuversMaintenance 88
scalar OsgEarthNet.uav[24] utilizationCountChargeState 44
scalar OsgEarthNet.uav[24] utilizationCountOverdrawnAfterMission 0
scalar OsgEarthNet.uav[24] utilizationCountIdleState 44
scalar OsgEarthNet.uav[24] utilizationFail 0
scalar OsgEarthNet.uav[24] simulationTime 259200
scalar OsgEarthNet.uav[25] utilizationSecMission 694.00169469977
scalar OsgEarthNet.uav[25] utilizationSecMaintenance 338.49695459722
scalar OsgEarthNet.uav[25] utilizationSecCharge 3830
scalar OsgEarthNet.uav[25] utilizationSecIdle 254337.5003507
scalar OsgEarthNet.uav[25] utilizationEnergyMission 3286.2093963623
scalar OsgEarthNet.uav[25] utilizationEnergyMaintenance 1542.4872550964
scalar OsgEarthNet.uav[25] utilizationEnergyCharge 4828.6962890625
scalar OsgEarthNet.uav[25] utilizationEnergyOverdrawMission 0
scalar OsgEarthNet.uav[25] utilizationEnergyOverdrawMaintenance 0
scalar OsgEarthNet.uav[25] utilizationCountMissions 1
scalar OsgEarthNet.uav[25] utilizationCountManeuversMission 13
scalar OsgEarthNet.uav[25] utilizationCountManeuversMaintenance 2
scalar OsgEarthNet.uav[25] utilizationCountChargeState 1
scalar OsgEarthNet.uav[25] utilizationCountOverdrawnAfterMission 0
scalar OsgEarthNet.uav[25] utilizationCountIdleState 2
scalar OsgEarthNet.uav[25] utilizationFail 0
scalar OsgEarthNet.uav[25] simulationTime 259200
scalar OsgEarthNet.uav[26] utilizationSecMission 760.62515258028
scalar OsgEarthNet.uav[26] utilizationSecMaintenance 291.95923480269
scalar OsgEarthNet.uav[26] utilizationSecCharge 3720
scalar OsgEarthNet.uav[26] utilizationSecIdle 254427.41461262
scalar OsgEarthNet.uav[26] utilizationEnergyMission 3374.0717086792
scalar OsgEarthNet.uav[26] utilizationEnergyMaintenance 1323.1436080933
scalar OsgEarthNet.uav[26] utilizationEnergyCharge 4697.2133789062
scalar OsgEarthNet.uav[26] utilizationEnergyOverdrawMission 0
scalar OsgEarthNet.uav[26] utilizationEnergyOverdrawMaintenance 0
scalar OsgEarthNet.uav[26] utilizationCountMissions 1
scalar OsgEarthNet.uav[26] utilizationCountManeuversMission 12
scalar OsgEarthNet.uav[26] utilizationCountManeuversMaintenance 2
scalar OsgEarthNet.uav[26] utilizationCountChargeState 1
scalar OsgEarthNet.uav[26] utilizationCountOverdrawnAfterMission 0
scalar OsgEarthNet.uav[26] utilizationCountIdleState 2
scalar OsgEarthNet.uav[26] utilizationFail 0
scalar OsgEarthNet.uav[26] simulationTime 259200
scalar OsgEarthNet.uav[27] utilizationSecMission 19945.947671957
scalar OsgEarthNet.uav[27] utilizationSecMaintenance 8153.7055616376
scalar OsgEarthNet.uav[27] utilizationSecCharge 102280.41316812
scalar OsgEarthNet.uav[27] utilizationSecIdle 128819.93259829
scalar OsgEarthNet.uav[27] utilizationEnergyMission 92910.727378845
scalar OsgEarthNet.uav[27] utilizationEnergyMaintenance 38117.574398041
scalar OsgEarthNet.uav[27] utilizationEnergyCharge 128855.61254883
scalar OsgEarthNet.uav[27] utilizationEnergyOverdrawMission 0
scalar OsgEarthNet.uav[27] utilizationEnergyOverdrawMaintenance 0
scalar OsgEarthNet.uav[27] utilizationCountMissions 28
scalar OsgEarthNet.uav[27] utilizationCountManeuversMission 322
scalar OsgEarthNet.uav[27] utilizationCountManeuversMaintenance 56
scalar OsgEarthNet.uav[27] utilizationCountChargeState 28
scalar OsgEarthNet.uav[27] utilizationCountOverdrawnAfterMission 0
scalar OsgEarthNet.uav[27] utilizationCountIdleState 28
scalar OsgEarthNet.uav[27] utilizationFail 0
scalar OsgEarthNet.uav[27] simulationTime 259200
scalar OsgEarthNet.uav[28] utilizationSecMission 31726.649324027
scalar OsgEarthNet.uav[28] utilizationSecMaintenance 13257.944678252
scalar OsgEarthNet.uav[28] utilizationSecCharge 165310
scalar OsgEarthNet.uav[28] utilizationSecIdle 48905.404997721
scalar OsgEarthNet.uav[28] utilizationEnergyMission 146258.38360238
scalar OsgEarthNet.uav[28] utilizationEnergyMaintenance 61339.450317383
scalar OsgEarthNet.uav[28] utilizationEnergyCharge 208031.01904297
scalar OsgEarthNet.uav[28] utilizationEnergyOverdrawMission 0
scalar OsgEarthNet.uav[28] utilizationEnergyOverdrawMaintenance 0
scalar OsgEarthNet.uav[28] utilizationCountMissions 44
scalar OsgEarthNet.uav[28] utilizationCountManeuversMission 510
scalar OsgEarthNet.uav[28] utilizationCountManeuversMaintenance 87
scalar OsgEarthNet.uav[28] utilizationCountChargeState 44
scalar OsgEarthNet.uav[28] utilizationCountOverdrawnAfterMission 0
scalar OsgEarthNet.uav[28] utilizationCountIdleState 45
scalar OsgEarthNet.uav[28] utilizationFail 0
scalar OsgEarthNet.uav[28] simulationTime 259200
scalar OsgEarthNet.uav[29] utilizationSecMission 750.20472747826
scalar OsgEarthNet.uav[29] utilizationSecMaintenance 335.16822070369
scalar OsgEarthNet.uav[29] utilizationSecCharge 3920
scalar OsgEarthNet.uav[29] utilizationSecIdle 254194.62605182
scalar OsgEarthNet.uav[29] utilizationEnergyMission 3313.186088562
scalar OsgEarthNet.uav[29] utilizationEnergyMaintenance 1678.7443962097
scalar OsgEarthNet.uav[29] utilizationEnergyCharge 4991.927734375
scalar OsgEarthNet.uav[29] utilizationEnergyOverdrawMission 0
scalar OsgEarthNet.uav[29] utilizationEnergyOverdrawMaintenance 0
scalar OsgEarthNet.uav[29] utilizationCountMissions 1
scalar OsgEarthNet.uav[29] utilizationCountManeuversMission 11
scalar OsgEarthNet.uav[29] utilizationCountManeuversMaintenance 2
scalar OsgEarthNet.uav[29] utilizationCountChargeState 1
scalar OsgEarthNet.uav[29] utilizationCountOverdrawnAfterMission 0
scalar OsgEarthNet.uav[29] utilizationCountIdleState 2
scalar OsgEarthNet.uav[29] utilizationFail 0
scalar OsgEarthNet.uav[29] simulationTime 259200
scalar OsgEarthNet.uav[30] utilizationSecMission 684.4732299383
scalar OsgEarthNet.uav[30] utilizationSecMaintenance 298.56834692969
scalar OsgEarthNet.uav[30] utilizationSecCharge 3700
scalar OsgEarthNet.uav[30] utilizationSecIdle 254516.95742313
scalar OsgEarthNet.uav[30] utilizationEnergyMission 3170.4085388184
scalar OsgEarthNet.uav[30] utilizationEnergyMaintenance 1439.3144454956
scalar OsgEarthNet.uav[30] utilizationEnergyCharge 4609.724609375
scalar OsgEarthNet.uav[30] utilizationEnergyOverdrawMission 0
scalar OsgEarthNet.uav[30] utilizationEnergyOverdrawMaintenance 0
scalar OsgEarthNet.uav[30] utilizationCountMissions 1
scalar OsgEarthNet.uav[30] utilizationCountManeuversMission 11
scalar OsgEarthNet.uav[30] utilizationCountManeuversMaintenance 2
scalar OsgEarthNet.uav[30] utilizationCountChargeState 1
scalar OsgEarthNet.uav[30] utilizationCountOverdrawnAfterMission 0
scalar OsgEarthNet.uav[30] utilizationCountIdleState 2
scalar OsgEarthNet.uav[30] utilizationFail 0
scalar OsgEarthNet.uav[30] simulationTime 259200
scalar OsgEarthNet.uav[31] utilizationSecMission 27888.637107616
scalar OsgEarthNet.uav[31] utilizationSecMaintenance 14179.955568231
scalar OsgEarthNet.uav[31] utilizationSecCharge 152860
scalar OsgEarthNet.uav[31] utilizationSecIdle 64271.406324153
scalar OsgEarthNet.uav[31] utilizationEnergyMission 128074.82872761
scalar OsgEarthNet.uav[31] utilizationEnergyMaintenance 65681.133403778
scalar OsgEarthNet.uav[31] utilizationEnergyCharge 191753.48242188
scalar OsgEarthNet.uav[31] utilizationEnergyOverdrawMission 0
scalar OsgEarthNet.uav[31] utilizationEnergyOverdrawMaintenance 0
scalar OsgEarthNet.uav[31] utilizationCountMissions 41
scalar OsgEarthNet.uav[31] utilizationCountManeuversMission 475
scalar OsgEarthNet.uav[31] utilizationCountManeuversMaintenance 83
scalar OsgEarthNet.uav[31] utilizationCountChargeState 41
scalar OsgEarthNet.uav[31] utilizationCountOverdrawnAfterMission 0
scalar OsgEarthNet.uav[31] utilizationCountIdleState 42
scalar OsgEarthNet.uav[31] utilizationFail 0
scalar OsgEarthNet.uav[31] simulationTime 259200
scalar OsgEarthNet.uav[32] utilizationSecMission 31532.710908211
scalar OsgEarthNet.uav[32] utilizationSecMaintenance 13462.992572525
scalar OsgEarthNet.uav[32] utilizationSecCharge 164498.2594205
scalar OsgEarthNet.uav[32] utilizationSecIdle 49706.036098769
scalar OsgEarthNet.uav[32] utilizationEnergyMission 146067.74101257
scalar OsgEarthNet.uav[32] utilizationEnergyMaintenance 63110.000778198
scalar OsgEarthNet.uav[32] utilizationEnergyCharge 207549.85839844
scalar OsgEarthNet.uav[32] utilizationEnergyOverdrawMission 0
scalar OsgEarthNet.uav[32] utilizationEnergyOverdrawMaintenance 0
scalar OsgEarthNet.uav[32] utilizationCountMissions 44
scalar OsgEarthNet.uav[32] utilizationCountManeuversMission 508
scalar OsgEarthNet.uav[32] utilizationCountManeuversMaintenance 88
scalar OsgEarthNet.uav[32] utilizationCountChargeState 44
scalar OsgEarthNet.uav[32] utilizationCountOverdrawnAfterMission 0
scalar OsgEarthNet.uav[32] utilizationCountIdleState 44
scalar OsgEarthNet.uav[32] utilizationFail 0
scalar OsgEarthNet.uav[32] simulationTime 259200
scalar OsgEarthNet.uav[33] utilizationSecMission 760.62515258028
scalar OsgEarthNet.uav[33] utilizationSecMaintenance 291.95923480269
scalar OsgEarthNet.uav[33] utilizationSecCharge 3860
scalar OsgEarthNet.uav[33] utilizationSecIdle 254287.41461262
scalar OsgEarthNet.uav[33] utilizationEnergyMission 3367.4677810669
scalar OsgEarthNet.uav[33] utilizationEnergyMaintenance 1523.4077377319
scalar OsgEarthNet.uav[33] utilizationEnergyCharge 4890.8720703125
scalar OsgEarthNet.uav[33] utilizationEnergyOverdrawMission 0
scalar OsgEarthNet.uav[33] utilizationEnergyOverdrawMaintenance 0
scalar OsgEarthNet.uav[33] utilizationCountMissions 1
scalar OsgEarthNet.uav[33] utilizationCountManeuversMission 12
scalar OsgEarthNet.uav[33] utilizationCountManeuversMaintenance 2
scalar OsgEarthNet.uav[33] utilizationCountChargeState 1
scalar OsgEarthNet.uav[33] utilizationCountOverdrawnAfterMission 0
scalar OsgEarthNet.uav[33] utilizationCountIdleState 2
scalar OsgEarthNet.uav[33] utilizationFail 0
scalar OsgEarthNet.uav[33] simulationTime 259200
scalar OsgEarthNet.uav[34] utilizationSecMission 28813.486893055
scalar OsgEarthNet.uav[34] utilizationSecMaintenance 14791.218642621
scalar OsgEarthNet.uav[34] utilizationSecCharge 158243.75858446
scalar OsgEarthNet.uav[34] utilizationSecIdle 57351.534879865
scalar OsgEarthNet.uav[34] utilizationEnergyMission 133601.50447845
scalar OsgEarthNet.uav[34] utilizationEnergyMaintenance 69266.74766922
scalar OsgEarthNet.uav[34] utilizationEnergyCharge 199251.10571289
scalar OsgEarthNet.uav[34] utilizationEnergyOverdrawMission 0
scalar OsgEarthNet.uav[34] utilizationEnergyOverdrawMaintenance 0
scalar OsgEarthNet.uav[34] utilizationCountMissions 43
scalar OsgEarthNet.uav[34] utilizationCountManeuversMission 472
scalar OsgEarthNet.uav[34] utilizationCountManeuversMaintenance 86
scalar OsgEarthNet.uav[34] utilizationCountChargeState 43
scalar OsgEarthNet.uav[34] utilizationCountOverdrawnAfterMission 0
scalar OsgEarthNet.uav[34] utilizationCountIdleState 43
scalar OsgEarthNet.uav[34] utilizationFail 0
scalar OsgEarthNet.uav[34] simulationTime 259200
scalar OsgEarthNet.uav[35] utilizationSecMission 694.00169469977
scalar OsgEarthNet.uav[35] utilizationSecMaintenance 338.49695459722
scalar OsgEarthNet.uav[35] utilizationSecCharge 3830
scalar OsgEarthNet.uav[35] utilizationSecIdle 254337.5003507
scalar OsgEarthNet.uav[35] utilizationEnergyMission 3222.7213821411
scalar OsgEarthNet.uav[35] utilizationEnergyMaintenance 1602.9386100769
scalar OsgEarthNet.uav[35] utilizationEnergyCharge 4825.6606445312
scalar OsgEarthNet.uav[35] utilizationEnergyOverdrawMission 0
scalar OsgEarthNet.uav[35] utilizationEnergyOverdrawMaintenance 0
scalar OsgEarthNet.uav[35] utilizationCountMissions 1
scalar OsgEarthNet.uav[35] utilizationCountManeuversMission 13
scalar OsgEarthNet.uav[35] utilizationCountManeuversMaintenance 2
scalar OsgEarthNet.uav[35] utilizationCountChargeState 1
scalar OsgEarthNet.uav[35] utilizationCountOverdrawnAfterMission 0
scalar OsgEarthNet.uav[35] utilizationCountIdleState 2
scalar OsgEarthNet.uav[35] utilizationFail 0
scalar OsgEarthNet.uav[35] simulationTime 259200
scalar OsgEarthNet.uav[36] utilizationSecMission 836.77707522227
scalar OsgEarthNet.uav[36] utilizationSecMaintenance 217.0347828456
scalar OsgEarthNet.uav[36] utilizationSecCharge 3720
scalar OsgEarthNet.uav[36] utilizationSecIdle 254426.18714193
scalar OsgEarthNet.uav[36] utilizationEnergyMission 3654.1691665649
scalar OsgEarthNet.uav[36] utilizationEnergyMaintenance 1007.2086601257
scalar OsgEarthNet.uav[36] utilizationEnergyCharge 4661.3774414062
scalar OsgEarthNet.uav[36] utilizationEnergyOverdrawMission 0
scalar OsgEarthNet.uav[36] utilizationEnergyOverdrawMaintenance 0
scalar OsgEarthNet.uav[36] utilizationCountMissions 1
scalar OsgEarthNet.uav[36] utilizationCountManeuversMission 13
scalar OsgEarthNet.uav[36] utilizationCountManeuversMaintenance 2
scalar OsgEarthNet.uav[36] utilizationCountChargeState 1
scalar OsgEarthNet.uav[36] utilizationCountOverdrawnAfterMission 0
scalar OsgEarthNet.uav[36] utilizationCountIdleState 2
scalar OsgEarthNet.uav[36] utilizationFail 0
scalar OsgEarthNet.uav[36] simulationTime 259200
scalar OsgEarthNet.uav[37] utilizationSecMission 29342.540170235
scalar OsgEarthNet.uav[37] utilizationSecMaintenance 13850.819090023
scalar OsgEarthNet.uav[37] utilizationSecCharge 156611.23071388
scalar OsgEarthNet.uav[37] utilizationSecIdle 59395.409025863
scalar OsgEarthNet.uav[37] utilizationEnergyMission 135565.89824677
scalar OsgEarthNet.uav[37] utilizationEnergyMaintenance 64399.418022156
scalar OsgEarthNet.uav[37] utilizationEnergyCharge 196521.7689209
scalar OsgEarthNet.uav[37] utilizationEnergyOverdrawMission 0
scalar OsgEarthNet.uav[37] utilizationEnergyOverdrawMaintenance 0
scalar OsgEarthNet.uav[37] utilizationCountMissions 43
scalar OsgEarthNet.uav[37] utilizationCountManeuversMission 473
scalar OsgEarthNet.uav[37] utilizationCountManeuversMaintenance 86
scalar OsgEarthNet.uav[37] utilizationCountChargeState 43
scalar OsgEarthNet.uav[37] utilizationCountOverdrawnAfterMission 0
scalar OsgEarthNet.uav[37] utilizationCountIdleState 43
scalar OsgEarthNet.uav[37] utilizationFail 0
scalar OsgEarthNet.uav[37] simulationTime 259200
scalar OsgEarthNet.uav[38] utilizationSecMission 29648.779318147
scalar OsgEarthNet.uav[38] utilizationSecMaintenance 13231.901296388
scalar OsgEarthNet.uav[38] utilizationSecCharge 159990
scalar OsgEarthNet.uav[38] utilizationSecIdle 56329.318385465
scalar OsgEarthNet.uav[38] utilizationEnergyMission 138387.33135605
scalar OsgEarthNet.uav[38] utilizationEnergyMaintenance 62464.705295563
scalar OsgEarthNet.uav[38] utilizationEnergyCharge 200573.77099609
scalar OsgEarthNet.uav[38] utilizationEnergyOverdrawMission 0
scalar OsgEarthNet.uav[38] utilizationEnergyOverdrawMaintenance 0
scalar OsgEarthNet.uav[38] utilizationCountMissions 43
scalar OsgEarthNet.uav[38] utilizationCountManeuversMission 457
scalar OsgEarthNet.uav[38] utilizationCountManeuversMaintenance 86
scalar OsgEarthNet.uav[38] utilizationCountChargeState 43
scalar OsgEarthNet.uav[38] utilizationCountOverdrawnAfterMission 0
scalar OsgEarthNet.uav[38] utilizationCountIdleState 44
scalar OsgEarthNet.uav[38] utilizationFail 0
scalar OsgEarthNet.uav[38] simulationTime 259200
scalar OsgEarthNet.uav[39] utilizationSecMission 760.62515258028
scalar OsgEarthNet.uav[39] utilizationSecMaintenance 291.95923480269
scalar OsgEarthNet.uav[39] utilizationSecCharge 3710
scalar OsgEarthNet.uav[39] utilizationSecIdle 254437.41461262
scalar OsgEarthNet.uav[39] utilizationEnergyMission 3305.9575653076
scalar OsgEarthNet.uav[39] utilizationEnergyMaintenance 1329.5735702515
scalar OsgEarthNet.uav[39] utilizationEnergyCharge 4635.52734375
scalar OsgEarthNet.uav[39] utilizationEnergyOverdrawMission 0
scalar OsgEarthNet.uav[39] utilizationEnergyOverdrawMaintenance 0
scalar OsgEarthNet.uav[39] utilizationCountMissions 1
scalar OsgEarthNet.uav[39] utilizationCountManeuversMission 12
scalar OsgEarthNet.uav[39] utilizationCountManeuversMaintenance 2
scalar OsgEarthNet.uav[39] utilizationCountChargeState 1
scalar OsgEarthNet.uav[39] utilizationCountOverdrawnAfterMission 0
scalar OsgEarthNet.uav[39] utilizationCountIdleState 2
scalar OsgEarthNet.uav[39] utilizationFail 0
scalar OsgEarthNet.uav[39] simulationTime 259200
scalar OsgEarthNet.uav[40] utilizationSecMission 702.6942798579
scalar OsgEarthNet.uav[40] utilizationSecMaintenance 282.29565405678
scalar OsgEarthNet.uav[40] utilizationSecCharge 3780
scalar OsgEarthNet.uav[40] utilizationSecIdle 254435.00906609
scalar OsgEarthNet.uav[40] utilizationEnergyMission 3429.7364349365
scalar OsgEarthNet.uav[40] utilizationEnergyMaintenance 1365.6164665222
scalar OsgEarthNet.uav[40] utilizationEnergyCharge 4795.3520507812
scalar OsgEarthNet.uav[40] utilizationEnergyOverdrawMission 0
scalar OsgEarthNet.uav[40] utilizationEnergyOverdrawMaintenance 0
scalar OsgEarthNet.uav[40] utilizationCountMissions 1
scalar OsgEarthNet.uav[40] utilizationCountManeuversMission 10
scalar OsgEarthNet.uav[40] utilizationCountManeuversMaintenance 2
scalar OsgEarthNet.uav[40] utilizationCountChargeState 1
scalar OsgEarthNet.uav[40] utilizationCountOverdrawnAfterMission 0
scalar OsgEarthNet.uav[40] utilizationCountIdleState 2
scalar OsgEarthNet.uav[40] utilizationFail 0
scalar OsgEarthNet.uav[40] simulationTime 259200
scalar OsgEarthNet.uav[41] utilizationSecMission 26255.655142742
scalar OsgEarthNet.uav[41] utilizationSecMaintenance 15004.916137852
scalar OsgEarthNet.uav[41] utilizationSecCharge 150592.37423835
scalar OsgEarthNet.uav[41] utilizationSecIdle 67347.053481054
scalar OsgEarthNet.uav[41] utilizationEnergyMission 122473.71742249
scalar OsgEarthNet.uav[41] utilizationEnergyMaintenance 70565.23714447
scalar OsgEarthNet.uav[41] utilizationEnergyCharge 189748.91357422
scalar OsgEarthNet.uav[41] utilizationEnergyOverdrawMission 0
scalar OsgEarthNet.uav[41] utilizationEnergyOverdrawMaintenance 0
scalar OsgEarthNet.uav[41] utilizationCountMissions 41
scalar OsgEarthNet.uav[41] utilizationCountManeuversMission 435
scalar OsgEarthNet.uav[41] utilizationCountManeuversMaintenance 82
scalar OsgEarthNet.uav[41] utilizationCountChargeState 41
scalar OsgEarthNet.uav[41] utilizationCountOverdrawnAfterMission 0
scalar OsgEarthNet.uav[41] utilizationCountIdleState 41
scalar OsgEarthNet.uav[41] utilizationFail 0
scalar OsgEarthNet.uav[41] simulationTime 259200
scalar OsgEarthNet.uav[42] utilizationSecMission 750.20472747826
scalar OsgEarthNet.uav[42] utilizationSecMaintenance 300.8347882699
scalar OsgEarthNet.uav[42] utilizationSecCharge 3760
scalar OsgEarthNet.uav[42] utilizationSecIdle 254388.95948425
scalar OsgEarthNet.uav[42] utilizationEnergyMission 3516.7071685791
scalar OsgEarthNet.uav[42] utilizationEnergyMaintenance 1193.7933158874
scalar OsgEarthNet.uav[42] utilizationEnergyCharge 4710.4990234375
scalar OsgEarthNet.uav[42] utilizationEnergyOverdrawMission 0
scalar OsgEarthNet.uav[42] utilizationEnergyOverdrawMaintenance 0
scalar OsgEarthNet.uav[42] utilizationCountMissions 1
scalar OsgEarthNet.uav[42] utilizationCountManeuversMission 11
scalar OsgEarthNet.uav[42] utilizationCountManeuversMaintenance 2
scalar OsgEarthNet.uav[42] utilizationCountChargeState 1
scalar OsgEarthNet.uav[42] utilizationCountOverdrawnAfterMission 0
scalar OsgEarthNet.uav[42] utilizationCountIdleState 2
scalar OsgEarthNet.uav[42] utilizationFail 0
scalar OsgEarthNet.uav[42] simulationTime 259200
scalar OsgEarthNet.uav[43] utilizationSecMission 684.4732299383
scalar OsgEarthNet.uav[43] utilizationSecMaintenance 298.56834692969
scalar OsgEarthNet.uav[43] utilizationSecCharge 3650
scalar OsgEarthNet.uav[43] utilizationSecIdle 254566.95742313
scalar OsgEarthNet.uav[43] utilizationEnergyMission 3153.9484024048
scalar OsgEarthNet.uav[43] utilizationEnergyMaintenance 1375.1557540894
scalar OsgEarthNet.uav[43] utilizationEnergyCharge 4529.1049804688
scalar OsgEarthNet.uav[43] utilizationEnergyOverdrawMission 0
scalar OsgEarthNet.uav[43] utilizationEnergyOverdrawMaintenance 0
scalar OsgEarthNet.uav[43] utilizationCountMissions 1
scalar OsgEarthNet.uav[43] utilizationCountManeuversMission 11
scalar OsgEarthNet.uav[43] utilizationCountManeuversMaintenance 2
scalar OsgEarthNet.uav[43] utilizationCountChargeState 1
scalar OsgEarthNet.uav[43] utilizationCountOverdrawnAfterMission 0
scalar OsgEarthNet.uav[43] utilizationCountIdleState 2
scalar OsgEarthNet.uav[43] utilizationFail 0
scalar OsgEarthNet.uav[43] simulationTime 259200
scalar OsgEarthNet.uav[44] utilizationSecMission 11817.302811273
scalar OsgEarthNet.uav[44] utilizationSecMaintenance 6514.0660498281
scalar OsgEarthNet.uav[44] utilizationSecCharge 66720
scalar OsgEarthNet.uav[44] utilizationSecIdle 174148.6301389
scalar OsgEarthNet.uav[44] utilizationEnergyMission 54316.500939172
scalar OsgEarthNet.uav[44] utilizationEnergyMaintenance 30433.310523987
scalar OsgEarthNet.uav[44] utilizationEnergyCharge 83731.727050781
scalar OsgEarthNet.uav[44] utilizationEnergyOverdrawMission 0
scalar OsgEarthNet.uav[44] utilizationEnergyOverdrawMaintenance 0
scalar OsgEarthNet.uav[44] utilizationCountMissions 18
scalar OsgEarthNet.uav[44] utilizationCountManeuversMission 201
scalar OsgEarthNet.uav[44] utilizationCountManeuversMaintenance 37
scalar OsgEarthNet.uav[44] utilizationCountChargeState 18
scalar OsgEarthNet.uav[44] utilizationCountOverdrawnAfterMission 0
scalar OsgEarthNet.uav[44] utilizationCountIdleState 19
scalar OsgEarthNet.uav[44] utilizationFail 0
scalar OsgEarthNet.uav[44] simulationTime 259200
scalar OsgEarthNet.uav[45] utilizationSecMission 25711.366715286
scalar OsgEarthNet.uav[45] utilizationSecMaintenance 11898.21636962
scalar OsgEarthNet.uav[45] utilizationSecCharge 138230
scalar OsgEarthNet.uav[45] utilizationSecIdle 83360.415915093
scalar OsgEarthNet.uav[45] utilizationEnergyMission 117907.08862305
scalar OsgEarthNet.uav[45] utilizationEnergyMaintenance 55937.913951874
scalar OsgEarthNet.uav[45] utilizationEnergyCharge 173565.57714844
scalar OsgEarthNet.uav[45] utilizationEnergyOverdrawMission 0
scalar OsgEarthNet.uav[45] utilizationEnergyOverdrawMaintenance 0
scalar OsgEarthNet.uav[45] utilizationCountMissions 37
scalar OsgEarthNet.uav[45] utilizationCountManeuversMission 429
scalar OsgEarthNet.uav[45] utilizationCountManeuversMaintenance 74
scalar OsgEarthNet.uav[45] utilizationCountChargeState 37
scalar OsgEarthNet.uav[45] utilizationCountOverdrawnAfterMission 0
scalar OsgEarthNet.uav[45] utilizationCountIdleState 38
scalar OsgEarthNet.uav[45] utilizationFail 0
scalar OsgEarthNet.uav[45] simulationTime 259200
scalar OsgEarthNet.uav[46] utilizationSecMission 26675.920691834
scalar OsgEarthNet.uav[46] utilizationSecMaintenance 14040.034988863
scalar OsgEarthNet.uav[46] utilizationSecCharge 151407.83854145
scalar OsgEarthNet.uav[46] utilizationSecIdle 67076.204777849
scalar OsgEarthNet.uav[46] utilizationEnergyMission 124277.61712646
scalar OsgEarthNet.uav[46] utilizationEnergyMaintenance 67267.654186249
scalar OsgEarthNet.uav[46] utilizationEnergyCharge 190557.29785156
scalar OsgEarthNet.uav[46] utilizationEnergyOverdrawMission 0
scalar OsgEarthNet.uav[46] utilizationEnergyOverdrawMaintenance 0
scalar OsgEarthNet.uav[46] utilizationCountMissions 41
scalar OsgEarthNet.uav[46] utilizationCountManeuversMission 430
scalar OsgEarthNet.uav[46] utilizationCountManeuversMaintenance 82
scalar OsgEarthNet.uav[46] utilizationCountChargeState 41
scalar OsgEarthNet.uav[46] utilizationCountOverdrawnAfterMission 0
scalar OsgEarthNet.uav[46] utilizationCountIdleState 41
scalar OsgEarthNet.uav[46] utilizationFail 0
scalar OsgEarthNet.uav[46] simulationTime 259200
scalar OsgEarthNet.uav[47] utilizationSecMission 27320.886444517
scalar OsgEarthNet.uav[47] utilizationSecMaintenance 11808.006124053
scalar OsgEarthNet.uav[47] utilizationSecCharge 143793.68781783
scalar OsgEarthNet.uav[47] utilizationSecIdle 76277.418613604
scalar OsgEarthNet.uav[47] utilizationEnergyMission 127001.89537811
scalar OsgEarthNet.uav[47] utilizationEnergyMaintenance 55676.3099823
scalar OsgEarthNet.uav[47] utilizationEnergyCharge 181586.8737793
scalar OsgEarthNet.uav[47] utilizationEnergyOverdrawMission 0
scalar OsgEarthNet.uav[47] utilizationEnergyOverdrawMaintenance 0
scalar OsgEarthNet.uav[47] utilizationCountMissions 39
scalar OsgEarthNet.uav[47] utilizationCountManeuversMission 455
scalar OsgEarthNet.uav[47] utilizationCountManeuversMaintenance 78
scalar OsgEarthNet.uav[47] utilizationCountChargeState 39
scalar OsgEarthNet.uav[47] utilizationCountOverdrawnAfterMission 0
scalar OsgEarthNet.uav[47] utilizationCountIdleState 39
scalar OsgEarthNet.uav[47] utilizationFail 0
scalar OsgEarthNet.uav[47] simulationTime 259200
scalar OsgEarthNet.uav[48] utilizationSecMission 946.1545473523
scalar OsgEarthNet.uav[48] utilizationSecMaintenance 162.42799022119
scalar OsgEarthNet.uav[48] utilizationSecCharge 3890
scalar OsgEarthNet.uav[48] utilizationSecIdle 254201.41646243
scalar OsgEarthNet.uav[48] utilizationEnergyMission 4118.4145050049
scalar OsgEarthNet.uav[48] utilizationEnergyMaintenance 728.27352142334
scalar OsgEarthNet.uav[48] utilizationEnergyCharge 4907.6020507812
scalar OsgEarthNet.uav[48] utilizationEnergyOverdrawMission 0
scalar OsgEarthNet.uav[48] utilizationEnergyOverdrawMaintenance 0
scalar OsgEarthNet.uav[48] utilizationCountMissions 1
scalar OsgEarthNet.uav[48] utilizationCountManeuversMission 15
scalar OsgEarthNet.uav[48] utilizationCountManeuversMaintenance 2
scalar OsgEarthNet.uav[48] utilizationCountChargeState 1
scalar OsgEarthNet.uav[48] utilizationCountOverdrawnAfterMission 0
scalar OsgEarthNet.uav[48] utilizationCountIdleState 2
scalar OsgEarthNet.uav[48] utilizationFail 0
scalar OsgEarthNet.uav[48] simulationTime 259200
scalar OsgEarthNet.uav[49] utilizationSecMission 24792.375017224
scalar OsgEarthNet.uav[49] utilizationSecMaintenance 12600.714266911
scalar OsgEarthNet.uav[49] utilizationSecCharge 138300.37833237
scalar OsgEarthNet.uav[49] utilizationSecIdle 83506.531383495
scalar OsgEarthNet.uav[49] utilizationEnergyMission 114719.50782013
scalar OsgEarthNet.uav[49] utilizationEnergyMaintenance 58772.025398254
scalar OsgEarthNet.uav[49] utilizationEnergyCharge 173886.28564453
scalar OsgEarthNet.uav[49] utilizationEnergyOverdrawMission 0
scalar OsgEarthNet.uav[49] utilizationEnergyOverdrawMaintenance 0
scalar OsgEarthNet.uav[49] utilizationCountMissions 37
scalar OsgEarthNet.uav[49] utilizationCountManeuversMission 410
scalar OsgEarthNet.uav[49] utilizationCountManeuversMaintenance 74
scalar OsgEarthNet.uav[49] utilizationCountChargeState 37
scalar OsgEarthNet.uav[49] utilizationCountOverdrawnAfterMission 0
scalar OsgEarthNet.uav[49] utilizationCountIdleState 37
scalar OsgEarthNet.uav[49] utilizationFail 0
scalar OsgEarthNet.uav[49] simulationTime 259200
scalar OsgEarthNet.uav[50] utilizationSecMission 1470.1746688402
scalar OsgEarthNet.uav[50] utilizationSecMaintenance 534.39894485774
scalar OsgEarthNet.uav[50] utilizationSecCharge 7470
scalar OsgEarthNet.uav[50] utilizationSecIdle 249725.4253863
scalar OsgEarthNet.uav[50] utilizationEnergyMission 6939.2809829712
scalar OsgEarthNet.uav[50] utilizationEnergyMaintenance 2617.1843605042
scalar OsgEarthNet.uav[50] utilizationEnergyCharge 9374.001953125
scalar OsgEarthNet.uav[50] utilizationEnergyOverdrawMission 0
scalar OsgEarthNet.uav[50] utilizationEnergyOverdrawMaintenance 0
scalar OsgEarthNet.uav[50] utilizationCountMissions 2
scalar OsgEarthNet.uav[50] utilizationCountManeuversMission 23
scalar OsgEarthNet.uav[50] utilizationCountManeuversMaintenance 4
scalar OsgEarthNet.uav[50] utilizationCountChargeState 2
scalar OsgEarthNet.uav[50] utilizationCountOverdrawnAfterMission 0
scalar OsgEarthNet.uav[50] utilizationCountIdleState 3
scalar OsgEarthNet.uav[50] utilizationFail 0
scalar OsgEarthNet.uav[50] simulationTime 259200
scalar OsgEarthNet.uav[51] utilizationSecMission 29155.026148595
scalar OsgEarthNet.uav[51] utilizationSecMaintenance 16002.879718404
scalar OsgEarthNet.uav[51] utilizationSecCharge 165788.88922524
scalar OsgEarthNet.uav[51] utilizationSecIdle 48253.20390776
scalar OsgEarthNet.uav[51] utilizationEnergyMission 135285.67977905
scalar OsgEarthNet.uav[51] utilizationEnergyMaintenance 74604.928565979
scalar OsgEarthNet.uav[51] utilizationEnergyCharge 208685.63085938
scalar OsgEarthNet.uav[51] utilizationEnergyOverdrawMission 0
scalar OsgEarthNet.uav[51] utilizationEnergyOverdrawMaintenance 0
scalar OsgEarthNet.uav[51] utilizationCountMissions 45
scalar OsgEarthNet.uav[51] utilizationCountManeuversMission 482
scalar OsgEarthNet.uav[51] utilizationCountManeuversMaintenance 90
scalar OsgEarthNet.uav[51] utilizationCountChargeState 45
scalar OsgEarthNet.uav[51] utilizationCountOverdrawnAfterMission 0
scalar OsgEarthNet.uav[51] utilizationCountIdleState 45
scalar OsgEarthNet.uav[51] utilizationFail 0
scalar OsgEarthNet.uav[51] simulationTime 259200
scalar OsgEarthNet.uav[52] utilizationSecMission 887.1741082606
scalar OsgEarthNet.uav[52] utilizationSecMaintenance 171.13387461676
scalar OsgEarthNet.uav[52] utilizationSecCharge 3680
scalar OsgEarthNet.uav[52] utilizationSecIdle 254461.69101712
scalar OsgEarthNet.uav[52] utilizationEnergyMission 3631.1871337891
scalar OsgEarthNet.uav[52] utilizationEnergyMaintenance 725.20000457764
scalar OsgEarthNet.uav[52] utilizationEnergyCharge 4580.7373046875
scalar OsgEarthNet.uav[52] utilizationEnergyOverdrawMission 0
scalar OsgEarthNet.uav[52] utilizationEnergyOverdrawMaintenance 0
scalar OsgEarthNet.uav[52] utilizationCountMissions 1
scalar OsgEarthNet.uav[52] utilizationCountManeuversMission 14
scalar OsgEarthNet.uav[52] utilizationCountManeuversMaintenance 2
scalar OsgEarthNet.uav[52] utilizationCountChargeState 1
scalar OsgEarthNet.uav[52] utilizationCountOverdrawnAfterMission 0
scalar OsgEarthNet.uav[52] utilizationCountIdleState 2
scalar OsgEarthNet.uav[52] utilizationFail 0
scalar OsgEarthNet.uav[52] simulationTime 259200
scalar OsgEarthNet.uav[53] utilizationSecMission 870.88319133083
scalar OsgEarthNet.uav[53] utilizationSecMaintenance 200.56315354943
scalar OsgEarthNet.uav[53] utilizationSecCharge 3790
scalar OsgEarthNet.uav[53] utilizationSecIdle 254338.55265512
scalar OsgEarthNet.uav[53] utilizationEnergyMission 3845.5098571777
scalar OsgEarthNet.uav[53] utilizationEnergyMaintenance 927.10863494873
scalar OsgEarthNet.uav[53] utilizationEnergyCharge 4764.6655273438
scalar OsgEarthNet.uav[53] utilizationEnergyOverdrawMission 0
scalar OsgEarthNet.uav[53] utilizationEnergyOverdrawMaintenance 0
scalar OsgEarthNet.uav[53] utilizationCountMissions 1
scalar OsgEarthNet.uav[53] utilizationCountManeuversMission 13
scalar OsgEarthNet.uav[53] utilizationCountManeuversMaintenance 2
scalar OsgEarthNet.uav[53] utilizationCountChargeState 1
scalar OsgEarthNet.uav[53] utilizationCountOverdrawnAfterMission 0
scalar OsgEarthNet.uav[53] utilizationCountIdleState 2
scalar OsgEarthNet.uav[53] utilizationFail 0
scalar OsgEarthNet.uav[53] simulationTime 259200
scalar OsgEarthNet.uav[54] utilizationSecMission 30603.625144771
scalar OsgEarthNet.uav[54] utilizationSecMaintenance 12147.545439683
scalar OsgEarthNet.uav[54] utilizationSecCharge 154634.9657154
scalar OsgEarthNet.uav[54] utilizationSecIdle 61813.862700149
scalar OsgEarthNet.uav[54] utilizationEnergyMission 140318.90981293
scalar OsgEarthNet.uav[54] utilizationEnergyMaintenance 56998.992652893
scalar OsgEarthNet.uav[54] utilizationEnergyCharge 194925.74633789
scalar OsgEarthNet.uav[54] utilizationEnergyOverdrawMission 0
scalar OsgEarthNet.uav[54] utilizationEnergyOverdrawMaintenance 0
scalar OsgEarthNet.uav[54] utilizationCountMissions 42
scalar OsgEarthNet.uav[54] utilizationCountManeuversMission 493
scalar OsgEarthNet.uav[54] utilizationCountManeuversMaintenance 84
scalar OsgEarthNet.uav[54] utilizationCountChargeState 42
scalar OsgEarthNet.uav[54] utilizationCountOverdrawnAfterMission 0
scalar OsgEarthNet.uav[54] utilizationCountIdleState 42
scalar OsgEarthNet.uav[54] utilizationFail 0
scalar OsgEarthNet.uav[54] simulationTime 259200
scalar OsgEarthNet.uav[55] utilizationSecMission 30243.136944315
scalar OsgEarthNet.uav[55] utilizationSecMaintenance 12946.899515401
scalar OsgEarthNet.uav[55] utilizationSecCharge 159877.96254028
scalar OsgEarthNet.uav[55] utilizationSecIdle 56132
scalar OsgEarthNet.uav[55] utilizationEnergyMission 139957.64316339
scalar OsgEarthNet.uav[55] utilizationEnergyMaintenance 60817.322650909
scalar OsgEarthNet.uav[55] utilizationEnergyCharge 200906.40283203
scalar OsgEarthNet.uav[55] utilizationEnergyOverdrawMission 0
scalar OsgEarthNet.uav[55] utilizationEnergyOverdrawMaintenance 0
scalar OsgEarthNet.uav[55] utilizationCountMissions 43
scalar OsgEarthNet.uav[55] utilizationCountManeuversMission 482
scalar OsgEarthNet.uav[55] utilizationCountManeuversMaintenance 85
scalar OsgEarthNet.uav[55] utilizationCountChargeState 43
scalar OsgEarthNet.uav[55] utilizationCountOverdrawnAfterMission 0
scalar OsgEarthNet.uav[55] utilizationCountIdleState 43
scalar OsgEarthNet.uav[55] utilizationFail 0
scalar OsgEarthNet.uav[55] simulationTime 259200
scalar OsgEarthNet.uav[56] utilizationSecMission 750.20472747826
scalar OsgEarthNet.uav[56] utilizationSecMaintenance 261.68051383311
scalar OsgEarthNet.uav[56] utilizationSecCharge 3740
scalar OsgEarthNet.uav[56] utilizationSecIdle 254448.11375869
scalar OsgEarthNet.uav[56] utilizationEnergyMission 3607.9164886475
scalar OsgEarthNet.uav[56] utilizationEnergyMaintenance 1074.0936393738
scalar OsgEarthNet.uav[56] utilizationEnergyCharge 4682.0087890625
scalar OsgEarthNet.uav[56] utilizationEnergyOverdrawMission 0
scalar OsgEarthNet.uav[56] utilizationEnergyOverdrawMaintenance 0
scalar OsgEarthNet.uav[56] utilizationCountMissions 1
scalar OsgEarthNet.uav[56] utilizationCountManeuversMission 11
scalar OsgEarthNet.uav[56] utilizationCountManeuversMaintenance 2
scalar OsgEarthNet.uav[56] utilizationCountChargeState 1
scalar OsgEarthNet.uav[56] utilizationCountOverdrawnAfterMission 0
scalar OsgEarthNet.uav[56] utilizationCountIdleState 2
scalar OsgEarthNet.uav[56] utilizationFail 0
scalar OsgEarthNet.uav[56] simulationTime 259200
scalar OsgEarthNet.uav[57] utilizationSecMission 28883.783166517
scalar OsgEarthNet.uav[57] utilizationSecMaintenance 14728.639659878
scalar OsgEarthNet.uav[57] utilizationSecCharge 160559.11990317
scalar OsgEarthNet.uav[57] utilizationSecIdle 55028.456270436
scalar OsgEarthNet.uav[57] utilizationEnergyMission 133062.83248138
scalar OsgEarthNet.uav[57] utilizationEnergyMaintenance 68985.844680786
scalar OsgEarthNet.uav[57] utilizationEnergyCharge 201770.94433594
scalar OsgEarthNet.uav[57] utilizationEnergyOverdrawMission 0
scalar OsgEarthNet.uav[57] utilizationEnergyOverdrawMaintenance 0
scalar OsgEarthNet.uav[57] utilizationCountMissions 43
scalar OsgEarthNet.uav[57] utilizationCountManeuversMission 480
scalar OsgEarthNet.uav[57] utilizationCountManeuversMaintenance 86
scalar OsgEarthNet.uav[57] utilizationCountChargeState 43
scalar OsgEarthNet.uav[57] utilizationCountOverdrawnAfterMission 0
scalar OsgEarthNet.uav[57] utilizationCountIdleState 43
scalar OsgEarthNet.uav[57] utilizationFail 0
scalar OsgEarthNet.uav[57] simulationTime 259200
scalar OsgEarthNet.uav[58] utilizationSecMission 13973.500304628
scalar OsgEarthNet.uav[58] utilizationSecMaintenance 6450.4051861039
scalar OsgEarthNet.uav[58] utilizationSecCharge 75290
scalar OsgEarthNet.uav[58] utilizationSecIdle 163486.09350927
scalar OsgEarthNet.uav[58] utilizationEnergyMission 64650.701873779
scalar OsgEarthNet.uav[58] utilizationEnergyMaintenance 30612.346786499
scalar OsgEarthNet.uav[58] utilizationEnergyCharge 94920.467773438
scalar OsgEarthNet.uav[58] utilizationEnergyOverdrawMission 0
scalar OsgEarthNet.uav[58] utilizationEnergyOverdrawMaintenance 0
scalar OsgEarthNet.uav[58] utilizationCountMissions 20
scalar OsgEarthNet.uav[58] utilizationCountManeuversMission 236
scalar OsgEarthNet.uav[58] utilizationCountManeuversMaintenance 40
scalar OsgEarthNet.uav[58] utilizationCountChargeState 20
scalar OsgEarthNet.uav[58] utilizationCountOverdrawnAfterMission 0
scalar OsgEarthNet.uav[58] utilizationCountIdleState 21
scalar OsgEarthNet.uav[58] utilizationFail 0
scalar OsgEarthNet.uav[58] simulationTime 259200
scalar OsgEarthNet.uav[59] utilizationSecMission 27233.780034613
scalar OsgEarthNet.uav[59] utilizationSecMaintenance 13900.052714442
scalar OsgEarthNet.uav[59] utilizationSecCharge 149340
scalar OsgEarthNet.uav[59] utilizationSecIdle 68726.166250945
scalar OsgEarthNet.uav[59] utilizationEnergyMission 125774.33951376
scalar OsgEarthNet.uav[59] utilizationEnergyMaintenance 64586.913661957
scalar OsgEarthNet.uav[59] utilizationEnergyCharge 187258.3125
scalar OsgEarthNet.uav[59] utilizationEnergyOverdrawMission 0
scalar OsgEarthNet.uav[59] utilizationEnergyOverdrawMaintenance 0
scalar OsgEarthNet.uav[59] utilizationCountMissions 40
scalar OsgEarthNet.uav[59] utilizationCountManeuversMission 442
scalar OsgEarthNet.uav[59] utilizationCountManeuversMaintenance 81
scalar OsgEarthNet.uav[59] utilizationCountChargeState 40
scalar OsgEarthNet.uav[59] utilizationCountOverdrawnAfterMission 0
scalar OsgEarthNet.uav[59] utilizationCountIdleState 41
scalar OsgEarthNet.uav[59] utilizationFail 0
scalar OsgEarthNet.uav[59] simulationTime 259200
scalar OsgEarthNet.uav[60] utilizationSecMission 760.62515258028
scalar OsgEarthNet.uav[60] utilizationSecMaintenance 291.95923480269
scalar OsgEarthNet.uav[60] utilizationSecCharge 3820
scalar OsgEarthNet.uav[60] utilizationSecIdle 254327.41461262
scalar OsgEarthNet.uav[60] utilizationEnergyMission 3382.2941131592
scalar OsgEarthNet.uav[60] utilizationEnergyMaintenance 1448.1667404175
scalar OsgEarthNet.uav[60] utilizationEnergyCharge 4830.4633789062
scalar OsgEarthNet.uav[60] utilizationEnergyOverdrawMission 0
scalar OsgEarthNet.uav[60] utilizationEnergyOverdrawMaintenance 0
scalar OsgEarthNet.uav[60] utilizationCountMissions 1
scalar OsgEarthNet.uav[60] utilizationCountManeuversMission 12
scalar OsgEarthNet.uav[60] utilizationCountManeuversMaintenance 2
scalar OsgEarthNet.uav[60] utilizationCountChargeState 1
scalar OsgEarthNet.uav[60] utilizationCountOverdrawnAfterMission 0
scalar OsgEarthNet.uav[60] utilizationCountIdleState 2
scalar OsgEarthNet.uav[60] utilizationFail 0
scalar OsgEarthNet.uav[60] simulationTime 259200
scalar OsgEarthNet.uav[61] utilizationSecMission 28043.644972279
scalar OsgEarthNet.uav[61] utilizationSecMaintenance 14203.315879727
scalar OsgEarthNet.uav[61] utilizationSecCharge 155435.63452555
scalar OsgEarthNet.uav[61] utilizationSecIdle 61517.403622443
scalar OsgEarthNet.uav[61] utilizationEnergyMission 131270.23167419
scalar OsgEarthNet.uav[61] utilizationEnergyMaintenance 66908.591861725
scalar OsgEarthNet.uav[61] utilizationEnergyCharge 194258.02838135
scalar OsgEarthNet.uav[61] utilizationEnergyOverdrawMission 0
scalar OsgEarthNet.uav[61] utilizationEnergyOverdrawMaintenance 0
scalar OsgEarthNet.uav[61] utilizationCountMissions 43
scalar OsgEarthNet.uav[61] utilizationCountManeuversMission 470
scalar OsgEarthNet.uav[61] utilizationCountManeuversMaintenance 86
scalar OsgEarthNet.uav[61] utilizationCountChargeState 43
scalar OsgEarthNet.uav[61] utilizationCountOverdrawnAfterMission 0
scalar OsgEarthNet.uav[61] utilizationCountIdleState 43
scalar OsgEarthNet.uav[61] utilizationFail 0
scalar OsgEarthNet.uav[61] simulationTime 259200
scalar OsgEarthNet.uav[62] utilizationSecMission 26233.628522463
scalar OsgEarthNet.uav[62] utilizationSecMaintenance 9804.8194439615
scalar OsgEarthNet.uav[62] utilizationSecCharge 130951.54139535
scalar OsgEarthNet.uav[62] utilizationSecIdle 92210.009638225
scalar OsgEarthNet.uav[62] utilizationEnergyMission 120325.49476624
scalar OsgEarthNet.uav[62] utilizationEnergyMaintenance 45899.636985779
scalar OsgEarthNet.uav[62] utilizationEnergyCharge 165866.87451172
scalar OsgEarthNet.uav[62] utilizationEnergyOverdrawMission 0
scalar OsgEarthNet.uav[62] utilizationEnergyOverdrawMaintenance 0
scalar OsgEarthNet.uav[62] utilizationCountMissions 35
scalar OsgEarthNet.uav[62] utilizationCountManeuversMission 428
scalar OsgEarthNet.uav[62] utilizationCountManeuversMaintenance 70
scalar OsgEarthNet.uav[62] utilizationCountChargeState 35
scalar OsgEarthNet.uav[62] utilizationCountOverdrawnAfterMission 0
scalar OsgEarthNet.uav[62] utilizationCountIdleState 35
scalar OsgEarthNet.uav[62] utilizationFail 0
scalar OsgEarthNet.uav[62] simulationTime 259200
scalar OsgEarthNet.uav[63] utilizationSecMission 836.77707522227
scalar OsgEarthNet.uav[63] utilizationSecMaintenance 217.0347828456
scalar OsgEarthNet.uav[63] utilizationSecCharge 3900
scalar OsgEarthNet.uav[63] utilizationSecIdle 254246.18714193
scalar OsgEarthNet.uav[63] utilizationEnergyMission 3899.9434890747
scalar OsgEarthNet.uav[63] utilizationEnergyMaintenance 1027.7211723328
scalar OsgEarthNet.uav[63] utilizationEnergyCharge 4927.6606445312
scalar OsgEarthNet.uav[63] utilizationEnergyOverdrawMission 0
scalar OsgEarthNet.uav[63] utilizationEnergyOverdrawMaintenance 0
scalar OsgEarthNet.uav[63] utilizationCountMissions 1
scalar OsgEarthNet.uav[63] utilizationCountManeuversMission 13
scalar OsgEarthNet.uav[63] utilizationCountManeuversMaintenance 2
scalar OsgEarthNet.uav[63] utilizationCountChargeState 1
scalar OsgEarthNet.uav[63] utilizationCountOverdrawnAfterMission 0
scalar OsgEarthNet.uav[63] utilizationCountIdleState 2
scalar OsgEarthNet.uav[63] utilizationFail 0
scalar OsgEarthNet.uav[63] simulationTime 259200
scalar OsgEarthNet.uav[64] utilizationSecMission 30239.892283371
scalar OsgEarthNet.uav[64] utilizationSecMaintenance 14199.910928278
scalar OsgEarthNet.uav[64] utilizationSecCharge 161815.12778569
scalar OsgEarthNet.uav[64] utilizationSecIdle 52945.068002656
scalar OsgEarthNet.uav[64] utilizationEnergyMission 138503.37591171
scalar OsgEarthNet.uav[64] utilizationEnergyMaintenance 67695.070690155
scalar OsgEarthNet.uav[64] utilizationEnergyCharge 203880.75244141
scalar OsgEarthNet.uav[64] utilizationEnergyOverdrawMission 0
scalar OsgEarthNet.uav[64] utilizationEnergyOverdrawMaintenance 33.383506774902
scalar OsgEarthNet.uav[64] utilizationCountMissions 44
scalar OsgEarthNet.uav[64] utilizationCountManeuversMission 488
scalar OsgEarthNet.uav[64] utilizationCountManeuversMaintenance 88
scalar OsgEarthNet.uav[64] utilizationCountChargeState 44
scalar OsgEarthNet.uav[64] utilizationCountOverdrawnAfterMission 1
scalar OsgEarthNet.uav[64] utilizationCountIdleState 44
scalar OsgEarthNet.uav[64] utilizationFail 0
scalar OsgEarthNet.uav[64] simulationTime 259200
scalar OsgEarthNet.uav[65] utilizationSecMission 15475.685396148
scalar OsgEarthNet.uav[65] utilizationSecMaintenance 6678.7217347187
scalar OsgEarthNet.uav[65] utilizationSecCharge 82280
[...]
scalar OsgEarthNet.uav[82] utilizationSecIdle 254334.55207229
scalar OsgEarthNet.uav[82] utilizationEnergyMission 4064.1325378418
scalar OsgEarthNet.uav[82] utilizationEnergyMaintenance 666.35372161865
scalar OsgEarthNet.uav[82] utilizationEnergyCharge 4816.0991210938
scalar OsgEarthNet.uav[82] utilizationEnergyOverdrawMission 0
scalar OsgEarthNet.uav[82] utilizationEnergyOverdrawMaintenance 0
scalar OsgEarthNet.uav[82] utilizationCountMissions 1
scalar OsgEarthNet.uav[82] utilizationCountManeuversMission 14
scalar OsgEarthNet.uav[82] utilizationCountManeuversMaintenance 2
scalar OsgEarthNet.uav[82] utilizationCountChargeState 1
scalar OsgEarthNet.uav[82] utilizationCountOverdrawnAfterMission 0
scalar OsgEarthNet.uav[82] utilizationCountIdleState 2
scalar OsgEarthNet.uav[82] utilizationFail 0
scalar OsgEarthNet.uav[82] simulationTime 259200
scalar OsgEarthNet.uav[83] utilizationSecMission 750.20472747826
scalar OsgEarthNet.uav[83] utilizationSecMaintenance 335.16822070369
scalar OsgEarthNet.uav[83] utilizationSecCharge 3970
scalar OsgEarthNet.uav[83] utilizationSecIdle 254144.62605182
scalar OsgEarthNet.uav[83] utilizationEnergyMission 3391.1848754883
scalar OsgEarthNet.uav[83] utilizationEnergyMaintenance 1666.5673942566
scalar OsgEarthNet.uav[83] utilizationEnergyCharge 5057.7524414062
scalar OsgEarthNet.uav[83] utilizationEnergyOverdrawMission 0
scalar OsgEarthNet.uav[83] utilizationEnergyOverdrawMaintenance 0
scalar OsgEarthNet.uav[83] utilizationCountMissions 1
scalar OsgEarthNet.uav[83] utilizationCountManeuversMission 11
scalar OsgEarthNet.uav[83] utilizationCountManeuversMaintenance 2
scalar OsgEarthNet.uav[83] utilizationCountChargeState 1
scalar OsgEarthNet.uav[83] utilizationCountOverdrawnAfterMission 0
scalar OsgEarthNet.uav[83] utilizationCountIdleState 2
scalar OsgEarthNet.uav[83] utilizationFail 0
scalar OsgEarthNet.uav[83] simulationTime 259200
scalar OsgEarthNet.uav[84] utilizationSecMission 528.55000878666
scalar OsgEarthNet.uav[84] utilizationSecMaintenance 478.92797493542
scalar OsgEarthNet.uav[84] utilizationSecCharge 3630
scalar OsgEarthNet.uav[84] utilizationSecIdle 254562.52101628
scalar OsgEarthNet.uav[84] utilizationEnergyMission 2427.5883178711
scalar OsgEarthNet.uav[84] utilizationEnergyMaintenance 2057.6261825562
scalar OsgEarthNet.uav[84] utilizationEnergyCharge 4485.2172851562
scalar OsgEarthNet.uav[84] utilizationEnergyOverdrawMission 0
scalar OsgEarthNet.uav[84] utilizationEnergyOverdrawMaintenance 0
scalar OsgEarthNet.uav[84] utilizationCountMissions 1
scalar OsgEarthNet.uav[84] utilizationCountManeuversMission 10
scalar OsgEarthNet.uav[84] utilizationCountManeuversMaintenance 2
scalar OsgEarthNet.uav[84] utilizationCountChargeState 1
scalar OsgEarthNet.uav[84] utilizationCountOverdrawnAfterMission 0
scalar OsgEarthNet.uav[84] utilizationCountIdleState 2
scalar OsgEarthNet.uav[84] utilizationFail 0
scalar OsgEarthNet.uav[84] simulationTime 259200
scalar OsgEarthNet.uav[85] utilizationSecMission 694.00169469977
scalar OsgEarthNet.uav[85] utilizationSecMaintenance 338.49695459722
scalar OsgEarthNet.uav[85] utilizationSecCharge 3800
scalar OsgEarthNet.uav[85] utilizationSecIdle 254367.5003507
scalar OsgEarthNet.uav[85] utilizationEnergyMission 3256.5910339355
scalar OsgEarthNet.uav[85] utilizationEnergyMaintenance 1524.540599823
scalar OsgEarthNet.uav[85] utilizationEnergyCharge 4781.1303710938
scalar OsgEarthNet.uav[85] utilizationEnergyOverdrawMission 0
scalar OsgEarthNet.uav[85] utilizationEnergyOverdrawMaintenance 0
scalar OsgEarthNet.uav[85] utilizationCountMissions 1
scalar OsgEarthNet.uav[85] utilizationCountManeuversMission 13
scalar OsgEarthNet.uav[85] utilizationCountManeuversMaintenance 2
scalar OsgEarthNet.uav[85] utilizationCountChargeState 1
scalar OsgEarthNet.uav[85] utilizationCountOverdrawnAfterMission 0
scalar OsgEarthNet.uav[85] utilizationCountIdleState 2
scalar OsgEarthNet.uav[85] utilizationFail 0
scalar OsgEarthNet.uav[85] simulationTime 259200
scalar OsgEarthNet.uav[86] utilizationSecMission 7303.3693262434
scalar OsgEarthNet.uav[86] utilizationSecMaintenance 3828.4681174516
scalar OsgEarthNet.uav[86] utilizationSecCharge 40740
scalar OsgEarthNet.uav[86] utilizationSecIdle 207328.1615563
scalar OsgEarthNet.uav[86] utilizationEnergyMission 32901.351173401
scalar OsgEarthNet.uav[86] utilizationEnergyMaintenance 18062.415512085
scalar OsgEarthNet.uav[86] utilizationEnergyCharge 50974.220703125
scalar OsgEarthNet.uav[86] utilizationEnergyOverdrawMission 0
scalar OsgEarthNet.uav[86] utilizationEnergyOverdrawMaintenance 0
scalar OsgEarthNet.uav[86] utilizationCountMissions 11
scalar OsgEarthNet.uav[86] utilizationCountManeuversMission 119
scalar OsgEarthNet.uav[86] utilizationCountManeuversMaintenance 22
scalar OsgEarthNet.uav[86] utilizationCountChargeState 11
scalar OsgEarthNet.uav[86] utilizationCountOverdrawnAfterMission 0
scalar OsgEarthNet.uav[86] utilizationCountIdleState 12
scalar OsgEarthNet.uav[86] utilizationFail 0
scalar OsgEarthNet.uav[86] simulationTime 259200
scalar OsgEarthNet.uav[87] utilizationSecMission 28091.154492772
scalar OsgEarthNet.uav[87] utilizationSecMaintenance 12121.859751969
scalar OsgEarthNet.uav[87] utilizationSecCharge 145741.07763602
scalar OsgEarthNet.uav[87] utilizationSecIdle 73245.907119244
scalar OsgEarthNet.uav[87] utilizationEnergyMission 129649.33585358
scalar OsgEarthNet.uav[87] utilizationEnergyMaintenance 56233.129253387
scalar OsgEarthNet.uav[87] utilizationEnergyCharge 183033.32495117
scalar OsgEarthNet.uav[87] utilizationEnergyOverdrawMission 0
scalar OsgEarthNet.uav[87] utilizationEnergyOverdrawMaintenance 0
scalar OsgEarthNet.uav[87] utilizationCountMissions 40
scalar OsgEarthNet.uav[87] utilizationCountManeuversMission 457
scalar OsgEarthNet.uav[87] utilizationCountManeuversMaintenance 80
scalar OsgEarthNet.uav[87] utilizationCountChargeState 40
scalar OsgEarthNet.uav[87] utilizationCountOverdrawnAfterMission 0
scalar OsgEarthNet.uav[87] utilizationCountIdleState 40
scalar OsgEarthNet.uav[87] utilizationFail 0
scalar OsgEarthNet.uav[87] simulationTime 259200
scalar OsgEarthNet.uav[88] utilizationSecMission 694.00169469977
scalar OsgEarthNet.uav[88] utilizationSecMaintenance 338.49695459722
scalar OsgEarthNet.uav[88] utilizationSecCharge 3870
scalar OsgEarthNet.uav[88] utilizationSecIdle 254297.5003507
scalar OsgEarthNet.uav[88] utilizationEnergyMission 3366.6858825684
scalar OsgEarthNet.uav[88] utilizationEnergyMaintenance 1506.7414054871
scalar OsgEarthNet.uav[88] utilizationEnergyCharge 4873.4267578125
scalar OsgEarthNet.uav[88] utilizationEnergyOverdrawMission 0
scalar OsgEarthNet.uav[88] utilizationEnergyOverdrawMaintenance 0
scalar OsgEarthNet.uav[88] utilizationCountMissions 1
scalar OsgEarthNet.uav[88] utilizationCountManeuversMission 13
scalar OsgEarthNet.uav[88] utilizationCountManeuversMaintenance 2
scalar OsgEarthNet.uav[88] utilizationCountChargeState 1
scalar OsgEarthNet.uav[88] utilizationCountOverdrawnAfterMission 0
scalar OsgEarthNet.uav[88] utilizationCountIdleState 2
scalar OsgEarthNet.uav[88] utilizationFail 0
scalar OsgEarthNet.uav[88] simulationTime 259200
scalar OsgEarthNet.uav[89] utilizationSecMission 760.62515258028
scalar OsgEarthNet.uav[89] utilizationSecMaintenance 291.95923480269
scalar OsgEarthNet.uav[89] utilizationSecCharge 3770
scalar OsgEarthNet.uav[89] utilizationSecIdle 254377.41461262
scalar OsgEarthNet.uav[89] utilizationEnergyMission 3331.7240524292
scalar OsgEarthNet.uav[89] utilizationEnergyMaintenance 1431.8179855347
scalar OsgEarthNet.uav[89] utilizationEnergyCharge 4763.5444335938
scalar OsgEarthNet.uav[89] utilizationEnergyOverdrawMission 0
scalar OsgEarthNet.uav[89] utilizationEnergyOverdrawMaintenance 0
scalar OsgEarthNet.uav[89] utilizationCountMissions 1
scalar OsgEarthNet.uav[89] utilizationCountManeuversMission 12
scalar OsgEarthNet.uav[89] utilizationCountManeuversMaintenance 2
scalar OsgEarthNet.uav[89] utilizationCountChargeState 1
scalar OsgEarthNet.uav[89] utilizationCountOverdrawnAfterMission 0
scalar OsgEarthNet.uav[89] utilizationCountIdleState 2
scalar OsgEarthNet.uav[89] utilizationFail 0
scalar OsgEarthNet.uav[89] simulationTime 259200
scalar OsgEarthNet.uav[90] utilizationSecMission 28516.544323478
scalar OsgEarthNet.uav[90] utilizationSecMaintenance 13628.729379959
scalar OsgEarthNet.uav[90] utilizationSecCharge 156150
scalar OsgEarthNet.uav[90] utilizationSecIdle 60904.725296563
scalar OsgEarthNet.uav[90] utilizationEnergyMission 132583.15768589
scalar OsgEarthNet.uav[90] utilizationEnergyMaintenance 63055.094902039
scalar OsgEarthNet.uav[90] utilizationEnergyCharge 195616.95458984
scalar OsgEarthNet.uav[90] utilizationEnergyOverdrawMission 0
scalar OsgEarthNet.uav[90] utilizationEnergyOverdrawMaintenance 0
scalar OsgEarthNet.uav[90] utilizationCountMissions 42
scalar OsgEarthNet.uav[90] utilizationCountManeuversMission 459
scalar OsgEarthNet.uav[90] utilizationCountManeuversMaintenance 83
scalar OsgEarthNet.uav[90] utilizationCountChargeState 42
scalar OsgEarthNet.uav[90] utilizationCountOverdrawnAfterMission 0
scalar OsgEarthNet.uav[90] utilizationCountIdleState 43
scalar OsgEarthNet.uav[90] utilizationFail 0
scalar OsgEarthNet.uav[90] simulationTime 259200
scalar OsgEarthNet.uav[91] utilizationSecMission 17919.477146362
scalar OsgEarthNet.uav[91] utilizationSecMaintenance 9199.9503373919
scalar OsgEarthNet.uav[91] utilizationSecCharge 99980
scalar OsgEarthNet.uav[91] utilizationSecIdle 132100.57151625
scalar OsgEarthNet.uav[91] utilizationEnergyMission 82918.416114807
scalar OsgEarthNet.uav[91] utilizationEnergyMaintenance 42938.07466507
scalar OsgEarthNet.uav[91] utilizationEnergyCharge 125143.82666016
scalar OsgEarthNet.uav[91] utilizationEnergyOverdrawMission 0
scalar OsgEarthNet.uav[91] utilizationEnergyOverdrawMaintenance 0
scalar OsgEarthNet.uav[91] utilizationCountMissions 27
scalar OsgEarthNet.uav[91] utilizationCountManeuversMission 297
scalar OsgEarthNet.uav[91] utilizationCountManeuversMaintenance 54
scalar OsgEarthNet.uav[91] utilizationCountChargeState 27
scalar OsgEarthNet.uav[91] utilizationCountOverdrawnAfterMission 0
scalar OsgEarthNet.uav[91] utilizationCountIdleState 28
scalar OsgEarthNet.uav[91] utilizationFail 0
scalar OsgEarthNet.uav[91] simulationTime 259200
scalar OsgEarthNet.uav[92] utilizationSecMission 24720.331281332
scalar OsgEarthNet.uav[92] utilizationSecMaintenance 11819.026336032
scalar OsgEarthNet.uav[92] utilizationSecCharge 134470
scalar OsgEarthNet.uav[92] utilizationSecIdle 88190.641382636
scalar OsgEarthNet.uav[92] utilizationEnergyMission 113596.8527832
scalar OsgEarthNet.uav[92] utilizationEnergyMaintenance 54867.229476929
scalar OsgEarthNet.uav[92] utilizationEnergyCharge 168632.03710938
scalar OsgEarthNet.uav[92] utilizationEnergyOverdrawMission 0
scalar OsgEarthNet.uav[92] utilizationEnergyOverdrawMaintenance 0
scalar OsgEarthNet.uav[92] utilizationCountMissions 36
scalar OsgEarthNet.uav[92] utilizationCountManeuversMission 405
scalar OsgEarthNet.uav[92] utilizationCountManeuversMaintenance 72
scalar OsgEarthNet.uav[92] utilizationCountChargeState 36
scalar OsgEarthNet.uav[92] utilizationCountOverdrawnAfterMission 0
scalar OsgEarthNet.uav[92] utilizationCountIdleState 37
scalar OsgEarthNet.uav[92] utilizationFail 0
scalar OsgEarthNet.uav[92] simulationTime 259200
scalar OsgEarthNet.uav[93] utilizationSecMission 760.62515258028
scalar OsgEarthNet.uav[93] utilizationSecMaintenance 291.95923480269
scalar OsgEarthNet.uav[93] utilizationSecCharge 3710
scalar OsgEarthNet.uav[93] utilizationSecIdle 254437.41461262
scalar OsgEarthNet.uav[93] utilizationEnergyMission 3264.8291473389
scalar OsgEarthNet.uav[93] utilizationEnergyMaintenance 1368.4728927612
scalar OsgEarthNet.uav[93] utilizationEnergyCharge 4633.3037109375
scalar OsgEarthNet.uav[93] utilizationEnergyOverdrawMission 0
scalar OsgEarthNet.uav[93] utilizationEnergyOverdrawMaintenance 0
scalar OsgEarthNet.uav[93] utilizationCountMissions 1
scalar OsgEarthNet.uav[93] utilizationCountManeuversMission 12
scalar OsgEarthNet.uav[93] utilizationCountManeuversMaintenance 2
scalar OsgEarthNet.uav[93] utilizationCountChargeState 1
scalar OsgEarthNet.uav[93] utilizationCountOverdrawnAfterMission 0
scalar OsgEarthNet.uav[93] utilizationCountIdleState 2
scalar OsgEarthNet.uav[93] utilizationFail 0
scalar OsgEarthNet.uav[93] simulationTime 259200
scalar OsgEarthNet.uav[94] utilizationSecMission 28078.573143421
scalar OsgEarthNet.uav[94] utilizationSecMaintenance 12613.697743396
scalar OsgEarthNet.uav[94] utilizationSecCharge 149820
scalar OsgEarthNet.uav[94] utilizationSecIdle 68687.728113183
scalar OsgEarthNet.uav[94] utilizationEnergyMission 130270.29558563
scalar OsgEarthNet.uav[94] utilizationEnergyMaintenance 59145.201768688
scalar OsgEarthNet.uav[94] utilizationEnergyCharge 188151.86474609
scalar OsgEarthNet.uav[94] utilizationEnergyOverdrawMission 0
scalar OsgEarthNet.uav[94] utilizationEnergyOverdrawMaintenance 0
scalar OsgEarthNet.uav[94] utilizationCountMissions 40
scalar OsgEarthNet.uav[94] utilizationCountManeuversMission 460
scalar OsgEarthNet.uav[94] utilizationCountManeuversMaintenance 81
scalar OsgEarthNet.uav[94] utilizationCountChargeState 40
scalar OsgEarthNet.uav[94] utilizationCountOverdrawnAfterMission 0
scalar OsgEarthNet.uav[94] utilizationCountIdleState 41
scalar OsgEarthNet.uav[94] utilizationFail 0
scalar OsgEarthNet.uav[94] simulationTime 259200
scalar OsgEarthNet.uav[95] utilizationSecMission 694.00169469977
scalar OsgEarthNet.uav[95] utilizationSecMaintenance 338.49695459722
scalar OsgEarthNet.uav[95] utilizationSecCharge 3700
scalar OsgEarthNet.uav[95] utilizationSecIdle 254467.5003507
scalar OsgEarthNet.uav[95] utilizationEnergyMission 2964.6090774536
scalar OsgEarthNet.uav[95] utilizationEnergyMaintenance 1627.4570426941
scalar OsgEarthNet.uav[95] utilizationEnergyCharge 4592.072265625
scalar OsgEarthNet.uav[95] utilizationEnergyOverdrawMission 0
scalar OsgEarthNet.uav[95] utilizationEnergyOverdrawMaintenance 0
scalar OsgEarthNet.uav[95] utilizationCountMissions 1
scalar OsgEarthNet.uav[95] utilizationCountManeuversMission 13
scalar OsgEarthNet.uav[95] utilizationCountManeuversMaintenance 2
scalar OsgEarthNet.uav[95] utilizationCountChargeState 1
scalar OsgEarthNet.uav[95] utilizationCountOverdrawnAfterMission 0
scalar OsgEarthNet.uav[95] utilizationCountIdleState 2
scalar OsgEarthNet.uav[95] utilizationFail 0
scalar OsgEarthNet.uav[95] simulationTime 259200
scalar OsgEarthNet.uav[96] utilizationSecMission 760.62515258028
scalar OsgEarthNet.uav[96] utilizationSecMaintenance 223.6438949726
scalar OsgEarthNet.uav[96] utilizationSecCharge 3760
scalar OsgEarthNet.uav[96] utilizationSecIdle 254455.72995245
scalar OsgEarthNet.uav[96] utilizationEnergyMission 3584.86328125
scalar OsgEarthNet.uav[96] utilizationEnergyMaintenance 1105.4929924011
scalar OsgEarthNet.uav[96] utilizationEnergyCharge 4690.3569335938
scalar OsgEarthNet.uav[96] utilizationEnergyOverdrawMission 0
scalar OsgEarthNet.uav[96] utilizationEnergyOverdrawMaintenance 0
scalar OsgEarthNet.uav[96] utilizationCountMissions 1
scalar OsgEarthNet.uav[96] utilizationCountManeuversMission 12
scalar OsgEarthNet.uav[96] utilizationCountManeuversMaintenance 2
scalar OsgEarthNet.uav[96] utilizationCountChargeState 1
scalar OsgEarthNet.uav[96] utilizationCountOverdrawnAfterMission 0
scalar OsgEarthNet.uav[96] utilizationCountIdleState 2
scalar OsgEarthNet.uav[96] utilizationFail 0
scalar OsgEarthNet.uav[96] simulationTime 259200
scalar OsgEarthNet.uav[97] utilizationSecMission 9079.7951653428
scalar OsgEarthNet.uav[97] utilizationSecMaintenance 4887.5926941125
scalar OsgEarthNet.uav[97] utilizationSecCharge 52590
scalar OsgEarthNet.uav[97] utilizationSecIdle 192642.61114054
scalar OsgEarthNet.uav[97] utilizationEnergyMission 42706.690353394
scalar OsgEarthNet.uav[97] utilizationEnergyMaintenance 23146.827857971
scalar OsgEarthNet.uav[97] utilizationEnergyCharge 66058.665527344
scalar OsgEarthNet.uav[97] utilizationEnergyOverdrawMission 0
scalar OsgEarthNet.uav[97] utilizationEnergyOverdrawMaintenance 3.708667755127
scalar OsgEarthNet.uav[97] utilizationCountMissions 14
scalar OsgEarthNet.uav[97] utilizationCountManeuversMission 151
scalar OsgEarthNet.uav[97] utilizationCountManeuversMaintenance 28
scalar OsgEarthNet.uav[97] utilizationCountChargeState 14
scalar OsgEarthNet.uav[97] utilizationCountOverdrawnAfterMission 1
scalar OsgEarthNet.uav[97] utilizationCountIdleState 15
scalar OsgEarthNet.uav[97] utilizationFail 0
scalar OsgEarthNet.uav[97] simulationTime 259200
scalar OsgEarthNet.uav[98] utilizationSecMission 5199.2153135176
scalar OsgEarthNet.uav[98] utilizationSecMaintenance 3946.8328074302
scalar OsgEarthNet.uav[98] utilizationSecCharge 30707.091832878
scalar OsgEarthNet.uav[98] utilizationSecIdle 219346.85904617
scalar OsgEarthNet.uav[98] utilizationEnergyMission 23890.907684326
scalar OsgEarthNet.uav[98] utilizationEnergyMaintenance 18025.947338104
scalar OsgEarthNet.uav[98] utilizationEnergyCharge 38890.884033203
scalar OsgEarthNet.uav[98] utilizationEnergyOverdrawMission 0
scalar OsgEarthNet.uav[98] utilizationEnergyOverdrawMaintenance 0
scalar OsgEarthNet.uav[98] utilizationCountMissions 9
scalar OsgEarthNet.uav[98] utilizationCountManeuversMission 88
scalar OsgEarthNet.uav[98] utilizationCountManeuversMaintenance 18
scalar OsgEarthNet.uav[98] utilizationCountChargeState 9
scalar OsgEarthNet.uav[98] utilizationCountOverdrawnAfterMission 0
scalar OsgEarthNet.uav[98] utilizationCountIdleState 9
scalar OsgEarthNet.uav[98] utilizationFail 0
scalar OsgEarthNet.uav[98] simulationTime 259200
scalar OsgEarthNet.uav[99] utilizationSecMission 9188.0877178782
scalar OsgEarthNet.uav[99] utilizationSecMaintenance 7735.5265060901
scalar OsgEarthNet.uav[99] utilizationSecCharge 63500
scalar OsgEarthNet.uav[99] utilizationSecIdle 178776.38477603
scalar OsgEarthNet.uav[99] utilizationEnergyMission 43444.203178406
scalar OsgEarthNet.uav[99] utilizationEnergyMaintenance 36681.060848236
scalar OsgEarthNet.uav[99] utilizationEnergyCharge 80074.12109375
scalar OsgEarthNet.uav[99] utilizationEnergyOverdrawMission 0
scalar OsgEarthNet.uav[99] utilizationEnergyOverdrawMaintenance 0
scalar OsgEarthNet.uav[99] utilizationCountMissions 17
scalar OsgEarthNet.uav[99] utilizationCountManeuversMission 149
scalar OsgEarthNet.uav[99] utilizationCountManeuversMaintenance 34
scalar OsgEarthNet.uav[99] utilizationCountChargeState 17
scalar OsgEarthNet.uav[99] utilizationCountOverdrawnAfterMission 0
scalar OsgEarthNet.uav[99] utilizationCountIdleState 17
scalar OsgEarthNet.uav[99] utilizationFail 0
scalar OsgEarthNet.uav[99] simulationTime 259200
scalar OsgEarthNet.cs[0] usedPower 480906.83810444
scalar OsgEarthNet.cs[0] chargedPower 480906.83810444
scalar OsgEarthNet.cs[0] chargedMobileNodes 102
scalar OsgEarthNet.cs[0] reservations 103
scalar OsgEarthNet.cs[1] usedPower 1118809.3202556
scalar OsgEarthNet.cs[1] chargedPower 1118809.3202556
scalar OsgEarthNet.cs[1] chargedMobileNodes 236
scalar OsgEarthNet.cs[1] reservations 240
scalar OsgEarthNet.cs[2] usedPower 2623018.0117602
scalar OsgEarthNet.cs[2] chargedPower 2623018.0117602
scalar OsgEarthNet.cs[2] chargedMobileNodes 549
scalar OsgEarthNet.cs[2] reservations 562
scalar OsgEarthNet.cs[3] usedPower 808822.10298031
scalar OsgEarthNet.cs[3] chargedPower 808822.10298031
scalar OsgEarthNet.cs[3] chargedMobileNodes 173
scalar OsgEarthNet.cs[3] reservations 174
scalar OsgEarthNet.cs[4] usedPower 728832.9723285
scalar OsgEarthNet.cs[4] chargedPower 728832.9723285
scalar OsgEarthNet.cs[4] chargedMobileNodes 155
scalar OsgEarthNet.cs[4] reservations 157
scalar OsgEarthNet.cs[5] usedPower 411558.43512372
scalar OsgEarthNet.cs[5] chargedPower 411558.43512372
scalar OsgEarthNet.cs[5] chargedMobileNodes 86
scalar OsgEarthNet.cs[5] reservations 88
scalar OsgEarthNet.cs[6] usedPower 2569640.0608115
scalar OsgEarthNet.cs[6] chargedPower 2569640.0608115
scalar OsgEarthNet.cs[6] chargedMobileNodes 545
scalar OsgEarthNet.cs[6] reservations 554

