version 2
run Szenario_Hotel_Gabelbach-3-20180709-12:19:34-20812
attr configname Szenario_Hotel_Gabelbach
attr datetime 20180709-12:19:34
attr experiment Szenario_Hotel_Gabelbach
attr inifile omnetpp.ini
attr iterationvars "$replM=2, $biWeight=0.0"
attr iterationvarsf replM=2,biWeight=0.0-
attr measurement "$replM=2, $biWeight=0.0"
attr network OsgEarthNet
attr processid 20812
attr repetition 3
attr replication #3
attr resultdir results
attr runnumber 3
attr seedset 3
itervar biWeight 0.0
itervar replM 2
param *.osgEarthScene.scene "\"Szenario_Hotel_Gabelbach.earth\""
param *.playgroundLatitude 50.6830269
param *.playgroundLongitude 10.8538055
param *.playgroundWidth 3500m
param *.playgroundHeight 3500m
param *.numUAVs 100
param *.cs[0].posX 3537m
param *.cs[0].posY 965m
param *.cs[0].posZ 538m
param *.cs[1].posX 312m
param *.cs[1].posY 1262m
param *.cs[1].posZ 539m
param *.cs[2].posX 2185m
param *.cs[2].posY 3026m
param *.cs[2].posZ 777m
param *.cs[3].posX 10m
param *.cs[3].posY 2200m
param *.cs[3].posZ 560m
param *.cs[4].posX 750m
param *.cs[4].posY 200m
param *.cs[4].posZ 540m
param *.cs[5].posX 2450m
param *.cs[5].posY 180m
param *.cs[5].posZ 524m
param *.cs[6].posX 3140m
param *.cs[6].posY 1790m
param *.cs[6].posZ 606m
param *.numCSs 7
param *.uav[*].replacementMethod 2
param *.uav[*].weightedSumWeight 0.0
param *.*.timeStep 10s
param *.uav[*].commandPreviewCommandCount 20
param *.missionControl.missionFiles "\"missions\\\\Szenario_WB_Hotel_Gabelbach_Mission_Hotel.waypoints,missions\\\\Szenario_WB_Hotel_Gabelbach_Mission_Kickelhahn.waypoints,missions\\\\Szenario_WB_Hotel_Gabelbach_Mission_Ilmenau_Sportplatz.waypoints,missions\\\\Szenario_WB_Hotel_Gabelbach_Mission_Manebach_Mitte.waypoints,missions\\\\Szenario_WB_Hotel_Gabelbach_Mission_Manebach_Sued.waypoints\""
param *.missionControl.missionFiles "\"missions\\\\Szenario_WB_Hotel_Gabelbach_Mission_Hotel.waypoints,missions\\\\Szenario_WB_Hotel_Gabelbach_Mission_Kickelhahn.waypoints,missions\\\\Szenario_WB_Hotel_Gabelbach_Mission_Ilmenau_Sportplatz.waypoints,missions\\\\Szenario_WB_Hotel_Gabelbach_Mission_Manebach_Mitte.waypoints,missions\\\\Szenario_WB_Hotel_Gabelbach_Mission_Manebach_Sued.waypoints,missions\\\\Szenario_WB_Hotel_Gabelbach_Hover_HoheSchlaufe.waypoints,missions\\\\Szenario_WB_Hotel_Gabelbach_Hover_Kickelhahn.waypoints,missions\\\\Szenario_WB_Hotel_Gabelbach_Hover_Gabelbachskopf.waypoints,missions\\\\Szenario_WB_Hotel_Gabelbach_Hover_Dachskopf.waypoints\""
param *.uav[0].startX 3537m
param *.uav[0].startY 965m
param *.uav[0].startZ 539m
param *.uav[1].startX 312m
param *.uav[1].startY 1262m
param *.uav[1].startZ 540m
param *.uav[2].startX 2185m
param *.uav[2].startY 3026m
param *.uav[2].startZ 778m
param *.uav[3].startX 3537m
param *.uav[3].startY 965m
param *.uav[3].startZ 539m
param *.uav[4].startX 312m
param *.uav[4].startY 1262m
param *.uav[4].startZ 540m
param *.uav[5].startX 2185m
param *.uav[5].startY 3026m
param *.uav[5].startZ 778m
param *.uav[6].startX 3537m
param *.uav[6].startY 965m
param *.uav[6].startZ 539m
param *.uav[7].startX 312m
param *.uav[7].startY 1262m
param *.uav[7].startZ 540m
param *.uav[8].startX 2185m
param *.uav[8].startY 3026m
param *.uav[8].startZ 778m
param *.uav[9].startX 3537m
param *.uav[9].startY 965m
param *.uav[9].startZ 539m
param *.uav[10].startX 3537m
param *.uav[10].startY 965m
param *.uav[10].startZ 539m
param *.uav[11].startX 312m
param *.uav[11].startY 1262m
param *.uav[11].startZ 540m
param *.uav[12].startX 2185m
param *.uav[12].startY 3026m
param *.uav[12].startZ 778m
param *.uav[13].startX 3537m
param *.uav[13].startY 965m
param *.uav[13].startZ 539m
param *.uav[14].startX 312m
param *.uav[14].startY 1262m
param *.uav[14].startZ 540m
param *.uav[15].startX 2185m
param *.uav[15].startY 3026m
param *.uav[15].startZ 778m
param *.uav[16].startX 3537m
param *.uav[16].startY 965m
param *.uav[16].startZ 539m
param *.uav[17].startX 312m
param *.uav[17].startY 1262m
param *.uav[17].startZ 540m
param *.uav[18].startX 2185m
param *.uav[18].startY 3026m
param *.uav[18].startZ 778m
param *.uav[19].startX 3537m
param *.uav[19].startY 965m
param *.uav[19].startZ 539m
param *.uav[20].startX 3537m
param *.uav[20].startY 965m
param *.uav[20].startZ 539m
param *.uav[21].startX 312m
param *.uav[21].startY 1262m
param *.uav[21].startZ 540m
param *.uav[22].startX 2185m
param *.uav[22].startY 3026m
param *.uav[22].startZ 778m
param *.uav[23].startX 3537m
param *.uav[23].startY 965m
param *.uav[23].startZ 539m
param *.uav[24].startX 312m
param *.uav[24].startY 1262m
param *.uav[24].startZ 540m
param *.uav[25].startX 2185m
param *.uav[25].startY 3026m
param *.uav[25].startZ 778m
param *.uav[26].startX 3537m
param *.uav[26].startY 965m
param *.uav[26].startZ 539m
param *.uav[27].startX 312m
param *.uav[27].startY 1262m
param *.uav[27].startZ 540m
param *.uav[28].startX 2185m
param *.uav[28].startY 3026m
param *.uav[28].startZ 778m
param *.uav[29].startX 3537m
param *.uav[29].startY 965m
param *.uav[29].startZ 539m
param *.uav[30].startX 3537m
param *.uav[30].startY 965m
param *.uav[30].startZ 539m
param *.uav[31].startX 312m
param *.uav[31].startY 1262m
param *.uav[31].startZ 540m
param *.uav[32].startX 2185m
param *.uav[32].startY 3026m
param *.uav[32].startZ 778m
param *.uav[33].startX 3537m
param *.uav[33].startY 965m
param *.uav[33].startZ 539m
param *.uav[34].startX 312m
param *.uav[34].startY 1262m
param *.uav[34].startZ 540m
param *.uav[35].startX 2185m
param *.uav[35].startY 3026m
param *.uav[35].startZ 778m
param *.uav[36].startX 3537m
param *.uav[36].startY 965m
param *.uav[36].startZ 539m
param *.uav[37].startX 312m
param *.uav[37].startY 1262m
param *.uav[37].startZ 540m
param *.uav[38].startX 2185m
param *.uav[38].startY 3026m
param *.uav[38].startZ 778m
param *.uav[39].startX 3537m
param *.uav[39].startY 965m
param *.uav[39].startZ 539m
param *.uav[40].startX 3537m
param *.uav[40].startY 965m
param *.uav[40].startZ 539m
param *.uav[41].startX 312m
param *.uav[41].startY 1262m
param *.uav[41].startZ 540m
param *.uav[42].startX 2185m
param *.uav[42].startY 3026m
param *.uav[42].startZ 778m
param *.uav[43].startX 3537m
param *.uav[43].startY 965m
param *.uav[43].startZ 539m
param *.uav[44].startX 312m
param *.uav[44].startY 1262m
param *.uav[44].startZ 540m
param *.uav[45].startX 2185m
param *.uav[45].startY 3026m
param *.uav[45].startZ 778m
param *.uav[46].startX 3537m
param *.uav[46].startY 965m
param *.uav[46].startZ 539m
param *.uav[47].startX 312m
param *.uav[47].startY 1262m
param *.uav[47].startZ 540m
param *.uav[48].startX 2185m
param *.uav[48].startY 3026m
param *.uav[48].startZ 778m
param *.uav[49].startX 3537m
param *.uav[49].startY 965m
param *.uav[49].startZ 539m
param *.uav[50].startX 3537m
param *.uav[50].startY 965m
param *.uav[50].startZ 539m
param *.uav[51].startX 312m
param *.uav[51].startY 1262m
param *.uav[51].startZ 540m
param *.uav[52].startX 2185m
param *.uav[52].startY 3026m
param *.uav[52].startZ 778m
param *.uav[53].startX 3537m
param *.uav[53].startY 965m
param *.uav[53].startZ 539m
param *.uav[54].startX 312m
param *.uav[54].startY 1262m
param *.uav[54].startZ 540m
param *.uav[55].startX 2185m
param *.uav[55].startY 3026m
param *.uav[55].startZ 778m
param *.uav[56].startX 3537m
param *.uav[56].startY 965m
param *.uav[56].startZ 539m
param *.uav[57].startX 312m
param *.uav[57].startY 1262m
param *.uav[57].startZ 540m
param *.uav[58].startX 2185m
param *.uav[58].startY 3026m
param *.uav[58].startZ 778m
param *.uav[59].startX 3537m
param *.uav[59].startY 965m
param *.uav[59].startZ 539m
param *.uav[60].startX 3537m
param *.uav[60].startY 965m
param *.uav[60].startZ 539m
param *.uav[61].startX 312m
param *.uav[61].startY 1262m
param *.uav[61].startZ 540m
param *.uav[62].startX 2185m
param *.uav[62].startY 3026m
param *.uav[62].startZ 778m
param *.uav[63].startX 3537m
param *.uav[63].startY 965m
param *.uav[63].startZ 539m
param *.uav[64].startX 312m
param *.uav[64].startY 1262m
param *.uav[64].startZ 540m
param *.uav[65].startX 2185m
param *.uav[65].startY 3026m
param *.uav[65].startZ 778m
param *.uav[66].startX 3537m
param *.uav[66].startY 965m
param *.uav[66].startZ 539m
param *.uav[67].startX 312m
param *.uav[67].startY 1262m
param *.uav[67].startZ 540m
param *.uav[68].startX 2185m
param *.uav[68].startY 3026m
param *.uav[68].startZ 778m
param *.uav[69].startX 3537m
param *.uav[69].startY 965m
param *.uav[69].startZ 539m
param *.uav[70].startX 3537m
param *.uav[70].startY 965m
param *.uav[70].startZ 539m
param *.uav[71].startX 312m
param *.uav[71].startY 1262m
param *.uav[71].startZ 540m
param *.uav[72].startX 2185m
param *.uav[72].startY 3026m
param *.uav[72].startZ 778m
param *.uav[73].startX 3537m
param *.uav[73].startY 965m
param *.uav[73].startZ 539m
param *.uav[74].startX 312m
param *.uav[74].startY 1262m
param *.uav[74].startZ 540m
param *.uav[75].startX 2185m
param *.uav[75].startY 3026m
param *.uav[75].startZ 778m
param *.uav[76].startX 3537m
param *.uav[76].startY 965m
param *.uav[76].startZ 539m
param *.uav[77].startX 312m
param *.uav[77].startY 1262m
param *.uav[77].startZ 540m
param *.uav[78].startX 2185m
param *.uav[78].startY 3026m
param *.uav[78].startZ 778m
param *.uav[79].startX 3537m
param *.uav[79].startY 965m
param *.uav[79].startZ 539m
param *.uav[80].startX 3537m
param *.uav[80].startY 965m
param *.uav[80].startZ 539m
param *.uav[81].startX 312m
param *.uav[81].startY 1262m
param *.uav[81].startZ 540m
param *.uav[82].startX 2185m
param *.uav[82].startY 3026m
param *.uav[82].startZ 778m
param *.uav[83].startX 3537m
param *.uav[83].startY 965m
param *.uav[83].startZ 539m
param *.uav[84].startX 312m
param *.uav[84].startY 1262m
param *.uav[84].startZ 540m
param *.uav[85].startX 2185m
param *.uav[85].startY 3026m
param *.uav[85].startZ 778m
param *.uav[86].startX 3537m
param *.uav[86].startY 965m
param *.uav[86].startZ 539m
param *.uav[87].startX 312m
param *.uav[87].startY 1262m
param *.uav[87].startZ 540m
param *.uav[88].startX 2185m
param *.uav[88].startY 3026m
param *.uav[88].startZ 778m
param *.uav[89].startX 3537m
param *.uav[89].startY 965m
param *.uav[89].startZ 539m
param *.uav[90].startX 3537m
param *.uav[90].startY 965m
param *.uav[90].startZ 539m
param *.uav[91].startX 312m
param *.uav[91].startY 1262m
param *.uav[91].startZ 540m
param *.uav[92].startX 2185m
param *.uav[92].startY 3026m
param *.uav[92].startZ 778m
param *.uav[93].startX 3537m
param *.uav[93].startY 965m
param *.uav[93].startZ 539m
param *.uav[94].startX 312m
param *.uav[94].startY 1262m
param *.uav[94].startZ 540m
param *.uav[95].startX 2185m
param *.uav[95].startY 3026m
param *.uav[95].startZ 778m
param *.uav[96].startX 3537m
param *.uav[96].startY 965m
param *.uav[96].startZ 539m
param *.uav[97].startX 312m
param *.uav[97].startY 1262m
param *.uav[97].startZ 540m
param *.uav[98].startX 2185m
param *.uav[98].startY 3026m
param *.uav[98].startZ 778m
param *.uav[99].startX 3537m
param *.uav[99].startY 965m
param *.uav[99].startZ 539m
param *.osgEarthScene.scene "\"boston.earth\""
param *.playgroundLatitude 42.3558
param *.playgroundLongitude -71.0677
param *.playgroundWidth 400m
param *.playgroundHeight 200m
param *.channelController.connectionColor "\"#0000FF40\""
param *.channelController.showConnections false
param *.uav[*].modelURL "\"quadrocopter.small.obj.15.scale.0,0,90.rot\""
param *.uav[*].labelColor "\"#FF7C00CC\""
param *.uav[*].label2Color "\"#FF7C00EE\""
param *.uav[*].batteryCapacity 5200mAh
param *.uav[*].batteryRemaining uav[index].batteryCapacity
param *.uav[*].predictionQuantile 0.95
param *.uav[*].replacementMethod 2
param *.uav[*].weightedSumWeight 0.5
param *.cs[*].modelURL "\"chargingstation_v1.osgt.2.scale.0,0,0.rot.0,0,-15e-1.trans\""
param *.cs[*].spotsWaiting 999
param *.cs[*].spotsCharging 999
param *.cs[*].chargeEffectivenessPercentage 100
param *.cs[*].nonLinearPhaseStartPercentage 85
param *.cs[*].chargeCurrent 6.0A
param *.cs[*].prioritizeFastCharge true
param *.missionControl.replacementSearchMethod 0
param *.*.timeStep 9s

scalar OsgEarthNet.uav[0] utilizationSecMission 443.5870541303
scalar OsgEarthNet.uav[0] utilizationSecMaintenance 425.80795651079
scalar OsgEarthNet.uav[0] utilizationSecCharge 3370
scalar OsgEarthNet.uav[0] utilizationSecIdle 254960.60398936
scalar OsgEarthNet.uav[0] utilizationEnergyMission 1974.8514251709
scalar OsgEarthNet.uav[0] utilizationEnergyMaintenance 2132.6706047058
scalar OsgEarthNet.uav[0] utilizationEnergyCharge 4094.3291015625
scalar OsgEarthNet.uav[0] utilizationEnergyOverdrawMission 0
scalar OsgEarthNet.uav[0] utilizationEnergyOverdrawMaintenance 0
scalar OsgEarthNet.uav[0] utilizationCountMissions 1
scalar OsgEarthNet.uav[0] utilizationCountManeuversMission 7
scalar OsgEarthNet.uav[0] utilizationCountManeuversMaintenance 2
scalar OsgEarthNet.uav[0] utilizationCountChargeState 1
scalar OsgEarthNet.uav[0] utilizationCountOverdrawnAfterMission 0
scalar OsgEarthNet.uav[0] utilizationCountIdleState 2
scalar OsgEarthNet.uav[0] utilizationFail 0
scalar OsgEarthNet.uav[0] simulationTime 259200
scalar OsgEarthNet.uav[1] utilizationSecMission 23.329233930829
scalar OsgEarthNet.uav[1] utilizationSecMaintenance 476.50021886036
scalar OsgEarthNet.uav[1] utilizationSecCharge 2430
scalar OsgEarthNet.uav[1] utilizationSecIdle 256270.16954721
scalar OsgEarthNet.uav[1] utilizationEnergyMission 114.60871887207
scalar OsgEarthNet.uav[1] utilizationEnergyMaintenance 2355.1767501831
scalar OsgEarthNet.uav[1] utilizationEnergyCharge 2469.7834472656
scalar OsgEarthNet.uav[1] utilizationEnergyOverdrawMission 0
scalar OsgEarthNet.uav[1] utilizationEnergyOverdrawMaintenance 0
scalar OsgEarthNet.uav[1] utilizationCountMissions 1
scalar OsgEarthNet.uav[1] utilizationCountManeuversMission 1
scalar OsgEarthNet.uav[1] utilizationCountManeuversMaintenance 2
scalar OsgEarthNet.uav[1] utilizationCountChargeState 1
scalar OsgEarthNet.uav[1] utilizationCountOverdrawnAfterMission 0
scalar OsgEarthNet.uav[1] utilizationCountIdleState 2
scalar OsgEarthNet.uav[1] utilizationFail 0
scalar OsgEarthNet.uav[1] simulationTime 259200
scalar OsgEarthNet.uav[2] utilizationSecMission 20674.598759079
scalar OsgEarthNet.uav[2] utilizationSecMaintenance 11093.966486349
scalar OsgEarthNet.uav[2] utilizationSecCharge 123644.9861821
scalar OsgEarthNet.uav[2] utilizationSecIdle 103786.44757247
scalar OsgEarthNet.uav[2] utilizationEnergyMission 96452.925628662
scalar OsgEarthNet.uav[2] utilizationEnergyMaintenance 52235.07390976
scalar OsgEarthNet.uav[2] utilizationEnergyCharge 146688.34741211
scalar OsgEarthNet.uav[2] utilizationEnergyOverdrawMission 0
scalar OsgEarthNet.uav[2] utilizationEnergyOverdrawMaintenance 0
scalar OsgEarthNet.uav[2] utilizationCountMissions 40
scalar OsgEarthNet.uav[2] utilizationCountManeuversMission 331
scalar OsgEarthNet.uav[2] utilizationCountManeuversMaintenance 80
scalar OsgEarthNet.uav[2] utilizationCountChargeState 40
scalar OsgEarthNet.uav[2] utilizationCountOverdrawnAfterMission 0
scalar OsgEarthNet.uav[2] utilizationCountIdleState 40
scalar OsgEarthNet.uav[2] utilizationFail 0
scalar OsgEarthNet.uav[2] simulationTime 259200
scalar OsgEarthNet.uav[3] utilizationSecMission 24680.171802191
scalar OsgEarthNet.uav[3] utilizationSecMaintenance 13812.387256718
scalar OsgEarthNet.uav[3] utilizationSecCharge 152690.01355999
scalar OsgEarthNet.uav[3] utilizationSecIdle 68017.426381102
scalar OsgEarthNet.uav[3] utilizationEnergyMission 113839.51894379
scalar OsgEarthNet.uav[3] utilizationEnergyMaintenance 64343.806804657
scalar OsgEarthNet.uav[3] utilizationEnergyCharge 175992.40380859
scalar OsgEarthNet.uav[3] utilizationEnergyOverdrawMission 0
scalar OsgEarthNet.uav[3] utilizationEnergyOverdrawMaintenance 0
scalar OsgEarthNet.uav[3] utilizationCountMissions 52
scalar OsgEarthNet.uav[3] utilizationCountManeuversMission 414
scalar OsgEarthNet.uav[3] utilizationCountManeuversMaintenance 104
scalar OsgEarthNet.uav[3] utilizationCountChargeState 52
scalar OsgEarthNet.uav[3] utilizationCountOverdrawnAfterMission 0
scalar OsgEarthNet.uav[3] utilizationCountIdleState 52
scalar OsgEarthNet.uav[3] utilizationFail 0
scalar OsgEarthNet.uav[3] simulationTime 259200
scalar OsgEarthNet.uav[4] utilizationSecMission 23.329233930829
scalar OsgEarthNet.uav[4] utilizationSecMaintenance 626.50021886036
scalar OsgEarthNet.uav[4] utilizationSecCharge 2760
scalar OsgEarthNet.uav[4] utilizationSecIdle 255790.16954721
scalar OsgEarthNet.uav[4] utilizationEnergyMission 81.108497619627
scalar OsgEarthNet.uav[4] utilizationEnergyMaintenance 2963.0051994324
scalar OsgEarthNet.uav[4] utilizationEnergyCharge 3044.1140136719
scalar OsgEarthNet.uav[4] utilizationEnergyOverdrawMission 0
scalar OsgEarthNet.uav[4] utilizationEnergyOverdrawMaintenance 0
scalar OsgEarthNet.uav[4] utilizationCountMissions 1
scalar OsgEarthNet.uav[4] utilizationCountManeuversMission 1
scalar OsgEarthNet.uav[4] utilizationCountManeuversMaintenance 2
scalar OsgEarthNet.uav[4] utilizationCountChargeState 1
scalar OsgEarthNet.uav[4] utilizationCountOverdrawnAfterMission 0
scalar OsgEarthNet.uav[4] utilizationCountIdleState 2
scalar OsgEarthNet.uav[4] utilizationFail 0
scalar OsgEarthNet.uav[4] simulationTime 259200
scalar OsgEarthNet.uav[5] utilizationSecMission 28685.555831356
scalar OsgEarthNet.uav[5] utilizationSecMaintenance 13338.132352714
scalar OsgEarthNet.uav[5] utilizationSecCharge 163982.21615215
scalar OsgEarthNet.uav[5] utilizationSecIdle 53194.094663781
scalar OsgEarthNet.uav[5] utilizationEnergyMission 131190.94230652
scalar OsgEarthNet.uav[5] utilizationEnergyMaintenance 61859.650421143
scalar OsgEarthNet.uav[5] utilizationEnergyCharge 192841.46557617
scalar OsgEarthNet.uav[5] utilizationEnergyOverdrawMission 0
scalar OsgEarthNet.uav[5] utilizationEnergyOverdrawMaintenance 0
scalar OsgEarthNet.uav[5] utilizationCountMissions 53
scalar OsgEarthNet.uav[5] utilizationCountManeuversMission 465
scalar OsgEarthNet.uav[5] utilizationCountManeuversMaintenance 106
scalar OsgEarthNet.uav[5] utilizationCountChargeState 53
scalar OsgEarthNet.uav[5] utilizationCountOverdrawnAfterMission 0
scalar OsgEarthNet.uav[5] utilizationCountIdleState 53
scalar OsgEarthNet.uav[5] utilizationFail 0
scalar OsgEarthNet.uav[5] simulationTime 259200
scalar OsgEarthNet.uav[6] utilizationSecMission 443.5870541303
scalar OsgEarthNet.uav[6] utilizationSecMaintenance 425.80795651079
scalar OsgEarthNet.uav[6] utilizationSecCharge 3240
scalar OsgEarthNet.uav[6] utilizationSecIdle 255090.60398936
scalar OsgEarthNet.uav[6] utilizationEnergyMission 2099.2264709473
scalar OsgEarthNet.uav[6] utilizationEnergyMaintenance 1897.5034599304
scalar OsgEarthNet.uav[6] utilizationEnergyCharge 3844.7416992188
scalar OsgEarthNet.uav[6] utilizationEnergyOverdrawMission 0
scalar OsgEarthNet.uav[6] utilizationEnergyOverdrawMaintenance 0
scalar OsgEarthNet.uav[6] utilizationCountMissions 1
scalar OsgEarthNet.uav[6] utilizationCountManeuversMission 7
scalar OsgEarthNet.uav[6] utilizationCountManeuversMaintenance 2
scalar OsgEarthNet.uav[6] utilizationCountChargeState 1
scalar OsgEarthNet.uav[6] utilizationCountOverdrawnAfterMission 0
scalar OsgEarthNet.uav[6] utilizationCountIdleState 2
scalar OsgEarthNet.uav[6] utilizationFail 0
scalar OsgEarthNet.uav[6] simulationTime 259200
scalar OsgEarthNet.uav[7] utilizationSecMission 25334.772399292
scalar OsgEarthNet.uav[7] utilizationSecMaintenance 14196.906297736
scalar OsgEarthNet.uav[7] utilizationSecCharge 154103.61460394
scalar OsgEarthNet.uav[7] utilizationSecIdle 65564.705699036
scalar OsgEarthNet.uav[7] utilizationEnergyMission 116086.92746735
scalar OsgEarthNet.uav[7] utilizationEnergyMaintenance 65451.528633118
scalar OsgEarthNet.uav[7] utilizationEnergyCharge 179993.63500977
scalar OsgEarthNet.uav[7] utilizationEnergyOverdrawMission 0
scalar OsgEarthNet.uav[7] utilizationEnergyOverdrawMaintenance 0
scalar OsgEarthNet.uav[7] utilizationCountMissions 51
scalar OsgEarthNet.uav[7] utilizationCountManeuversMission 427
scalar OsgEarthNet.uav[7] utilizationCountManeuversMaintenance 102
scalar OsgEarthNet.uav[7] utilizationCountChargeState 51
scalar OsgEarthNet.uav[7] utilizationCountOverdrawnAfterMission 0
scalar OsgEarthNet.uav[7] utilizationCountIdleState 51
scalar OsgEarthNet.uav[7] utilizationFail 0
scalar OsgEarthNet.uav[7] simulationTime 259200
scalar OsgEarthNet.uav[8] utilizationSecMission 887.1741082606
scalar OsgEarthNet.uav[8] utilizationSecMaintenance 125.81102573108
scalar OsgEarthNet.uav[8] utilizationSecCharge 3830
scalar OsgEarthNet.uav[8] utilizationSecIdle 254357.01386601
scalar OsgEarthNet.uav[8] utilizationEnergyMission 4330.5697479248
scalar OsgEarthNet.uav[8] utilizationEnergyMaintenance 540.1494216919
scalar OsgEarthNet.uav[8] utilizationEnergyCharge 4880.826171875
scalar OsgEarthNet.uav[8] utilizationEnergyOverdrawMission 0
scalar OsgEarthNet.uav[8] utilizationEnergyOverdrawMaintenance 0
scalar OsgEarthNet.uav[8] utilizationCountMissions 1
scalar OsgEarthNet.uav[8] utilizationCountManeuversMission 14
scalar OsgEarthNet.uav[8] utilizationCountManeuversMaintenance 2
scalar OsgEarthNet.uav[8] utilizationCountChargeState 1
scalar OsgEarthNet.uav[8] utilizationCountOverdrawnAfterMission 0
scalar OsgEarthNet.uav[8] utilizationCountIdleState 2
scalar OsgEarthNet.uav[8] utilizationFail 0
scalar OsgEarthNet.uav[8] simulationTime 259200
scalar OsgEarthNet.uav[9] utilizationSecMission 18490.713894073
scalar OsgEarthNet.uav[9] utilizationSecMaintenance 10697.081438882
scalar OsgEarthNet.uav[9] utilizationSecCharge 114170
scalar OsgEarthNet.uav[9] utilizationSecIdle 115842.20366704
scalar OsgEarthNet.uav[9] utilizationEnergyMission 84751.989830017
scalar OsgEarthNet.uav[9] utilizationEnergyMaintenance 50848.476860046
scalar OsgEarthNet.uav[9] utilizationEnergyCharge 135315.81860352
scalar OsgEarthNet.uav[9] utilizationEnergyOverdrawMission 0
scalar OsgEarthNet.uav[9] utilizationEnergyOverdrawMaintenance 0
scalar OsgEarthNet.uav[9] utilizationCountMissions 36
scalar OsgEarthNet.uav[9] utilizationCountManeuversMission 288
scalar OsgEarthNet.uav[9] utilizationCountManeuversMaintenance 72
scalar OsgEarthNet.uav[9] utilizationCountChargeState 36
scalar OsgEarthNet.uav[9] utilizationCountOverdrawnAfterMission 0
scalar OsgEarthNet.uav[9] utilizationCountIdleState 37
scalar OsgEarthNet.uav[9] utilizationFail 0
scalar OsgEarthNet.uav[9] simulationTime 259200
scalar OsgEarthNet.uav[10] utilizationSecMission 27855.593987473
scalar OsgEarthNet.uav[10] utilizationSecMaintenance 13404.946076492
scalar OsgEarthNet.uav[10] utilizationSecCharge 160712.65971196
scalar OsgEarthNet.uav[10] utilizationSecIdle 57226.799224078
scalar OsgEarthNet.uav[10] utilizationEnergyMission 128862.61388779
scalar OsgEarthNet.uav[10] utilizationEnergyMaintenance 63179.555404663
scalar OsgEarthNet.uav[10] utilizationEnergyCharge 191716.0769043
scalar OsgEarthNet.uav[10] utilizationEnergyOverdrawMission 0
scalar OsgEarthNet.uav[10] utilizationEnergyOverdrawMaintenance 0
scalar OsgEarthNet.uav[10] utilizationCountMissions 51
scalar OsgEarthNet.uav[10] utilizationCountManeuversMission 448
scalar OsgEarthNet.uav[10] utilizationCountManeuversMaintenance 102
scalar OsgEarthNet.uav[10] utilizationCountChargeState 51
scalar OsgEarthNet.uav[10] utilizationCountOverdrawnAfterMission 0
scalar OsgEarthNet.uav[10] utilizationCountIdleState 51
scalar OsgEarthNet.uav[10] utilizationFail 0
scalar OsgEarthNet.uav[10] simulationTime 259200
scalar OsgEarthNet.uav[11] utilizationSecMission 301.50602773369
scalar OsgEarthNet.uav[11] utilizationSecMaintenance 206.19350838146
scalar OsgEarthNet.uav[11] utilizationSecCharge 2490
scalar OsgEarthNet.uav[11] utilizationSecIdle 256202.29946388
scalar OsgEarthNet.uav[11] utilizationEnergyMission 1518.1125946045
scalar OsgEarthNet.uav[11] utilizationEnergyMaintenance 1074.0645370483
scalar OsgEarthNet.uav[11] utilizationEnergyCharge 2572.2316894531
scalar OsgEarthNet.uav[11] utilizationEnergyOverdrawMission 0
scalar OsgEarthNet.uav[11] utilizationEnergyOverdrawMaintenance 0
scalar OsgEarthNet.uav[11] utilizationCountMissions 1
scalar OsgEarthNet.uav[11] utilizationCountManeuversMission 6
scalar OsgEarthNet.uav[11] utilizationCountManeuversMaintenance 2
scalar OsgEarthNet.uav[11] utilizationCountChargeState 1
scalar OsgEarthNet.uav[11] utilizationCountOverdrawnAfterMission 0
scalar OsgEarthNet.uav[11] utilizationCountIdleState 2
scalar OsgEarthNet.uav[11] utilizationFail 0
scalar OsgEarthNet.uav[11] simulationTime 259200
scalar OsgEarthNet.uav[12] utilizationSecMission 887.1741082606
scalar OsgEarthNet.uav[12] utilizationSecMaintenance 125.81102573108
scalar OsgEarthNet.uav[12] utilizationSecCharge 3690
scalar OsgEarthNet.uav[12] utilizationSecIdle 254497.01386601
scalar OsgEarthNet.uav[12] utilizationEnergyMission 4041.9757995605
scalar OsgEarthNet.uav[12] utilizationEnergyMaintenance 541.92322540283
scalar OsgEarthNet.uav[12] utilizationEnergyCharge 4649.0375976562
scalar OsgEarthNet.uav[12] utilizationEnergyOverdrawMission 0
scalar OsgEarthNet.uav[12] utilizationEnergyOverdrawMaintenance 0
scalar OsgEarthNet.uav[12] utilizationCountMissions 1
scalar OsgEarthNet.uav[12] utilizationCountManeuversMission 14
scalar OsgEarthNet.uav[12] utilizationCountManeuversMaintenance 2
scalar OsgEarthNet.uav[12] utilizationCountChargeState 1
scalar OsgEarthNet.uav[12] utilizationCountOverdrawnAfterMission 0
scalar OsgEarthNet.uav[12] utilizationCountIdleState 2
scalar OsgEarthNet.uav[12] utilizationFail 0
scalar OsgEarthNet.uav[12] simulationTime 259200
scalar OsgEarthNet.uav[13] utilizationSecMission 1014.5757665791
scalar OsgEarthNet.uav[13] utilizationSecMaintenance 422.15989650704
scalar OsgEarthNet.uav[13] utilizationSecCharge 5710
scalar OsgEarthNet.uav[13] utilizationSecIdle 252053.26333691
scalar OsgEarthNet.uav[13] utilizationEnergyMission 4946.3692169189
scalar OsgEarthNet.uav[13] utilizationEnergyMaintenance 1831.9803733826
scalar OsgEarthNet.uav[13] utilizationEnergyCharge 6449.154296875
scalar OsgEarthNet.uav[13] utilizationEnergyOverdrawMission 0
scalar OsgEarthNet.uav[13] utilizationEnergyOverdrawMaintenance 0
scalar OsgEarthNet.uav[13] utilizationCountMissions 2
scalar OsgEarthNet.uav[13] utilizationCountManeuversMission 15
scalar OsgEarthNet.uav[13] utilizationCountManeuversMaintenance 4
scalar OsgEarthNet.uav[13] utilizationCountChargeState 2
scalar OsgEarthNet.uav[13] utilizationCountOverdrawnAfterMission 0
scalar OsgEarthNet.uav[13] utilizationCountIdleState 3
scalar OsgEarthNet.uav[13] utilizationFail 0
scalar OsgEarthNet.uav[13] simulationTime 259200
scalar OsgEarthNet.uav[14] utilizationSecMission 23.329233930829
scalar OsgEarthNet.uav[14] utilizationSecMaintenance 616.50021886036
scalar OsgEarthNet.uav[14] utilizationSecCharge 2880
scalar OsgEarthNet.uav[14] utilizationSecIdle 255680.16954721
scalar OsgEarthNet.uav[14] utilizationEnergyMission 112.75840759277
scalar OsgEarthNet.uav[14] utilizationEnergyMaintenance 3144.1293640137
scalar OsgEarthNet.uav[14] utilizationEnergyCharge 3256.892578125
scalar OsgEarthNet.uav[14] utilizationEnergyOverdrawMission 0
scalar OsgEarthNet.uav[14] utilizationEnergyOverdrawMaintenance 0
scalar OsgEarthNet.uav[14] utilizationCountMissions 1
scalar OsgEarthNet.uav[14] utilizationCountManeuversMission 1
scalar OsgEarthNet.uav[14] utilizationCountManeuversMaintenance 2
scalar OsgEarthNet.uav[14] utilizationCountChargeState 1
scalar OsgEarthNet.uav[14] utilizationCountOverdrawnAfterMission 0
scalar OsgEarthNet.uav[14] utilizationCountIdleState 2
scalar OsgEarthNet.uav[14] utilizationFail 0
scalar OsgEarthNet.uav[14] simulationTime 259200
scalar OsgEarthNet.uav[15] utilizationSecMission 694.00169469977
scalar OsgEarthNet.uav[15] utilizationSecMaintenance 229.48898285212
scalar OsgEarthNet.uav[15] utilizationSecCharge 3540
scalar OsgEarthNet.uav[15] utilizationSecIdle 254736.50832245
scalar OsgEarthNet.uav[15] utilizationEnergyMission 3379.3987808228
scalar OsgEarthNet.uav[15] utilizationEnergyMaintenance 1015.9051742554
scalar OsgEarthNet.uav[15] utilizationEnergyCharge 4373.9760742188
scalar OsgEarthNet.uav[15] utilizationEnergyOverdrawMission 0
scalar OsgEarthNet.uav[15] utilizationEnergyOverdrawMaintenance 0
scalar OsgEarthNet.uav[15] utilizationCountMissions 1
scalar OsgEarthNet.uav[15] utilizationCountManeuversMission 13
scalar OsgEarthNet.uav[15] utilizationCountManeuversMaintenance 2
scalar OsgEarthNet.uav[15] utilizationCountChargeState 1
scalar OsgEarthNet.uav[15] utilizationCountOverdrawnAfterMission 0
scalar OsgEarthNet.uav[15] utilizationCountIdleState 2
scalar OsgEarthNet.uav[15] utilizationFail 0
scalar OsgEarthNet.uav[15] simulationTime 259200
scalar OsgEarthNet.uav[16] utilizationSecMission 443.5870541303
scalar OsgEarthNet.uav[16] utilizationSecMaintenance 425.80795651079
scalar OsgEarthNet.uav[16] utilizationSecCharge 3270
scalar OsgEarthNet.uav[16] utilizationSecIdle 255060.60398936
scalar OsgEarthNet.uav[16] utilizationEnergyMission 1923.116279602
scalar OsgEarthNet.uav[16] utilizationEnergyMaintenance 1968.8837547302
scalar OsgEarthNet.uav[16] utilizationEnergyCharge 3917.2436523438
scalar OsgEarthNet.uav[16] utilizationEnergyOverdrawMission 0
scalar OsgEarthNet.uav[16] utilizationEnergyOverdrawMaintenance 0
scalar OsgEarthNet.uav[16] utilizationCountMissions 1
scalar OsgEarthNet.uav[16] utilizationCountManeuversMission 7
scalar OsgEarthNet.uav[16] utilizationCountManeuversMaintenance 2
scalar OsgEarthNet.uav[16] utilizationCountChargeState 1
scalar OsgEarthNet.uav[16] utilizationCountOverdrawnAfterMission 0
scalar OsgEarthNet.uav[16] utilizationCountIdleState 2
scalar OsgEarthNet.uav[16] utilizationFail 0
scalar OsgEarthNet.uav[16] simulationTime 259200
scalar OsgEarthNet.uav[17] utilizationSecMission 301.50602773369
scalar OsgEarthNet.uav[17] utilizationSecMaintenance 206.19350838146
scalar OsgEarthNet.uav[17] utilizationSecCharge 2480
scalar OsgEarthNet.uav[17] utilizationSecIdle 256212.29946388
scalar OsgEarthNet.uav[17] utilizationEnergyMission 1503.598236084
scalar OsgEarthNet.uav[17] utilizationEnergyMaintenance 1042.1722335815
scalar OsgEarthNet.uav[17] utilizationEnergyCharge 2556.111328125
scalar OsgEarthNet.uav[17] utilizationEnergyOverdrawMission 0
scalar OsgEarthNet.uav[17] utilizationEnergyOverdrawMaintenance 0
scalar OsgEarthNet.uav[17] utilizationCountMissions 1
scalar OsgEarthNet.uav[17] utilizationCountManeuversMission 6
scalar OsgEarthNet.uav[17] utilizationCountManeuversMaintenance 2
scalar OsgEarthNet.uav[17] utilizationCountChargeState 1
scalar OsgEarthNet.uav[17] utilizationCountOverdrawnAfterMission 0
scalar OsgEarthNet.uav[17] utilizationCountIdleState 2
scalar OsgEarthNet.uav[17] utilizationFail 0
scalar OsgEarthNet.uav[17] simulationTime 259200
scalar OsgEarthNet.uav[18] utilizationSecMission 15962.598817772
scalar OsgEarthNet.uav[18] utilizationSecMaintenance 8089.3517948158
scalar OsgEarthNet.uav[18] utilizationSecCharge 92720.862644644
scalar OsgEarthNet.uav[18] utilizationSecIdle 142427.18574277
scalar OsgEarthNet.uav[18] utilizationEnergyMission 73953.145935059
scalar OsgEarthNet.uav[18] utilizationEnergyMaintenance 38722.222610474
scalar OsgEarthNet.uav[18] utilizationEnergyCharge 108441.39215088
scalar OsgEarthNet.uav[18] utilizationEnergyOverdrawMission 0
scalar OsgEarthNet.uav[18] utilizationEnergyOverdrawMaintenance 0
scalar OsgEarthNet.uav[18] utilizationCountMissions 31
scalar OsgEarthNet.uav[18] utilizationCountManeuversMission 254
scalar OsgEarthNet.uav[18] utilizationCountManeuversMaintenance 62
scalar OsgEarthNet.uav[18] utilizationCountChargeState 31
scalar OsgEarthNet.uav[18] utilizationCountOverdrawnAfterMission 0
scalar OsgEarthNet.uav[18] utilizationCountIdleState 31
scalar OsgEarthNet.uav[18] utilizationFail 0
scalar OsgEarthNet.uav[18] simulationTime 259200
scalar OsgEarthNet.uav[19] utilizationSecMission 26742.002348364
scalar OsgEarthNet.uav[19] utilizationSecMaintenance 12269.427053706
scalar OsgEarthNet.uav[19] utilizationSecCharge 152535.71451805
scalar OsgEarthNet.uav[19] utilizationSecIdle 67652.855079877
scalar OsgEarthNet.uav[19] utilizationEnergyMission 124337.95998383
scalar OsgEarthNet.uav[19] utilizationEnergyMaintenance 56674.095607758
scalar OsgEarthNet.uav[19] utilizationEnergyCharge 180693.51635742
scalar OsgEarthNet.uav[19] utilizationEnergyOverdrawMission 0
scalar OsgEarthNet.uav[19] utilizationEnergyOverdrawMaintenance 0
scalar OsgEarthNet.uav[19] utilizationCountMissions 49
scalar OsgEarthNet.uav[19] utilizationCountManeuversMission 438
scalar OsgEarthNet.uav[19] utilizationCountManeuversMaintenance 98
scalar OsgEarthNet.uav[19] utilizationCountChargeState 49
scalar OsgEarthNet.uav[19] utilizationCountOverdrawnAfterMission 0
scalar OsgEarthNet.uav[19] utilizationCountIdleState 49
scalar OsgEarthNet.uav[19] utilizationFail 0
scalar OsgEarthNet.uav[19] simulationTime 259200
scalar OsgEarthNet.uav[20] utilizationSecMission 443.5870541303
scalar OsgEarthNet.uav[20] utilizationSecMaintenance 425.80795651079
scalar OsgEarthNet.uav[20] utilizationSecCharge 3440
scalar OsgEarthNet.uav[20] utilizationSecIdle 254890.60398936
scalar OsgEarthNet.uav[20] utilizationEnergyMission 2206.1476287842
scalar OsgEarthNet.uav[20] utilizationEnergyMaintenance 1979.2360038757
scalar OsgEarthNet.uav[20] utilizationEnergyCharge 4283.3637695312
scalar OsgEarthNet.uav[20] utilizationEnergyOverdrawMission 0
scalar OsgEarthNet.uav[20] utilizationEnergyOverdrawMaintenance 0
scalar OsgEarthNet.uav[20] utilizationCountMissions 1
scalar OsgEarthNet.uav[20] utilizationCountManeuversMission 7
scalar OsgEarthNet.uav[20] utilizationCountManeuversMaintenance 2
scalar OsgEarthNet.uav[20] utilizationCountChargeState 1
scalar OsgEarthNet.uav[20] utilizationCountOverdrawnAfterMission 0
scalar OsgEarthNet.uav[20] utilizationCountIdleState 2
scalar OsgEarthNet.uav[20] utilizationFail 0
scalar OsgEarthNet.uav[20] simulationTime 259200
scalar OsgEarthNet.uav[21] utilizationSecMission 25352.310090254
scalar OsgEarthNet.uav[21] utilizationSecMaintenance 15861.206825325
scalar OsgEarthNet.uav[21] utilizationSecCharge 159609.16600259
scalar OsgEarthNet.uav[21] utilizationSecIdle 58377.316081831
scalar OsgEarthNet.uav[21] utilizationEnergyMission 118423.40843964
scalar OsgEarthNet.uav[21] utilizationEnergyMaintenance 74191.654865265
scalar OsgEarthNet.uav[21] utilizationEnergyCharge 188338.40167236
scalar OsgEarthNet.uav[21] utilizationEnergyOverdrawMission 0
scalar OsgEarthNet.uav[21] utilizationEnergyOverdrawMaintenance 0
scalar OsgEarthNet.uav[21] utilizationCountMissions 52
scalar OsgEarthNet.uav[21] utilizationCountManeuversMission 420
scalar OsgEarthNet.uav[21] utilizationCountManeuversMaintenance 104
scalar OsgEarthNet.uav[21] utilizationCountChargeState 52
scalar OsgEarthNet.uav[21] utilizationCountOverdrawnAfterMission 0
scalar OsgEarthNet.uav[21] utilizationCountIdleState 52
scalar OsgEarthNet.uav[21] utilizationFail 0
scalar OsgEarthNet.uav[21] simulationTime 259200
scalar OsgEarthNet.uav[22] utilizationSecMission 887.1741082606
scalar OsgEarthNet.uav[22] utilizationSecMaintenance 125.81102573108
scalar OsgEarthNet.uav[22] utilizationSecCharge 3740
scalar OsgEarthNet.uav[22] utilizationSecIdle 254447.01386601
scalar OsgEarthNet.uav[22] utilizationEnergyMission 4455.819519043
scalar OsgEarthNet.uav[22] utilizationEnergyMaintenance 590.56468963623
scalar OsgEarthNet.uav[22] utilizationEnergyCharge 4739.9404296875
scalar OsgEarthNet.uav[22] utilizationEnergyOverdrawMission 0
scalar OsgEarthNet.uav[22] utilizationEnergyOverdrawMaintenance 0
scalar OsgEarthNet.uav[22] utilizationCountMissions 1
scalar OsgEarthNet.uav[22] utilizationCountManeuversMission 14
scalar OsgEarthNet.uav[22] utilizationCountManeuversMaintenance 2
scalar OsgEarthNet.uav[22] utilizationCountChargeState 1
scalar OsgEarthNet.uav[22] utilizationCountOverdrawnAfterMission 0
scalar OsgEarthNet.uav[22] utilizationCountIdleState 2
scalar OsgEarthNet.uav[22] utilizationFail 0
scalar OsgEarthNet.uav[22] simulationTime 259200
scalar OsgEarthNet.uav[23] utilizationSecMission 443.5870541303
scalar OsgEarthNet.uav[23] utilizationSecMaintenance 425.80795651079
scalar OsgEarthNet.uav[23] utilizationSecCharge 3350
scalar OsgEarthNet.uav[23] utilizationSecIdle 254980.60398936
scalar OsgEarthNet.uav[23] utilizationEnergyMission 2005.8153381348
scalar OsgEarthNet.uav[23] utilizationEnergyMaintenance 1988.3182487488
scalar OsgEarthNet.uav[23] utilizationEnergyCharge 4094.1716308594
scalar OsgEarthNet.uav[23] utilizationEnergyOverdrawMission 0
scalar OsgEarthNet.uav[23] utilizationEnergyOverdrawMaintenance 0
scalar OsgEarthNet.uav[23] utilizationCountMissions 1
scalar OsgEarthNet.uav[23] utilizationCountManeuversMission 7
scalar OsgEarthNet.uav[23] utilizationCountManeuversMaintenance 2
scalar OsgEarthNet.uav[23] utilizationCountChargeState 1
scalar OsgEarthNet.uav[23] utilizationCountOverdrawnAfterMission 0
scalar OsgEarthNet.uav[23] utilizationCountIdleState 2
scalar OsgEarthNet.uav[23] utilizationFail 0
scalar OsgEarthNet.uav[23] simulationTime 259200
scalar OsgEarthNet.uav[24] utilizationSecMission 23.329233930829
scalar OsgEarthNet.uav[24] utilizationSecMaintenance 626.50021886036
scalar OsgEarthNet.uav[24] utilizationSecCharge 2810
scalar OsgEarthNet.uav[24] utilizationSecIdle 255740.16954721
scalar OsgEarthNet.uav[24] utilizationEnergyMission 64.508491516112
scalar OsgEarthNet.uav[24] utilizationEnergyMaintenance 3038.6251029968
scalar OsgEarthNet.uav[24] utilizationEnergyCharge 3103.1408691406
scalar OsgEarthNet.uav[24] utilizationEnergyOverdrawMission 0
scalar OsgEarthNet.uav[24] utilizationEnergyOverdrawMaintenance 0
scalar OsgEarthNet.uav[24] utilizationCountMissions 1
scalar OsgEarthNet.uav[24] utilizationCountManeuversMission 1
scalar OsgEarthNet.uav[24] utilizationCountManeuversMaintenance 2
scalar OsgEarthNet.uav[24] utilizationCountChargeState 1
scalar OsgEarthNet.uav[24] utilizationCountOverdrawnAfterMission 0
scalar OsgEarthNet.uav[24] utilizationCountIdleState 2
scalar OsgEarthNet.uav[24] utilizationFail 0
scalar OsgEarthNet.uav[24] simulationTime 259200
scalar OsgEarthNet.uav[25] utilizationSecMission 694.00169469977
scalar OsgEarthNet.uav[25] utilizationSecMaintenance 229.48898285212
scalar OsgEarthNet.uav[25] utilizationSecCharge 3550
scalar OsgEarthNet.uav[25] utilizationSecIdle 254726.50832245
scalar OsgEarthNet.uav[25] utilizationEnergyMission 3419.0845794678
scalar OsgEarthNet.uav[25] utilizationEnergyMaintenance 936.9923324585
scalar OsgEarthNet.uav[25] utilizationEnergyCharge 4404.45703125
scalar OsgEarthNet.uav[25] utilizationEnergyOverdrawMission 0
scalar OsgEarthNet.uav[25] utilizationEnergyOverdrawMaintenance 0
scalar OsgEarthNet.uav[25] utilizationCountMissions 1
scalar OsgEarthNet.uav[25] utilizationCountManeuversMission 13
scalar OsgEarthNet.uav[25] utilizationCountManeuversMaintenance 2
scalar OsgEarthNet.uav[25] utilizationCountChargeState 1
scalar OsgEarthNet.uav[25] utilizationCountOverdrawnAfterMission 0
scalar OsgEarthNet.uav[25] utilizationCountIdleState 2
scalar OsgEarthNet.uav[25] utilizationFail 0
scalar OsgEarthNet.uav[25] simulationTime 259200
scalar OsgEarthNet.uav[26] utilizationSecMission 443.5870541303
scalar OsgEarthNet.uav[26] utilizationSecMaintenance 425.80795651079
scalar OsgEarthNet.uav[26] utilizationSecCharge 3330
scalar OsgEarthNet.uav[26] utilizationSecIdle 255000.60398936
scalar OsgEarthNet.uav[26] utilizationEnergyMission 1930.7154693603
scalar OsgEarthNet.uav[26] utilizationEnergyMaintenance 2054.2241020203
scalar OsgEarthNet.uav[26] utilizationEnergyCharge 4078.3930664062
scalar OsgEarthNet.uav[26] utilizationEnergyOverdrawMission 0
scalar OsgEarthNet.uav[26] utilizationEnergyOverdrawMaintenance 0
scalar OsgEarthNet.uav[26] utilizationCountMissions 1
scalar OsgEarthNet.uav[26] utilizationCountManeuversMission 7
scalar OsgEarthNet.uav[26] utilizationCountManeuversMaintenance 2
scalar OsgEarthNet.uav[26] utilizationCountChargeState 1
scalar OsgEarthNet.uav[26] utilizationCountOverdrawnAfterMission 0
scalar OsgEarthNet.uav[26] utilizationCountIdleState 2
scalar OsgEarthNet.uav[26] utilizationFail 0
scalar OsgEarthNet.uav[26] simulationTime 259200
scalar OsgEarthNet.uav[27] utilizationSecMission 3156.1528441793
scalar OsgEarthNet.uav[27] utilizationSecMaintenance 2132.2079210374
scalar OsgEarthNet.uav[27] utilizationSecCharge 20950
scalar OsgEarthNet.uav[27] utilizationSecIdle 232961.63823478
scalar OsgEarthNet.uav[27] utilizationEnergyMission 14772.68309021
scalar OsgEarthNet.uav[27] utilizationEnergyMaintenance 9462.972869873
scalar OsgEarthNet.uav[27] utilizationEnergyCharge 24152.274902344
scalar OsgEarthNet.uav[27] utilizationEnergyOverdrawMission 0
scalar OsgEarthNet.uav[27] utilizationEnergyOverdrawMaintenance 0
scalar OsgEarthNet.uav[27] utilizationCountMissions 7
scalar OsgEarthNet.uav[27] utilizationCountManeuversMission 56
scalar OsgEarthNet.uav[27] utilizationCountManeuversMaintenance 14
scalar OsgEarthNet.uav[27] utilizationCountChargeState 7
scalar OsgEarthNet.uav[27] utilizationCountOverdrawnAfterMission 0
scalar OsgEarthNet.uav[27] utilizationCountIdleState 8
scalar OsgEarthNet.uav[27] utilizationFail 0
scalar OsgEarthNet.uav[27] simulationTime 259200
scalar OsgEarthNet.uav[28] utilizationSecMission 4225.0609282998
scalar OsgEarthNet.uav[28] utilizationSecMaintenance 1096.3715507833
scalar OsgEarthNet.uav[28] utilizationSecCharge 20140
scalar OsgEarthNet.uav[28] utilizationSecIdle 233738.56652092
scalar OsgEarthNet.uav[28] utilizationEnergyMission 19551.884460449
scalar OsgEarthNet.uav[28] utilizationEnergyMaintenance 5312.577960968
scalar OsgEarthNet.uav[28] utilizationEnergyCharge 24653.417724609
scalar OsgEarthNet.uav[28] utilizationEnergyOverdrawMission 0
scalar OsgEarthNet.uav[28] utilizationEnergyOverdrawMaintenance 0
scalar OsgEarthNet.uav[28] utilizationCountMissions 6
scalar OsgEarthNet.uav[28] utilizationCountManeuversMission 63
scalar OsgEarthNet.uav[28] utilizationCountManeuversMaintenance 12
scalar OsgEarthNet.uav[28] utilizationCountChargeState 6
scalar OsgEarthNet.uav[28] utilizationCountOverdrawnAfterMission 0
scalar OsgEarthNet.uav[28] utilizationCountIdleState 7
scalar OsgEarthNet.uav[28] utilizationFail 0
scalar OsgEarthNet.uav[28] simulationTime 259200
scalar OsgEarthNet.uav[29] utilizationSecMission 2250.6141824348
scalar OsgEarthNet.uav[29] utilizationSecMaintenance 574.51246971383
scalar OsgEarthNet.uav[29] utilizationSecCharge 10540
scalar OsgEarthNet.uav[29] utilizationSecIdle 245834.87234785
scalar OsgEarthNet.uav[29] utilizationEnergyMission 10228.048950195
scalar OsgEarthNet.uav[29] utilizationEnergyMaintenance 2726.6626625061
scalar OsgEarthNet.uav[29] utilizationEnergyCharge 13004.5546875
scalar OsgEarthNet.uav[29] utilizationEnergyOverdrawMission 0
scalar OsgEarthNet.uav[29] utilizationEnergyOverdrawMaintenance 0
scalar OsgEarthNet.uav[29] utilizationCountMissions 3
scalar OsgEarthNet.uav[29] utilizationCountManeuversMission 33
scalar OsgEarthNet.uav[29] utilizationCountManeuversMaintenance 6
scalar OsgEarthNet.uav[29] utilizationCountChargeState 3
scalar OsgEarthNet.uav[29] utilizationCountOverdrawnAfterMission 0
scalar OsgEarthNet.uav[29] utilizationCountIdleState 4
scalar OsgEarthNet.uav[29] utilizationFail 0
scalar OsgEarthNet.uav[29] simulationTime 259200
scalar OsgEarthNet.uav[30] utilizationSecMission 443.5870541303
scalar OsgEarthNet.uav[30] utilizationSecMaintenance 425.80795651079
scalar OsgEarthNet.uav[30] utilizationSecCharge 3480
scalar OsgEarthNet.uav[30] utilizationSecIdle 254850.60398936
scalar OsgEarthNet.uav[30] utilizationEnergyMission 2050.8517608643
scalar OsgEarthNet.uav[30] utilizationEnergyMaintenance 2169.3332939148
scalar OsgEarthNet.uav[30] utilizationEnergyCharge 4277.6240234375
scalar OsgEarthNet.uav[30] utilizationEnergyOverdrawMission 0
scalar OsgEarthNet.uav[30] utilizationEnergyOverdrawMaintenance 0
scalar OsgEarthNet.uav[30] utilizationCountMissions 1
scalar OsgEarthNet.uav[30] utilizationCountManeuversMission 7
scalar OsgEarthNet.uav[30] utilizationCountManeuversMaintenance 2
scalar OsgEarthNet.uav[30] utilizationCountChargeState 1
scalar OsgEarthNet.uav[30] utilizationCountOverdrawnAfterMission 0
scalar OsgEarthNet.uav[30] utilizationCountIdleState 2
scalar OsgEarthNet.uav[30] utilizationFail 0
scalar OsgEarthNet.uav[30] simulationTime 259200
scalar OsgEarthNet.uav[31] utilizationSecMission 26337.611438902
scalar OsgEarthNet.uav[31] utilizationSecMaintenance 14777.775671582
scalar OsgEarthNet.uav[31] utilizationSecCharge 162730
scalar OsgEarthNet.uav[31] utilizationSecIdle 55354.611889516
scalar OsgEarthNet.uav[31] utilizationEnergyMission 121343.29139709
scalar OsgEarthNet.uav[31] utilizationEnergyMaintenance 70168.859575638
scalar OsgEarthNet.uav[31] utilizationEnergyCharge 191813.86474609
scalar OsgEarthNet.uav[31] utilizationEnergyOverdrawMission 0
scalar OsgEarthNet.uav[31] utilizationEnergyOverdrawMaintenance 0
scalar OsgEarthNet.uav[31] utilizationCountMissions 52
scalar OsgEarthNet.uav[31] utilizationCountManeuversMission 425
scalar OsgEarthNet.uav[31] utilizationCountManeuversMaintenance 105
scalar OsgEarthNet.uav[31] utilizationCountChargeState 52
scalar OsgEarthNet.uav[31] utilizationCountOverdrawnAfterMission 0
scalar OsgEarthNet.uav[31] utilizationCountIdleState 53
scalar OsgEarthNet.uav[31] utilizationFail 0
scalar OsgEarthNet.uav[31] simulationTime 259200
scalar OsgEarthNet.uav[32] utilizationSecMission 1822.0587055255
scalar OsgEarthNet.uav[32] utilizationSecMaintenance 1858.9071249153
scalar OsgEarthNet.uav[32] utilizationSecCharge 14780
scalar OsgEarthNet.uav[32] utilizationSecIdle 240739.03316956
scalar OsgEarthNet.uav[32] utilizationEnergyMission 8478.1196594238
scalar OsgEarthNet.uav[32] utilizationEnergyMaintenance 8592.1067962647
scalar OsgEarthNet.uav[32] utilizationEnergyCharge 16971.850097656
scalar OsgEarthNet.uav[32] utilizationEnergyOverdrawMission 0
scalar OsgEarthNet.uav[32] utilizationEnergyOverdrawMaintenance 0
scalar OsgEarthNet.uav[32] utilizationCountMissions 5
scalar OsgEarthNet.uav[32] utilizationCountManeuversMission 31
scalar OsgEarthNet.uav[32] utilizationCountManeuversMaintenance 10
scalar OsgEarthNet.uav[32] utilizationCountChargeState 5
scalar OsgEarthNet.uav[32] utilizationCountOverdrawnAfterMission 0
scalar OsgEarthNet.uav[32] utilizationCountIdleState 6
scalar OsgEarthNet.uav[32] utilizationFail 0
scalar OsgEarthNet.uav[32] simulationTime 259200
scalar OsgEarthNet.uav[33] utilizationSecMission 25481.293207723
scalar OsgEarthNet.uav[33] utilizationSecMaintenance 12373.2481094
scalar OsgEarthNet.uav[33] utilizationSecCharge 148820
scalar OsgEarthNet.uav[33] utilizationSecIdle 72525.457682877
scalar OsgEarthNet.uav[33] utilizationEnergyMission 117335.49760437
scalar OsgEarthNet.uav[33] utilizationEnergyMaintenance 57628.694095612
scalar OsgEarthNet.uav[33] utilizationEnergyCharge 174798.42114258
scalar OsgEarthNet.uav[33] utilizationEnergyOverdrawMission 0
scalar OsgEarthNet.uav[33] utilizationEnergyOverdrawMaintenance 0
scalar OsgEarthNet.uav[33] utilizationCountMissions 48
scalar OsgEarthNet.uav[33] utilizationCountManeuversMission 420
scalar OsgEarthNet.uav[33] utilizationCountManeuversMaintenance 96
scalar OsgEarthNet.uav[33] utilizationCountChargeState 48
scalar OsgEarthNet.uav[33] utilizationCountOverdrawnAfterMission 0
scalar OsgEarthNet.uav[33] utilizationCountIdleState 49
scalar OsgEarthNet.uav[33] utilizationFail 0
scalar OsgEarthNet.uav[33] simulationTime 259200
scalar OsgEarthNet.uav[34] utilizationSecMission 12363.311201528
scalar OsgEarthNet.uav[34] utilizationSecMaintenance 4239.9567019662
scalar OsgEarthNet.uav[34] utilizationSecCharge 63650
scalar OsgEarthNet.uav[34] utilizationSecIdle 178946.73109651
scalar OsgEarthNet.uav[34] utilizationEnergyMission 56014.852958679
scalar OsgEarthNet.uav[34] utilizationEnergyMaintenance 19274.448787689
scalar OsgEarthNet.uav[34] utilizationEnergyCharge 75583.453613281
scalar OsgEarthNet.uav[34] utilizationEnergyOverdrawMission 0
scalar OsgEarthNet.uav[34] utilizationEnergyOverdrawMaintenance 0
scalar OsgEarthNet.uav[34] utilizationCountMissions 20
scalar OsgEarthNet.uav[34] utilizationCountManeuversMission 205
scalar OsgEarthNet.uav[34] utilizationCountManeuversMaintenance 40
scalar OsgEarthNet.uav[34] utilizationCountChargeState 20
scalar OsgEarthNet.uav[34] utilizationCountOverdrawnAfterMission 0
scalar OsgEarthNet.uav[34] utilizationCountIdleState 21
scalar OsgEarthNet.uav[34] utilizationFail 0
scalar OsgEarthNet.uav[34] simulationTime 259200
scalar OsgEarthNet.uav[35] utilizationSecMission 26459.163869691
scalar OsgEarthNet.uav[35] utilizationSecMaintenance 14914.073995374
scalar OsgEarthNet.uav[35] utilizationSecCharge 163744.76113493
scalar OsgEarthNet.uav[35] utilizationSecIdle 54082
scalar OsgEarthNet.uav[35] utilizationEnergyMission 122752.50084923
scalar OsgEarthNet.uav[35] utilizationEnergyMaintenance 70761.172546387
scalar OsgEarthNet.uav[35] utilizationEnergyCharge 193478.3828125
scalar OsgEarthNet.uav[35] utilizationEnergyOverdrawMission 0
scalar OsgEarthNet.uav[35] utilizationEnergyOverdrawMaintenance 0
scalar OsgEarthNet.uav[35] utilizationCountMissions 53
scalar OsgEarthNet.uav[35] utilizationCountManeuversMission 424
scalar OsgEarthNet.uav[35] utilizationCountManeuversMaintenance 105
scalar OsgEarthNet.uav[35] utilizationCountChargeState 53
scalar OsgEarthNet.uav[35] utilizationCountOverdrawnAfterMission 0
scalar OsgEarthNet.uav[35] utilizationCountIdleState 53
scalar OsgEarthNet.uav[35] utilizationFail 0
scalar OsgEarthNet.uav[35] simulationTime 259200
scalar OsgEarthNet.uav[36] utilizationSecMission 443.5870541303
scalar OsgEarthNet.uav[36] utilizationSecMaintenance 425.80795651079
scalar OsgEarthNet.uav[36] utilizationSecCharge 3390
scalar OsgEarthNet.uav[36] utilizationSecIdle 254940.60398936
scalar OsgEarthNet.uav[36] utilizationEnergyMission 2050.1538848877
scalar OsgEarthNet.uav[36] utilizationEnergyMaintenance 2027.0512504578
scalar OsgEarthNet.uav[36] utilizationEnergyCharge 4132.9399414062
scalar OsgEarthNet.uav[36] utilizationEnergyOverdrawMission 0
scalar OsgEarthNet.uav[36] utilizationEnergyOverdrawMaintenance 0
scalar OsgEarthNet.uav[36] utilizationCountMissions 1
scalar OsgEarthNet.uav[36] utilizationCountManeuversMission 7
scalar OsgEarthNet.uav[36] utilizationCountManeuversMaintenance 2
scalar OsgEarthNet.uav[36] utilizationCountChargeState 1
scalar OsgEarthNet.uav[36] utilizationCountOverdrawnAfterMission 0
scalar OsgEarthNet.uav[36] utilizationCountIdleState 2
scalar OsgEarthNet.uav[36] utilizationFail 0
scalar OsgEarthNet.uav[36] simulationTime 259200
scalar OsgEarthNet.uav[37] utilizationSecMission 20802.161455612
scalar OsgEarthNet.uav[37] utilizationSecMaintenance 11274.661215943
scalar OsgEarthNet.uav[37] utilizationSecCharge 120963.55683262
scalar OsgEarthNet.uav[37] utilizationSecIdle 106159.61949583
scalar OsgEarthNet.uav[37] utilizationEnergyMission 94711.883918762
scalar OsgEarthNet.uav[37] utilizationEnergyMaintenance 54182.595657349
scalar OsgEarthNet.uav[37] utilizationEnergyCharge 145529.07849121
scalar OsgEarthNet.uav[37] utilizationEnergyOverdrawMission 0
scalar OsgEarthNet.uav[37] utilizationEnergyOverdrawMaintenance 0
scalar OsgEarthNet.uav[37] utilizationCountMissions 38
scalar OsgEarthNet.uav[37] utilizationCountManeuversMission 344
scalar OsgEarthNet.uav[37] utilizationCountManeuversMaintenance 76
scalar OsgEarthNet.uav[37] utilizationCountChargeState 38
scalar OsgEarthNet.uav[37] utilizationCountOverdrawnAfterMission 0
scalar OsgEarthNet.uav[37] utilizationCountIdleState 38
scalar OsgEarthNet.uav[37] utilizationFail 0
scalar OsgEarthNet.uav[37] simulationTime 259200
scalar OsgEarthNet.uav[38] utilizationSecMission 8965.1616850365
scalar OsgEarthNet.uav[38] utilizationSecMaintenance 4718.6677334827
scalar OsgEarthNet.uav[38] utilizationSecCharge 53260
scalar OsgEarthNet.uav[38] utilizationSecIdle 192256.16958148
scalar OsgEarthNet.uav[38] utilizationEnergyMission 41059.221870422
scalar OsgEarthNet.uav[38] utilizationEnergyMaintenance 22144.900596619
scalar OsgEarthNet.uav[38] utilizationEnergyCharge 63161.609619141
scalar OsgEarthNet.uav[38] utilizationEnergyOverdrawMission 0
scalar OsgEarthNet.uav[38] utilizationEnergyOverdrawMaintenance 0
scalar OsgEarthNet.uav[38] utilizationCountMissions 17
scalar OsgEarthNet.uav[38] utilizationCountManeuversMission 146
scalar OsgEarthNet.uav[38] utilizationCountManeuversMaintenance 34
scalar OsgEarthNet.uav[38] utilizationCountChargeState 17
scalar OsgEarthNet.uav[38] utilizationCountOverdrawnAfterMission 0
scalar OsgEarthNet.uav[38] utilizationCountIdleState 18
scalar OsgEarthNet.uav[38] utilizationFail 0
scalar OsgEarthNet.uav[38] simulationTime 259200
scalar OsgEarthNet.uav[39] utilizationSecMission 25554.675133678
scalar OsgEarthNet.uav[39] utilizationSecMaintenance 13154.572455927
scalar OsgEarthNet.uav[39] utilizationSecCharge 150787.9844298
scalar OsgEarthNet.uav[39] utilizationSecIdle 69702.766980599
scalar OsgEarthNet.uav[39] utilizationEnergyMission 117556.1435318
scalar OsgEarthNet.uav[39] utilizationEnergyMaintenance 62755.539096832
scalar OsgEarthNet.uav[39] utilizationEnergyCharge 179746.09521484
scalar OsgEarthNet.uav[39] utilizationEnergyOverdrawMission 0
scalar OsgEarthNet.uav[39] utilizationEnergyOverdrawMaintenance 0
scalar OsgEarthNet.uav[39] utilizationCountMissions 48
scalar OsgEarthNet.uav[39] utilizationCountManeuversMission 401
scalar OsgEarthNet.uav[39] utilizationCountManeuversMaintenance 96
scalar OsgEarthNet.uav[39] utilizationCountChargeState 48
scalar OsgEarthNet.uav[39] utilizationCountOverdrawnAfterMission 0
scalar OsgEarthNet.uav[39] utilizationCountIdleState 48
scalar OsgEarthNet.uav[39] utilizationFail 0
scalar OsgEarthNet.uav[39] simulationTime 259200
scalar OsgEarthNet.uav[40] utilizationSecMission 3348.3335985366
scalar OsgEarthNet.uav[40] utilizationSecMaintenance 2129.6487683811
scalar OsgEarthNet.uav[40] utilizationSecCharge 21810
scalar OsgEarthNet.uav[40] utilizationSecIdle 231912.01663308
scalar OsgEarthNet.uav[40] utilizationEnergyMission 15407.399307251
scalar OsgEarthNet.uav[40] utilizationEnergyMaintenance 10076.639636993
scalar OsgEarthNet.uav[40] utilizationEnergyCharge 25524.760986328
scalar OsgEarthNet.uav[40] utilizationEnergyOverdrawMission 0
scalar OsgEarthNet.uav[40] utilizationEnergyOverdrawMaintenance 0
scalar OsgEarthNet.uav[40] utilizationCountMissions 7
scalar OsgEarthNet.uav[40] utilizationCountManeuversMission 56
scalar OsgEarthNet.uav[40] utilizationCountManeuversMaintenance 14
scalar OsgEarthNet.uav[40] utilizationCountChargeState 7
scalar OsgEarthNet.uav[40] utilizationCountOverdrawnAfterMission 0
scalar OsgEarthNet.uav[40] utilizationCountIdleState 8
scalar OsgEarthNet.uav[40] utilizationFail 0
scalar OsgEarthNet.uav[40] simulationTime 259200
scalar OsgEarthNet.uav[41] utilizationSecMission 29770.39437704
scalar OsgEarthNet.uav[41] utilizationSecMaintenance 13642.283297533
scalar OsgEarthNet.uav[41] utilizationSecCharge 168535.32132543
scalar OsgEarthNet.uav[41] utilizationSecIdle 47252
scalar OsgEarthNet.uav[41] utilizationEnergyMission 137062.377491
scalar OsgEarthNet.uav[41] utilizationEnergyMaintenance 64151.470096588
scalar OsgEarthNet.uav[41] utilizationEnergyCharge 198417.62988281
scalar OsgEarthNet.uav[41] utilizationEnergyOverdrawMission 0
scalar OsgEarthNet.uav[41] utilizationEnergyOverdrawMaintenance 0
scalar OsgEarthNet.uav[41] utilizationCountMissions 55
scalar OsgEarthNet.uav[41] utilizationCountManeuversMission 482
scalar OsgEarthNet.uav[41] utilizationCountManeuversMaintenance 109
scalar OsgEarthNet.uav[41] utilizationCountChargeState 55
scalar OsgEarthNet.uav[41] utilizationCountOverdrawnAfterMission 0
scalar OsgEarthNet.uav[41] utilizationCountIdleState 55
scalar OsgEarthNet.uav[41] utilizationFail 0
scalar OsgEarthNet.uav[41] simulationTime 259200
scalar OsgEarthNet.uav[42] utilizationSecMission 694.00169469977
scalar OsgEarthNet.uav[42] utilizationSecMaintenance 229.48898285212
scalar OsgEarthNet.uav[42] utilizationSecCharge 3420
scalar OsgEarthNet.uav[42] utilizationSecIdle 254856.50832245
scalar OsgEarthNet.uav[42] utilizationEnergyMission 3328.0405197144
scalar OsgEarthNet.uav[42] utilizationEnergyMaintenance 896.98027801514
scalar OsgEarthNet.uav[42] utilizationEnergyCharge 4175.7983398438
scalar OsgEarthNet.uav[42] utilizationEnergyOverdrawMission 0
scalar OsgEarthNet.uav[42] utilizationEnergyOverdrawMaintenance 0
scalar OsgEarthNet.uav[42] utilizationCountMissions 1
scalar OsgEarthNet.uav[42] utilizationCountManeuversMission 13
scalar OsgEarthNet.uav[42] utilizationCountManeuversMaintenance 2
scalar OsgEarthNet.uav[42] utilizationCountChargeState 1
scalar OsgEarthNet.uav[42] utilizationCountOverdrawnAfterMission 0
scalar OsgEarthNet.uav[42] utilizationCountIdleState 2
scalar OsgEarthNet.uav[42] utilizationFail 0
scalar OsgEarthNet.uav[42] simulationTime 259200
scalar OsgEarthNet.uav[43] utilizationSecMission 24918.578385484
scalar OsgEarthNet.uav[43] utilizationSecMaintenance 11362.266315624
scalar OsgEarthNet.uav[43] utilizationSecCharge 139980
scalar OsgEarthNet.uav[43] utilizationSecIdle 82939.154298892
scalar OsgEarthNet.uav[43] utilizationEnergyMission 114862.75765991
scalar OsgEarthNet.uav[43] utilizationEnergyMaintenance 53190.752388001
scalar OsgEarthNet.uav[43] utilizationEnergyCharge 167966.53857422
scalar OsgEarthNet.uav[43] utilizationEnergyOverdrawMission 0
scalar OsgEarthNet.uav[43] utilizationEnergyOverdrawMaintenance 0
scalar OsgEarthNet.uav[43] utilizationCountMissions 43
scalar OsgEarthNet.uav[43] utilizationCountManeuversMission 393
scalar OsgEarthNet.uav[43] utilizationCountManeuversMaintenance 86
scalar OsgEarthNet.uav[43] utilizationCountChargeState 43
scalar OsgEarthNet.uav[43] utilizationCountOverdrawnAfterMission 0
scalar OsgEarthNet.uav[43] utilizationCountIdleState 44
scalar OsgEarthNet.uav[43] utilizationFail 0
scalar OsgEarthNet.uav[43] simulationTime 259200
scalar OsgEarthNet.uav[44] utilizationSecMission 5616.5482730748
scalar OsgEarthNet.uav[44] utilizationSecMaintenance 1908.4857691909
scalar OsgEarthNet.uav[44] utilizationSecCharge 29060
scalar OsgEarthNet.uav[44] utilizationSecIdle 222614.96495773
scalar OsgEarthNet.uav[44] utilizationEnergyMission 25835.255935669
scalar OsgEarthNet.uav[44] utilizationEnergyMaintenance 8943.5679244995
scalar OsgEarthNet.uav[44] utilizationEnergyCharge 34708.573242188
scalar OsgEarthNet.uav[44] utilizationEnergyOverdrawMission 0
scalar OsgEarthNet.uav[44] utilizationEnergyOverdrawMaintenance 0
scalar OsgEarthNet.uav[44] utilizationCountMissions 9
scalar OsgEarthNet.uav[44] utilizationCountManeuversMission 95
scalar OsgEarthNet.uav[44] utilizationCountManeuversMaintenance 18
scalar OsgEarthNet.uav[44] utilizationCountChargeState 9
scalar OsgEarthNet.uav[44] utilizationCountOverdrawnAfterMission 0
scalar OsgEarthNet.uav[44] utilizationCountIdleState 10
scalar OsgEarthNet.uav[44] utilizationFail 0
scalar OsgEarthNet.uav[44] simulationTime 259200
scalar OsgEarthNet.uav[45] utilizationSecMission 443.5870541303
scalar OsgEarthNet.uav[45] utilizationSecMaintenance 125.81102573108
scalar OsgEarthNet.uav[45] utilizationSecCharge 2680
scalar OsgEarthNet.uav[45] utilizationSecIdle 255950.60092014
scalar OsgEarthNet.uav[45] utilizationEnergyMission 1832.7383575439
scalar OsgEarthNet.uav[45] utilizationEnergyMaintenance 617.43027496338
scalar OsgEarthNet.uav[45] utilizationEnergyCharge 2873.2438964844
scalar OsgEarthNet.uav[45] utilizationEnergyOverdrawMission 0
scalar OsgEarthNet.uav[45] utilizationEnergyOverdrawMaintenance 0
scalar OsgEarthNet.uav[45] utilizationCountMissions 1
scalar OsgEarthNet.uav[45] utilizationCountManeuversMission 7
scalar OsgEarthNet.uav[45] utilizationCountManeuversMaintenance 2
scalar OsgEarthNet.uav[45] utilizationCountChargeState 1
scalar OsgEarthNet.uav[45] utilizationCountOverdrawnAfterMission 0
scalar OsgEarthNet.uav[45] utilizationCountIdleState 2
scalar OsgEarthNet.uav[45] utilizationFail 0
scalar OsgEarthNet.uav[45] simulationTime 259200
scalar OsgEarthNet.uav[46] utilizationSecMission 30861.827985106
scalar OsgEarthNet.uav[46] utilizationSecMaintenance 13076.171014894
scalar OsgEarthNet.uav[46] utilizationSecCharge 169960
scalar OsgEarthNet.uav[46] utilizationSecIdle 45302
scalar OsgEarthNet.uav[46] utilizationEnergyMission 143407.74773317
scalar OsgEarthNet.uav[46] utilizationEnergyMaintenance 61844.893230438
scalar OsgEarthNet.uav[46] utilizationEnergyCharge 202639.14135742
scalar OsgEarthNet.uav[46] utilizationEnergyOverdrawMission 0
scalar OsgEarthNet.uav[46] utilizationEnergyOverdrawMaintenance 0
scalar OsgEarthNet.uav[46] utilizationCountMissions 53
scalar OsgEarthNet.uav[46] utilizationCountManeuversMission 501
scalar OsgEarthNet.uav[46] utilizationCountManeuversMaintenance 106
scalar OsgEarthNet.uav[46] utilizationCountChargeState 53
scalar OsgEarthNet.uav[46] utilizationCountOverdrawnAfterMission 0
scalar OsgEarthNet.uav[46] utilizationCountIdleState 54
scalar OsgEarthNet.uav[46] utilizationFail 0
scalar OsgEarthNet.uav[46] simulationTime 259200
scalar OsgEarthNet.uav[47] utilizationSecMission 28021.288022401
scalar OsgEarthNet.uav[47] utilizationSecMaintenance 14336.709470877
scalar OsgEarthNet.uav[47] utilizationSecCharge 164010
scalar OsgEarthNet.uav[47] utilizationSecIdle 52832.001506722
scalar OsgEarthNet.uav[47] utilizationEnergyMission 128433.63050842
scalar OsgEarthNet.uav[47] utilizationEnergyMaintenance 68176.326341234
scalar OsgEarthNet.uav[47] utilizationEnergyCharge 195905.10864258
scalar OsgEarthNet.uav[47] utilizationEnergyOverdrawMission 0
scalar OsgEarthNet.uav[47] utilizationEnergyOverdrawMaintenance 0
scalar OsgEarthNet.uav[47] utilizationCountMissions 51
scalar OsgEarthNet.uav[47] utilizationCountManeuversMission 454
scalar OsgEarthNet.uav[47] utilizationCountManeuversMaintenance 103
scalar OsgEarthNet.uav[47] utilizationCountChargeState 51
scalar OsgEarthNet.uav[47] utilizationCountOverdrawnAfterMission 0
scalar OsgEarthNet.uav[47] utilizationCountIdleState 52
scalar OsgEarthNet.uav[47] utilizationFail 0
scalar OsgEarthNet.uav[47] simulationTime 259200
scalar OsgEarthNet.uav[48] utilizationSecMission 14935.403598627
scalar OsgEarthNet.uav[48] utilizationSecMaintenance 7632.1600320818
scalar OsgEarthNet.uav[48] utilizationSecCharge 89600
scalar OsgEarthNet.uav[48] utilizationSecIdle 147032.43536929
scalar OsgEarthNet.uav[48] utilizationEnergyMission 68431.937286377
scalar OsgEarthNet.uav[48] utilizationEnergyMaintenance 35544.625850677
scalar OsgEarthNet.uav[48] utilizationEnergyCharge 104719.02026367
scalar OsgEarthNet.uav[48] utilizationEnergyOverdrawMission 0
scalar OsgEarthNet.uav[48] utilizationEnergyOverdrawMaintenance 0
scalar OsgEarthNet.uav[48] utilizationCountMissions 29
scalar OsgEarthNet.uav[48] utilizationCountManeuversMission 249
scalar OsgEarthNet.uav[48] utilizationCountManeuversMaintenance 58
scalar OsgEarthNet.uav[48] utilizationCountChargeState 29
scalar OsgEarthNet.uav[48] utilizationCountOverdrawnAfterMission 0
scalar OsgEarthNet.uav[48] utilizationCountIdleState 30
scalar OsgEarthNet.uav[48] utilizationFail 0
scalar OsgEarthNet.uav[48] simulationTime 259200
scalar OsgEarthNet.uav[49] utilizationSecMission 750.20472747826
scalar OsgEarthNet.uav[49] utilizationSecMaintenance 261.68051383311
scalar OsgEarthNet.uav[49] utilizationSecCharge 3680
scalar OsgEarthNet.uav[49] utilizationSecIdle 254508.11375869
scalar OsgEarthNet.uav[49] utilizationEnergyMission 3397.0458679199
scalar OsgEarthNet.uav[49] utilizationEnergyMaintenance 1219.3676567078
scalar OsgEarthNet.uav[49] utilizationEnergyCharge 4616.41796875
scalar OsgEarthNet.uav[49] utilizationEnergyOverdrawMission 0
scalar OsgEarthNet.uav[49] utilizationEnergyOverdrawMaintenance 0
scalar OsgEarthNet.uav[49] utilizationCountMissions 1
scalar OsgEarthNet.uav[49] utilizationCountManeuversMission 11
scalar OsgEarthNet.uav[49] utilizationCountManeuversMaintenance 2
scalar OsgEarthNet.uav[49] utilizationCountChargeState 1
scalar OsgEarthNet.uav[49] utilizationCountOverdrawnAfterMission 0
scalar OsgEarthNet.uav[49] utilizationCountIdleState 2
scalar OsgEarthNet.uav[49] utilizationFail 0
scalar OsgEarthNet.uav[49] simulationTime 259200
scalar OsgEarthNet.uav[50] utilizationSecMission 760.62515258028
scalar OsgEarthNet.uav[50] utilizationSecMaintenance 245.74410321072
scalar OsgEarthNet.uav[50] utilizationSecCharge 3680
scalar OsgEarthNet.uav[50] utilizationSecIdle 254513.62974421
scalar OsgEarthNet.uav[50] utilizationEnergyMission 3440.37159729
scalar OsgEarthNet.uav[50] utilizationEnergyMaintenance 1235.638469696
scalar OsgEarthNet.uav[50] utilizationEnergyCharge 4676.0112304688
scalar OsgEarthNet.uav[50] utilizationEnergyOverdrawMission 0
scalar OsgEarthNet.uav[50] utilizationEnergyOverdrawMaintenance 0
scalar OsgEarthNet.uav[50] utilizationCountMissions 1
scalar OsgEarthNet.uav[50] utilizationCountManeuversMission 12
scalar OsgEarthNet.uav[50] utilizationCountManeuversMaintenance 2
scalar OsgEarthNet.uav[50] utilizationCountChargeState 1
scalar OsgEarthNet.uav[50] utilizationCountOverdrawnAfterMission 0
scalar OsgEarthNet.uav[50] utilizationCountIdleState 2
scalar OsgEarthNet.uav[50] utilizationFail 0
scalar OsgEarthNet.uav[50] simulationTime 259200
scalar OsgEarthNet.uav[51] utilizationSecMission 19687.780147168
scalar OsgEarthNet.uav[51] utilizationSecMaintenance 12474.057321312
scalar OsgEarthNet.uav[51] utilizationSecCharge 130270
scalar OsgEarthNet.uav[51] utilizationSecIdle 96768.161531519
scalar OsgEarthNet.uav[51] utilizationEnergyMission 91833.298690796
scalar OsgEarthNet.uav[51] utilizationEnergyMaintenance 59198.107192993
scalar OsgEarthNet.uav[51] utilizationEnergyCharge 151346.47631836
scalar OsgEarthNet.uav[51] utilizationEnergyOverdrawMission 0
scalar OsgEarthNet.uav[51] utilizationEnergyOverdrawMaintenance 0
scalar OsgEarthNet.uav[51] utilizationCountMissions 43
scalar OsgEarthNet.uav[51] utilizationCountManeuversMission 318
scalar OsgEarthNet.uav[51] utilizationCountManeuversMaintenance 86
scalar OsgEarthNet.uav[51] utilizationCountChargeState 43
scalar OsgEarthNet.uav[51] utilizationCountOverdrawnAfterMission 0
scalar OsgEarthNet.uav[51] utilizationCountIdleState 44
scalar OsgEarthNet.uav[51] utilizationFail 0
scalar OsgEarthNet.uav[51] simulationTime 259200
scalar OsgEarthNet.uav[52] utilizationSecMission 694.00169469977
scalar OsgEarthNet.uav[52] utilizationSecMaintenance 229.48898285212
scalar OsgEarthNet.uav[52] utilizationSecCharge 3490
scalar OsgEarthNet.uav[52] utilizationSecIdle 254786.50832245
scalar OsgEarthNet.uav[52] utilizationEnergyMission 3237.1372680664
scalar OsgEarthNet.uav[52] utilizationEnergyMaintenance 1167.1952133179
scalar OsgEarthNet.uav[52] utilizationEnergyCharge 4318.4848632812
scalar OsgEarthNet.uav[52] utilizationEnergyOverdrawMission 0
scalar OsgEarthNet.uav[52] utilizationEnergyOverdrawMaintenance 0
scalar OsgEarthNet.uav[52] utilizationCountMissions 1
scalar OsgEarthNet.uav[52] utilizationCountManeuversMission 13
scalar OsgEarthNet.uav[52] utilizationCountManeuversMaintenance 2
scalar OsgEarthNet.uav[52] utilizationCountChargeState 1
scalar OsgEarthNet.uav[52] utilizationCountOverdrawnAfterMission 0
scalar OsgEarthNet.uav[52] utilizationCountIdleState 2
scalar OsgEarthNet.uav[52] utilizationFail 0
scalar OsgEarthNet.uav[52] simulationTime 259200
scalar OsgEarthNet.uav[53] utilizationSecMission 1264.9904071486
scalar OsgEarthNet.uav[53] utilizationSecMaintenance 495.84350205278
scalar OsgEarthNet.uav[53] utilizationSecCharge 6940
scalar OsgEarthNet.uav[53] utilizationSecIdle 250499.1650908
scalar OsgEarthNet.uav[53] utilizationEnergyMission 6061.2160186768
scalar OsgEarthNet.uav[53] utilizationEnergyMaintenance 2499.0761032105
scalar OsgEarthNet.uav[53] utilizationEnergyCharge 8560.642578125
scalar OsgEarthNet.uav[53] utilizationEnergyOverdrawMission 0
scalar OsgEarthNet.uav[53] utilizationEnergyOverdrawMaintenance 0
scalar OsgEarthNet.uav[53] utilizationCountMissions 2
scalar OsgEarthNet.uav[53] utilizationCountManeuversMission 21
scalar OsgEarthNet.uav[53] utilizationCountManeuversMaintenance 4
scalar OsgEarthNet.uav[53] utilizationCountChargeState 2
scalar OsgEarthNet.uav[53] utilizationCountOverdrawnAfterMission 0
scalar OsgEarthNet.uav[53] utilizationCountIdleState 3
scalar OsgEarthNet.uav[53] utilizationFail 0
scalar OsgEarthNet.uav[53] simulationTime 259200
scalar OsgEarthNet.uav[54] utilizationSecMission 24746.696889785
scalar OsgEarthNet.uav[54] utilizationSecMaintenance 15835.302478877
scalar OsgEarthNet.uav[54] utilizationSecCharge 158714.33145335
scalar OsgEarthNet.uav[54] utilizationSecIdle 59903.668177988
scalar OsgEarthNet.uav[54] utilizationEnergyMission 111850.93534851
scalar OsgEarthNet.uav[54] utilizationEnergyMaintenance 73772.416057587
scalar OsgEarthNet.uav[54] utilizationEnergyCharge 184735.26318359
scalar OsgEarthNet.uav[54] utilizationEnergyOverdrawMission 0
scalar OsgEarthNet.uav[54] utilizationEnergyOverdrawMaintenance 0
scalar OsgEarthNet.uav[54] utilizationCountMissions 53
scalar OsgEarthNet.uav[54] utilizationCountManeuversMission 411
scalar OsgEarthNet.uav[54] utilizationCountManeuversMaintenance 106
scalar OsgEarthNet.uav[54] utilizationCountChargeState 53
scalar OsgEarthNet.uav[54] utilizationCountOverdrawnAfterMission 0
scalar OsgEarthNet.uav[54] utilizationCountIdleState 53
scalar OsgEarthNet.uav[54] utilizationFail 0
scalar OsgEarthNet.uav[54] simulationTime 259200
scalar OsgEarthNet.uav[55] utilizationSecMission 21323.032541373
scalar OsgEarthNet.uav[55] utilizationSecMaintenance 10113.77602321
scalar OsgEarthNet.uav[55] utilizationSecCharge 121490
scalar OsgEarthNet.uav[55] utilizationSecIdle 106273.19043542
scalar OsgEarthNet.uav[55] utilizationEnergyMission 99338.651298523
scalar OsgEarthNet.uav[55] utilizationEnergyMaintenance 47004.939823151
scalar OsgEarthNet.uav[55] utilizationEnergyCharge 146030.21118164
scalar OsgEarthNet.uav[55] utilizationEnergyOverdrawMission 0
scalar OsgEarthNet.uav[55] utilizationEnergyOverdrawMaintenance 0
scalar OsgEarthNet.uav[55] utilizationCountMissions 37
scalar OsgEarthNet.uav[55] utilizationCountManeuversMission 334
scalar OsgEarthNet.uav[55] utilizationCountManeuversMaintenance 74
scalar OsgEarthNet.uav[55] utilizationCountChargeState 37
scalar OsgEarthNet.uav[55] utilizationCountOverdrawnAfterMission 0
scalar OsgEarthNet.uav[55] utilizationCountIdleState 38
scalar OsgEarthNet.uav[55] utilizationFail 0
scalar OsgEarthNet.uav[55] simulationTime 259200
scalar OsgEarthNet.uav[56] utilizationSecMission 570.98871244881
scalar OsgEarthNet.uav[56] utilizationSecMaintenance 276.2282017063
scalar OsgEarthNet.uav[56] utilizationSecCharge 3510
scalar OsgEarthNet.uav[56] utilizationSecIdle 254842.78208584
scalar OsgEarthNet.uav[56] utilizationEnergyMission 3032.1454925537
scalar OsgEarthNet.uav[56] utilizationEnergyMaintenance 1314.9861869812
scalar OsgEarthNet.uav[56] utilizationEnergyCharge 4347.134765625
scalar OsgEarthNet.uav[56] utilizationEnergyOverdrawMission 0
scalar OsgEarthNet.uav[56] utilizationEnergyOverdrawMaintenance 0
scalar OsgEarthNet.uav[56] utilizationCountMissions 1
scalar OsgEarthNet.uav[56] utilizationCountManeuversMission 8
scalar OsgEarthNet.uav[56] utilizationCountManeuversMaintenance 2
scalar OsgEarthNet.uav[56] utilizationCountChargeState 1
scalar OsgEarthNet.uav[56] utilizationCountOverdrawnAfterMission 0
scalar OsgEarthNet.uav[56] utilizationCountIdleState 2
scalar OsgEarthNet.uav[56] utilizationFail 0
scalar OsgEarthNet.uav[56] simulationTime 259200
scalar OsgEarthNet.uav[57] utilizationSecMission 17127.625976878
scalar OsgEarthNet.uav[57] utilizationSecMaintenance 7283.9723244989
scalar OsgEarthNet.uav[57] utilizationSecCharge 94636.077010481
scalar OsgEarthNet.uav[57] utilizationSecIdle 140152.32368814
scalar OsgEarthNet.uav[57] utilizationEnergyMission 78571.014923096
scalar OsgEarthNet.uav[57] utilizationEnergyMaintenance 35117.257656097
scalar OsgEarthNet.uav[57] utilizationEnergyCharge 112043.11206055
scalar OsgEarthNet.uav[57] utilizationEnergyOverdrawMission 0
scalar OsgEarthNet.uav[57] utilizationEnergyOverdrawMaintenance 0
scalar OsgEarthNet.uav[57] utilizationCountMissions 31
scalar OsgEarthNet.uav[57] utilizationCountManeuversMission 280
scalar OsgEarthNet.uav[57] utilizationCountManeuversMaintenance 62
scalar OsgEarthNet.uav[57] utilizationCountChargeState 31
scalar OsgEarthNet.uav[57] utilizationCountOverdrawnAfterMission 0
scalar OsgEarthNet.uav[57] utilizationCountIdleState 31
scalar OsgEarthNet.uav[57] utilizationFail 0
scalar OsgEarthNet.uav[57] simulationTime 259200
scalar OsgEarthNet.uav[58] utilizationSecMission 23910.00899296
scalar OsgEarthNet.uav[58] utilizationSecMaintenance 14504.46652263
scalar OsgEarthNet.uav[58] utilizationSecCharge 149391.22209111
scalar OsgEarthNet.uav[58] utilizationSecIdle 71394.301393304
scalar OsgEarthNet.uav[58] utilizationEnergyMission 110400.18930817
scalar OsgEarthNet.uav[58] utilizationEnergyMaintenance 68553.099536896
scalar OsgEarthNet.uav[58] utilizationEnergyCharge 175769.64831543
scalar OsgEarthNet.uav[58] utilizationEnergyOverdrawMission 0
scalar OsgEarthNet.uav[58] utilizationEnergyOverdrawMaintenance 0
scalar OsgEarthNet.uav[58] utilizationCountMissions 49
scalar OsgEarthNet.uav[58] utilizationCountManeuversMission 382
scalar OsgEarthNet.uav[58] utilizationCountManeuversMaintenance 98
scalar OsgEarthNet.uav[58] utilizationCountChargeState 49
scalar OsgEarthNet.uav[58] utilizationCountOverdrawnAfterMission 0
scalar OsgEarthNet.uav[58] utilizationCountIdleState 49
scalar OsgEarthNet.uav[58] utilizationFail 0
scalar OsgEarthNet.uav[58] simulationTime 259200
scalar OsgEarthNet.uav[59] utilizationSecMission 29590.9214506
scalar OsgEarthNet.uav[59] utilizationSecMaintenance 12143.538836767
scalar OsgEarthNet.uav[59] utilizationSecCharge 158849.36564597
scalar OsgEarthNet.uav[59] utilizationSecIdle 58616.173066668
scalar OsgEarthNet.uav[59] utilizationEnergyMission 135087.2972641
scalar OsgEarthNet.uav[59] utilizationEnergyMaintenance 56422.62833786
scalar OsgEarthNet.uav[59] utilizationEnergyCharge 191084.2199707
scalar OsgEarthNet.uav[59] utilizationEnergyOverdrawMission 0
scalar OsgEarthNet.uav[59] utilizationEnergyOverdrawMaintenance 0
scalar OsgEarthNet.uav[59] utilizationCountMissions 49
scalar OsgEarthNet.uav[59] utilizationCountManeuversMission 491
scalar OsgEarthNet.uav[59] utilizationCountManeuversMaintenance 98
scalar OsgEarthNet.uav[59] utilizationCountChargeState 49
scalar OsgEarthNet.uav[59] utilizationCountOverdrawnAfterMission 0
scalar OsgEarthNet.uav[59] utilizationCountIdleState 49
scalar OsgEarthNet.uav[59] utilizationFail 0
scalar OsgEarthNet.uav[59] simulationTime 259200
scalar OsgEarthNet.uav[60] utilizationSecMission 443.5870541303
scalar OsgEarthNet.uav[60] utilizationSecMaintenance 425.80795651079
scalar OsgEarthNet.uav[60] utilizationSecCharge 3410
scalar OsgEarthNet.uav[60] utilizationSecIdle 254920.60398936
scalar OsgEarthNet.uav[60] utilizationEnergyMission 2209.6378936768
scalar OsgEarthNet.uav[60] utilizationEnergyMaintenance 1890.8549766541
scalar OsgEarthNet.uav[60] utilizationEnergyCharge 4121.9047851562
scalar OsgEarthNet.uav[60] utilizationEnergyOverdrawMission 0
scalar OsgEarthNet.uav[60] utilizationEnergyOverdrawMaintenance 0
scalar OsgEarthNet.uav[60] utilizationCountMissions 1
scalar OsgEarthNet.uav[60] utilizationCountManeuversMission 7
scalar OsgEarthNet.uav[60] utilizationCountManeuversMaintenance 2
scalar OsgEarthNet.uav[60] utilizationCountChargeState 1
scalar OsgEarthNet.uav[60] utilizationCountOverdrawnAfterMission 0
scalar OsgEarthNet.uav[60] utilizationCountIdleState 2
scalar OsgEarthNet.uav[60] utilizationFail 0
scalar OsgEarthNet.uav[60] simulationTime 259200
scalar OsgEarthNet.uav[61] utilizationSecMission 26531.451519926
scalar OsgEarthNet.uav[61] utilizationSecMaintenance 13538.710473052
scalar OsgEarthNet.uav[61] utilizationSecCharge 154243.86541504
scalar OsgEarthNet.uav[61] utilizationSecIdle 64885.971591986
scalar OsgEarthNet.uav[61] utilizationEnergyMission 121849.0631218
scalar OsgEarthNet.uav[61] utilizationEnergyMaintenance 62853.43580246
scalar OsgEarthNet.uav[61] utilizationEnergyCharge 184736.92163086
scalar OsgEarthNet.uav[61] utilizationEnergyOverdrawMission 0
scalar OsgEarthNet.uav[61] utilizationEnergyOverdrawMaintenance 0
scalar OsgEarthNet.uav[61] utilizationCountMissions 48
scalar OsgEarthNet.uav[61] utilizationCountManeuversMission 427
scalar OsgEarthNet.uav[61] utilizationCountManeuversMaintenance 96
scalar OsgEarthNet.uav[61] utilizationCountChargeState 48
scalar OsgEarthNet.uav[61] utilizationCountOverdrawnAfterMission 0
scalar OsgEarthNet.uav[61] utilizationCountIdleState 48
scalar OsgEarthNet.uav[61] utilizationFail 0
scalar OsgEarthNet.uav[61] simulationTime 259200
scalar OsgEarthNet.uav[62] utilizationSecMission 26799.842540293
scalar OsgEarthNet.uav[62] utilizationSecMaintenance 12767.392565257
scalar OsgEarthNet.uav[62] utilizationSecCharge 153212.75850857
scalar OsgEarthNet.uav[62] utilizationSecIdle 66420.005385884
scalar OsgEarthNet.uav[62] utilizationEnergyMission 126046.68339539
scalar OsgEarthNet.uav[62] utilizationEnergyMaintenance 59232.766586304
scalar OsgEarthNet.uav[62] utilizationEnergyCharge 184365.21435547
scalar OsgEarthNet.uav[62] utilizationEnergyOverdrawMission 0
scalar OsgEarthNet.uav[62] utilizationEnergyOverdrawMaintenance 0
scalar OsgEarthNet.uav[62] utilizationCountMissions 48
scalar OsgEarthNet.uav[62] utilizationCountManeuversMission 435
scalar OsgEarthNet.uav[62] utilizationCountManeuversMaintenance 96
scalar OsgEarthNet.uav[62] utilizationCountChargeState 48
scalar OsgEarthNet.uav[62] utilizationCountOverdrawnAfterMission 0
scalar OsgEarthNet.uav[62] utilizationCountIdleState 48
scalar OsgEarthNet.uav[62] utilizationFail 0
scalar OsgEarthNet.uav[62] simulationTime 259200
scalar OsgEarthNet.uav[63] utilizationSecMission 5394.5333020865
scalar OsgEarthNet.uav[63] utilizationSecMaintenance 2542.7696937913
scalar OsgEarthNet.uav[63] utilizationSecCharge 31320
scalar OsgEarthNet.uav[63] utilizationSecIdle 219942.69600412
scalar OsgEarthNet.uav[63] utilizationEnergyMission 24709.778549194
scalar OsgEarthNet.uav[63] utilizationEnergyMaintenance 12082.845767975
scalar OsgEarthNet.uav[63] utilizationEnergyCharge 36812.053955078
scalar OsgEarthNet.uav[63] utilizationEnergyOverdrawMission 0
scalar OsgEarthNet.uav[63] utilizationEnergyOverdrawMaintenance 0
scalar OsgEarthNet.uav[63] utilizationCountMissions 10
scalar OsgEarthNet.uav[63] utilizationCountManeuversMission 87
scalar OsgEarthNet.uav[63] utilizationCountManeuversMaintenance 20
scalar OsgEarthNet.uav[63] utilizationCountChargeState 10
scalar OsgEarthNet.uav[63] utilizationCountOverdrawnAfterMission 0
scalar OsgEarthNet.uav[63] utilizationCountIdleState 11
scalar OsgEarthNet.uav[63] utilizationFail 0
scalar OsgEarthNet.uav[63] simulationTime 259200
scalar OsgEarthNet.uav[64] utilizationSecMission 25265.706241808
scalar OsgEarthNet.uav[64] utilizationSecMaintenance 15196.411830028
scalar OsgEarthNet.uav[64] utilizationSecCharge 161790
scalar OsgEarthNet.uav[64] utilizationSecIdle 56947.880928164
scalar OsgEarthNet.uav[64] utilizationEnergyMission 116592.17916489
scalar OsgEarthNet.uav[64] utilizationEnergyMaintenance 71995.333122253
scalar OsgEarthNet.uav[64] utilizationEnergyCharge 188079.55151367
scalar OsgEarthNet.uav[64] utilizationEnergyOverdrawMission 0
scalar OsgEarthNet.uav[64] utilizationEnergyOverdrawMaintenance 0
scalar OsgEarthNet.uav[64] utilizationCountMissions 53
scalar OsgEarthNet.uav[64] utilizationCountManeuversMission 423
scalar OsgEarthNet.uav[64] utilizationCountManeuversMaintenance 106
scalar OsgEarthNet.uav[64] utilizationCountChargeState 53
scalar OsgEarthNet.uav[64] utilizationCountOverdrawnAfterMission 0
scalar OsgEarthNet.uav[64] utilizationCountIdleState 54
scalar OsgEarthNet.uav[64] utilizationFail 0
scalar OsgEarthNet.uav[64] simulationTime 259200
scalar OsgEarthNet.uav[65] utilizationSecMission 24349.076654014
scalar OsgEarthNet.uav[65] utilizationSecMaintenance 11220.588326084
scalar OsgEarthNet.uav[65] utilizationSecCharge 138590
scalar OsgEarthNet.uav[65] utilizationSecIdle 85040.334019902
[...]
scalar OsgEarthNet.uav[82] utilizationSecIdle 55436.036098769
scalar OsgEarthNet.uav[82] utilizationEnergyMission 145859.52859116
scalar OsgEarthNet.uav[82] utilizationEnergyMaintenance 49407.353797913
scalar OsgEarthNet.uav[82] utilizationEnergyCharge 191634.58093262
scalar OsgEarthNet.uav[82] utilizationEnergyOverdrawMission 0
scalar OsgEarthNet.uav[82] utilizationEnergyOverdrawMaintenance 0
scalar OsgEarthNet.uav[82] utilizationCountMissions 52
scalar OsgEarthNet.uav[82] utilizationCountManeuversMission 518
scalar OsgEarthNet.uav[82] utilizationCountManeuversMaintenance 104
scalar OsgEarthNet.uav[82] utilizationCountChargeState 52
scalar OsgEarthNet.uav[82] utilizationCountOverdrawnAfterMission 0
scalar OsgEarthNet.uav[82] utilizationCountIdleState 52
scalar OsgEarthNet.uav[82] utilizationFail 0
scalar OsgEarthNet.uav[82] simulationTime 259200
scalar OsgEarthNet.uav[83] utilizationSecMission 27527.678952179
scalar OsgEarthNet.uav[83] utilizationSecMaintenance 16375.794291425
scalar OsgEarthNet.uav[83] utilizationSecCharge 170774.5257564
scalar OsgEarthNet.uav[83] utilizationSecIdle 44522
scalar OsgEarthNet.uav[83] utilizationEnergyMission 126498.01044464
scalar OsgEarthNet.uav[83] utilizationEnergyMaintenance 77039.147632599
scalar OsgEarthNet.uav[83] utilizationEnergyCharge 200363.57202148
scalar OsgEarthNet.uav[83] utilizationEnergyOverdrawMission 0
scalar OsgEarthNet.uav[83] utilizationEnergyOverdrawMaintenance 0
scalar OsgEarthNet.uav[83] utilizationCountMissions 56
scalar OsgEarthNet.uav[83] utilizationCountManeuversMission 453
scalar OsgEarthNet.uav[83] utilizationCountManeuversMaintenance 111
scalar OsgEarthNet.uav[83] utilizationCountChargeState 56
scalar OsgEarthNet.uav[83] utilizationCountOverdrawnAfterMission 0
scalar OsgEarthNet.uav[83] utilizationCountIdleState 56
scalar OsgEarthNet.uav[83] utilizationFail 0
scalar OsgEarthNet.uav[83] simulationTime 259200
scalar OsgEarthNet.uav[84] utilizationSecMission 23822.557575079
scalar OsgEarthNet.uav[84] utilizationSecMaintenance 13501.608089927
scalar OsgEarthNet.uav[84] utilizationSecCharge 146894.7755398
scalar OsgEarthNet.uav[84] utilizationSecIdle 74981.057795193
scalar OsgEarthNet.uav[84] utilizationEnergyMission 110375.48635101
scalar OsgEarthNet.uav[84] utilizationEnergyMaintenance 63180.775226593
scalar OsgEarthNet.uav[84] utilizationEnergyCharge 173440.95581055
scalar OsgEarthNet.uav[84] utilizationEnergyOverdrawMission 0
scalar OsgEarthNet.uav[84] utilizationEnergyOverdrawMaintenance 0
scalar OsgEarthNet.uav[84] utilizationCountMissions 47
scalar OsgEarthNet.uav[84] utilizationCountManeuversMission 391
scalar OsgEarthNet.uav[84] utilizationCountManeuversMaintenance 94
scalar OsgEarthNet.uav[84] utilizationCountChargeState 47
scalar OsgEarthNet.uav[84] utilizationCountOverdrawnAfterMission 0
scalar OsgEarthNet.uav[84] utilizationCountIdleState 47
scalar OsgEarthNet.uav[84] utilizationFail 0
scalar OsgEarthNet.uav[84] simulationTime 259200
scalar OsgEarthNet.uav[85] utilizationSecMission 19300.333929651
scalar OsgEarthNet.uav[85] utilizationSecMaintenance 12044.062439024
scalar OsgEarthNet.uav[85] utilizationSecCharge 122072.00493916
scalar OsgEarthNet.uav[85] utilizationSecIdle 105783.59769217
scalar OsgEarthNet.uav[85] utilizationEnergyMission 88605.171363831
scalar OsgEarthNet.uav[85] utilizationEnergyMaintenance 56261.689601898
scalar OsgEarthNet.uav[85] utilizationEnergyCharge 143848.45483398
scalar OsgEarthNet.uav[85] utilizationEnergyOverdrawMission 0
scalar OsgEarthNet.uav[85] utilizationEnergyOverdrawMaintenance 0
scalar OsgEarthNet.uav[85] utilizationCountMissions 40
scalar OsgEarthNet.uav[85] utilizationCountManeuversMission 312
scalar OsgEarthNet.uav[85] utilizationCountManeuversMaintenance 80
scalar OsgEarthNet.uav[85] utilizationCountChargeState 40
scalar OsgEarthNet.uav[85] utilizationCountOverdrawnAfterMission 0
scalar OsgEarthNet.uav[85] utilizationCountIdleState 40
scalar OsgEarthNet.uav[85] utilizationFail 0
scalar OsgEarthNet.uav[85] simulationTime 259200
scalar OsgEarthNet.uav[86] utilizationSecMission 1271.4184576663
scalar OsgEarthNet.uav[86] utilizationSecMaintenance 713.59125977256
scalar OsgEarthNet.uav[86] utilizationSecCharge 7640
scalar OsgEarthNet.uav[86] utilizationSecIdle 249574.98928256
scalar OsgEarthNet.uav[86] utilizationEnergyMission 6396.2589263916
scalar OsgEarthNet.uav[86] utilizationEnergyMaintenance 3317.7219772339
scalar OsgEarthNet.uav[86] utilizationEnergyCharge 9713.9848632812
scalar OsgEarthNet.uav[86] utilizationEnergyOverdrawMission 0
scalar OsgEarthNet.uav[86] utilizationEnergyOverdrawMaintenance 0
scalar OsgEarthNet.uav[86] utilizationCountMissions 2
scalar OsgEarthNet.uav[86] utilizationCountManeuversMission 21
scalar OsgEarthNet.uav[86] utilizationCountManeuversMaintenance 4
scalar OsgEarthNet.uav[86] utilizationCountChargeState 2
scalar OsgEarthNet.uav[86] utilizationCountOverdrawnAfterMission 0
scalar OsgEarthNet.uav[86] utilizationCountIdleState 3
scalar OsgEarthNet.uav[86] utilizationFail 0
scalar OsgEarthNet.uav[86] simulationTime 259200
scalar OsgEarthNet.uav[87] utilizationSecMission 16705.652222748
scalar OsgEarthNet.uav[87] utilizationSecMaintenance 6770.5777167058
scalar OsgEarthNet.uav[87] utilizationSecCharge 90689.778701138
scalar OsgEarthNet.uav[87] utilizationSecIdle 145033.99035941
scalar OsgEarthNet.uav[87] utilizationEnergyMission 76970.27596283
scalar OsgEarthNet.uav[87] utilizationEnergyMaintenance 31838.2967453
scalar OsgEarthNet.uav[87] utilizationEnergyCharge 108378.73706055
scalar OsgEarthNet.uav[87] utilizationEnergyOverdrawMission 0
scalar OsgEarthNet.uav[87] utilizationEnergyOverdrawMaintenance 0
scalar OsgEarthNet.uav[87] utilizationCountMissions 29
scalar OsgEarthNet.uav[87] utilizationCountManeuversMission 283
scalar OsgEarthNet.uav[87] utilizationCountManeuversMaintenance 58
scalar OsgEarthNet.uav[87] utilizationCountChargeState 29
scalar OsgEarthNet.uav[87] utilizationCountOverdrawnAfterMission 0
scalar OsgEarthNet.uav[87] utilizationCountIdleState 29
scalar OsgEarthNet.uav[87] utilizationFail 0
scalar OsgEarthNet.uav[87] simulationTime 259200
scalar OsgEarthNet.uav[88] utilizationSecMission 443.5870541303
scalar OsgEarthNet.uav[88] utilizationSecMaintenance 125.81102573108
scalar OsgEarthNet.uav[88] utilizationSecCharge 2440
scalar OsgEarthNet.uav[88] utilizationSecIdle 256190.60092014
scalar OsgEarthNet.uav[88] utilizationEnergyMission 2084.4217987061
scalar OsgEarthNet.uav[88] utilizationEnergyMaintenance 537.09380340576
scalar OsgEarthNet.uav[88] utilizationEnergyCharge 2502.6025390625
scalar OsgEarthNet.uav[88] utilizationEnergyOverdrawMission 0
scalar OsgEarthNet.uav[88] utilizationEnergyOverdrawMaintenance 0
scalar OsgEarthNet.uav[88] utilizationCountMissions 1
scalar OsgEarthNet.uav[88] utilizationCountManeuversMission 7
scalar OsgEarthNet.uav[88] utilizationCountManeuversMaintenance 2
scalar OsgEarthNet.uav[88] utilizationCountChargeState 1
scalar OsgEarthNet.uav[88] utilizationCountOverdrawnAfterMission 0
scalar OsgEarthNet.uav[88] utilizationCountIdleState 2
scalar OsgEarthNet.uav[88] utilizationFail 0
scalar OsgEarthNet.uav[88] simulationTime 259200
scalar OsgEarthNet.uav[89] utilizationSecMission 28708.275836977
scalar OsgEarthNet.uav[89] utilizationSecMaintenance 13878.678206742
scalar OsgEarthNet.uav[89] utilizationSecCharge 165757.49804702
scalar OsgEarthNet.uav[89] utilizationSecIdle 50855.546909258
scalar OsgEarthNet.uav[89] utilizationEnergyMission 133746.50309753
scalar OsgEarthNet.uav[89] utilizationEnergyMaintenance 64639.284915924
scalar OsgEarthNet.uav[89] utilizationEnergyCharge 197671.80761719
scalar OsgEarthNet.uav[89] utilizationEnergyOverdrawMission 0
scalar OsgEarthNet.uav[89] utilizationEnergyOverdrawMaintenance 0
scalar OsgEarthNet.uav[89] utilizationCountMissions 52
scalar OsgEarthNet.uav[89] utilizationCountManeuversMission 461
scalar OsgEarthNet.uav[89] utilizationCountManeuversMaintenance 104
scalar OsgEarthNet.uav[89] utilizationCountChargeState 52
scalar OsgEarthNet.uav[89] utilizationCountOverdrawnAfterMission 0
scalar OsgEarthNet.uav[89] utilizationCountIdleState 52
scalar OsgEarthNet.uav[89] utilizationFail 0
scalar OsgEarthNet.uav[89] simulationTime 259200
scalar OsgEarthNet.uav[90] utilizationSecMission 443.5870541303
scalar OsgEarthNet.uav[90] utilizationSecMaintenance 425.80795651079
scalar OsgEarthNet.uav[90] utilizationSecCharge 3200
scalar OsgEarthNet.uav[90] utilizationSecIdle 255130.60398936
scalar OsgEarthNet.uav[90] utilizationEnergyMission 2079.2285766602
scalar OsgEarthNet.uav[90] utilizationEnergyMaintenance 1820.3506126404
scalar OsgEarthNet.uav[90] utilizationEnergyCharge 3795.5961914062
scalar OsgEarthNet.uav[90] utilizationEnergyOverdrawMission 0
scalar OsgEarthNet.uav[90] utilizationEnergyOverdrawMaintenance 0
scalar OsgEarthNet.uav[90] utilizationCountMissions 1
scalar OsgEarthNet.uav[90] utilizationCountManeuversMission 7
scalar OsgEarthNet.uav[90] utilizationCountManeuversMaintenance 2
scalar OsgEarthNet.uav[90] utilizationCountChargeState 1
scalar OsgEarthNet.uav[90] utilizationCountOverdrawnAfterMission 0
scalar OsgEarthNet.uav[90] utilizationCountIdleState 2
scalar OsgEarthNet.uav[90] utilizationFail 0
scalar OsgEarthNet.uav[90] simulationTime 259200
scalar OsgEarthNet.uav[91] utilizationSecMission 862.16384653305
scalar OsgEarthNet.uav[91] utilizationSecMaintenance 705.09179319862
scalar OsgEarthNet.uav[91] utilizationSecCharge 6330
scalar OsgEarthNet.uav[91] utilizationSecIdle 251302.74336027
scalar OsgEarthNet.uav[91] utilizationEnergyMission 4049.9062194824
scalar OsgEarthNet.uav[91] utilizationEnergyMaintenance 3467.9780921936
scalar OsgEarthNet.uav[91] utilizationEnergyCharge 7517.8776855469
scalar OsgEarthNet.uav[91] utilizationEnergyOverdrawMission 0
scalar OsgEarthNet.uav[91] utilizationEnergyOverdrawMaintenance 0
scalar OsgEarthNet.uav[91] utilizationCountMissions 2
scalar OsgEarthNet.uav[91] utilizationCountManeuversMission 15
scalar OsgEarthNet.uav[91] utilizationCountManeuversMaintenance 4
scalar OsgEarthNet.uav[91] utilizationCountChargeState 2
scalar OsgEarthNet.uav[91] utilizationCountOverdrawnAfterMission 0
scalar OsgEarthNet.uav[91] utilizationCountIdleState 3
scalar OsgEarthNet.uav[91] utilizationFail 0
scalar OsgEarthNet.uav[91] simulationTime 259200
scalar OsgEarthNet.uav[92] utilizationSecMission 28733.279008146
scalar OsgEarthNet.uav[92] utilizationSecMaintenance 14981.060559742
scalar OsgEarthNet.uav[92] utilizationSecCharge 168250
scalar OsgEarthNet.uav[92] utilizationSecIdle 47235.659432111
scalar OsgEarthNet.uav[92] utilizationEnergyMission 133292.28652845
scalar OsgEarthNet.uav[92] utilizationEnergyMaintenance 69577.113960266
scalar OsgEarthNet.uav[92] utilizationEnergyCharge 199314.56298828
scalar OsgEarthNet.uav[92] utilizationEnergyOverdrawMission 0
scalar OsgEarthNet.uav[92] utilizationEnergyOverdrawMaintenance 0
scalar OsgEarthNet.uav[92] utilizationCountMissions 53
scalar OsgEarthNet.uav[92] utilizationCountManeuversMission 467
scalar OsgEarthNet.uav[92] utilizationCountManeuversMaintenance 107
scalar OsgEarthNet.uav[92] utilizationCountChargeState 53
scalar OsgEarthNet.uav[92] utilizationCountOverdrawnAfterMission 0
scalar OsgEarthNet.uav[92] utilizationCountIdleState 54
scalar OsgEarthNet.uav[92] utilizationFail 0
scalar OsgEarthNet.uav[92] simulationTime 259200
scalar OsgEarthNet.uav[93] utilizationSecMission 767.24735950177
scalar OsgEarthNet.uav[93] utilizationSecMaintenance 1460.9141855005
scalar OsgEarthNet.uav[93] utilizationSecCharge 8890
scalar OsgEarthNet.uav[93] utilizationSecIdle 248081.837455
scalar OsgEarthNet.uav[93] utilizationEnergyMission 3531.2107849121
scalar OsgEarthNet.uav[93] utilizationEnergyMaintenance 6624.2740669251
scalar OsgEarthNet.uav[93] utilizationEnergyCharge 10189.09765625
scalar OsgEarthNet.uav[93] utilizationEnergyOverdrawMission 0
scalar OsgEarthNet.uav[93] utilizationEnergyOverdrawMaintenance 0
scalar OsgEarthNet.uav[93] utilizationCountMissions 3
scalar OsgEarthNet.uav[93] utilizationCountManeuversMission 11
scalar OsgEarthNet.uav[93] utilizationCountManeuversMaintenance 6
scalar OsgEarthNet.uav[93] utilizationCountChargeState 3
scalar OsgEarthNet.uav[93] utilizationCountOverdrawnAfterMission 0
scalar OsgEarthNet.uav[93] utilizationCountIdleState 4
scalar OsgEarthNet.uav[93] utilizationFail 0
scalar OsgEarthNet.uav[93] simulationTime 259200
scalar OsgEarthNet.uav[94] utilizationSecMission 9532.942510992
scalar OsgEarthNet.uav[94] utilizationSecMaintenance 6772.347174392
scalar OsgEarthNet.uav[94] utilizationSecCharge 65541.628655456
scalar OsgEarthNet.uav[94] utilizationSecIdle 177353.08065916
scalar OsgEarthNet.uav[94] utilizationEnergyMission 43389.706893921
scalar OsgEarthNet.uav[94] utilizationEnergyMaintenance 31543.481765747
scalar OsgEarthNet.uav[94] utilizationEnergyCharge 74856.452636719
scalar OsgEarthNet.uav[94] utilizationEnergyOverdrawMission 0
scalar OsgEarthNet.uav[94] utilizationEnergyOverdrawMaintenance 0
scalar OsgEarthNet.uav[94] utilizationCountMissions 23
scalar OsgEarthNet.uav[94] utilizationCountManeuversMission 159
scalar OsgEarthNet.uav[94] utilizationCountManeuversMaintenance 46
scalar OsgEarthNet.uav[94] utilizationCountChargeState 23
scalar OsgEarthNet.uav[94] utilizationCountOverdrawnAfterMission 0
scalar OsgEarthNet.uav[94] utilizationCountIdleState 23
scalar OsgEarthNet.uav[94] utilizationFail 0
scalar OsgEarthNet.uav[94] simulationTime 259200
scalar OsgEarthNet.uav[95] utilizationSecMission 22016.344912856
scalar OsgEarthNet.uav[95] utilizationSecMaintenance 13112.146042979
scalar OsgEarthNet.uav[95] utilizationSecCharge 136910
scalar OsgEarthNet.uav[95] utilizationSecIdle 87161.508044165
scalar OsgEarthNet.uav[95] utilizationEnergyMission 100514.64326477
scalar OsgEarthNet.uav[95] utilizationEnergyMaintenance 60750.459072113
scalar OsgEarthNet.uav[95] utilizationEnergyCharge 160901.81835938
scalar OsgEarthNet.uav[95] utilizationEnergyOverdrawMission 0
scalar OsgEarthNet.uav[95] utilizationEnergyOverdrawMaintenance 0
scalar OsgEarthNet.uav[95] utilizationCountMissions 44
scalar OsgEarthNet.uav[95] utilizationCountManeuversMission 353
scalar OsgEarthNet.uav[95] utilizationCountManeuversMaintenance 88
scalar OsgEarthNet.uav[95] utilizationCountChargeState 44
scalar OsgEarthNet.uav[95] utilizationCountOverdrawnAfterMission 0
scalar OsgEarthNet.uav[95] utilizationCountIdleState 45
scalar OsgEarthNet.uav[95] utilizationFail 0
scalar OsgEarthNet.uav[95] simulationTime 259200
scalar OsgEarthNet.uav[96] utilizationSecMission 8567.420038886
scalar OsgEarthNet.uav[96] utilizationSecMaintenance 3631.0942886381
scalar OsgEarthNet.uav[96] utilizationSecCharge 48220
scalar OsgEarthNet.uav[96] utilizationSecIdle 198781.48467248
scalar OsgEarthNet.uav[96] utilizationEnergyMission 40235.841545105
scalar OsgEarthNet.uav[96] utilizationEnergyMaintenance 17943.468605042
scalar OsgEarthNet.uav[96] utilizationEnergyCharge 57640.494873047
scalar OsgEarthNet.uav[96] utilizationEnergyOverdrawMission 0
scalar OsgEarthNet.uav[96] utilizationEnergyOverdrawMaintenance 0
scalar OsgEarthNet.uav[96] utilizationCountMissions 15
scalar OsgEarthNet.uav[96] utilizationCountManeuversMission 144
scalar OsgEarthNet.uav[96] utilizationCountManeuversMaintenance 30
scalar OsgEarthNet.uav[96] utilizationCountChargeState 15
scalar OsgEarthNet.uav[96] utilizationCountOverdrawnAfterMission 0
scalar OsgEarthNet.uav[96] utilizationCountIdleState 16
scalar OsgEarthNet.uav[96] utilizationFail 0
scalar OsgEarthNet.uav[96] simulationTime 259200
scalar OsgEarthNet.uav[97] utilizationSecMission 10420.934298359
scalar OsgEarthNet.uav[97] utilizationSecMaintenance 6028.7222460759
scalar OsgEarthNet.uav[97] utilizationSecCharge 62330
scalar OsgEarthNet.uav[97] utilizationSecIdle 180420.34245557
scalar OsgEarthNet.uav[97] utilizationEnergyMission 47627.935481603
scalar OsgEarthNet.uav[97] utilizationEnergyMaintenance 28351.113735199
scalar OsgEarthNet.uav[97] utilizationEnergyCharge 73207.085449219
scalar OsgEarthNet.uav[97] utilizationEnergyOverdrawMission 0
scalar OsgEarthNet.uav[97] utilizationEnergyOverdrawMaintenance 0
scalar OsgEarthNet.uav[97] utilizationCountMissions 20
scalar OsgEarthNet.uav[97] utilizationCountManeuversMission 170
scalar OsgEarthNet.uav[97] utilizationCountManeuversMaintenance 41
scalar OsgEarthNet.uav[97] utilizationCountChargeState 20
scalar OsgEarthNet.uav[97] utilizationCountOverdrawnAfterMission 0
scalar OsgEarthNet.uav[97] utilizationCountIdleState 21
scalar OsgEarthNet.uav[97] utilizationFail 0
scalar OsgEarthNet.uav[97] simulationTime 259200
scalar OsgEarthNet.uav[98] utilizationSecMission 4962.1610632347
scalar OsgEarthNet.uav[98] utilizationSecMaintenance 5847.5893547279
scalar OsgEarthNet.uav[98] utilizationSecCharge 42760
scalar OsgEarthNet.uav[98] utilizationSecIdle 205630.24858204
scalar OsgEarthNet.uav[98] utilizationEnergyMission 22554.071609497
scalar OsgEarthNet.uav[98] utilizationEnergyMaintenance 27286.71868515
scalar OsgEarthNet.uav[98] utilizationEnergyCharge 49947.384033203
scalar OsgEarthNet.uav[98] utilizationEnergyOverdrawMission 0
scalar OsgEarthNet.uav[98] utilizationEnergyOverdrawMaintenance 0
scalar OsgEarthNet.uav[98] utilizationCountMissions 14
scalar OsgEarthNet.uav[98] utilizationCountManeuversMission 82
scalar OsgEarthNet.uav[98] utilizationCountManeuversMaintenance 28
scalar OsgEarthNet.uav[98] utilizationCountChargeState 14
scalar OsgEarthNet.uav[98] utilizationCountOverdrawnAfterMission 0
scalar OsgEarthNet.uav[98] utilizationCountIdleState 15
scalar OsgEarthNet.uav[98] utilizationFail 0
scalar OsgEarthNet.uav[98] simulationTime 259200
scalar OsgEarthNet.uav[99] utilizationSecMission 21248.455376942
scalar OsgEarthNet.uav[99] utilizationSecMaintenance 13827.120537105
scalar OsgEarthNet.uav[99] utilizationSecCharge 138580
scalar OsgEarthNet.uav[99] utilizationSecIdle 85544.423085952
scalar OsgEarthNet.uav[99] utilizationEnergyMission 97720.216140747
scalar OsgEarthNet.uav[99] utilizationEnergyMaintenance 64299.413543701
scalar OsgEarthNet.uav[99] utilizationEnergyCharge 162182.80297852
scalar OsgEarthNet.uav[99] utilizationEnergyOverdrawMission 0
scalar OsgEarthNet.uav[99] utilizationEnergyOverdrawMaintenance 0
scalar OsgEarthNet.uav[99] utilizationCountMissions 45
scalar OsgEarthNet.uav[99] utilizationCountManeuversMission 365
scalar OsgEarthNet.uav[99] utilizationCountManeuversMaintenance 90
scalar OsgEarthNet.uav[99] utilizationCountChargeState 45
scalar OsgEarthNet.uav[99] utilizationCountOverdrawnAfterMission 0
scalar OsgEarthNet.uav[99] utilizationCountIdleState 45
scalar OsgEarthNet.uav[99] utilizationFail 0
scalar OsgEarthNet.uav[99] simulationTime 259200
scalar OsgEarthNet.cs[0] usedPower 350489.154279
scalar OsgEarthNet.cs[0] chargedPower 350489.154279
scalar OsgEarthNet.cs[0] chargedMobileNodes 136
scalar OsgEarthNet.cs[0] reservations 138
scalar OsgEarthNet.cs[1] usedPower 892699.95302759
scalar OsgEarthNet.cs[1] chargedPower 892699.95302759
scalar OsgEarthNet.cs[1] chargedMobileNodes 320
scalar OsgEarthNet.cs[1] reservations 322
scalar OsgEarthNet.cs[2] usedPower 3551165.3872275
scalar OsgEarthNet.cs[2] chargedPower 3551165.3872275
scalar OsgEarthNet.cs[2] chargedMobileNodes 933
scalar OsgEarthNet.cs[2] reservations 944
scalar OsgEarthNet.cs[3] usedPower 0
scalar OsgEarthNet.cs[3] chargedPower 0
scalar OsgEarthNet.cs[3] chargedMobileNodes 0
scalar OsgEarthNet.cs[3] reservations 0
scalar OsgEarthNet.cs[4] usedPower 921691.89336904
scalar OsgEarthNet.cs[4] chargedPower 921691.89336904
scalar OsgEarthNet.cs[4] chargedMobileNodes 212
scalar OsgEarthNet.cs[4] reservations 215
scalar OsgEarthNet.cs[5] usedPower 1625676.2134096
scalar OsgEarthNet.cs[5] chargedPower 1625676.2134096
scalar OsgEarthNet.cs[5] chargedMobileNodes 380
scalar OsgEarthNet.cs[5] reservations 385
scalar OsgEarthNet.cs[6] usedPower 1420292.1880884
scalar OsgEarthNet.cs[6] chargedPower 1420292.1880884
scalar OsgEarthNet.cs[6] chargedMobileNodes 364
scalar OsgEarthNet.cs[6] reservations 370

