version 2
run Szenario_Hotel_Gabelbach-60-20180709-15:18:27-32228
attr configname Szenario_Hotel_Gabelbach
attr datetime 20180709-15:18:27
attr experiment Szenario_Hotel_Gabelbach
attr inifile omnetpp.ini
attr iterationvars "$replM=2, $biWeight=0.7"
attr iterationvarsf replM=2,biWeight=0.7-
attr measurement "$replM=2, $biWeight=0.7"
attr network OsgEarthNet
attr processid 32228
attr repetition 0
attr replication #0
attr resultdir results
attr runnumber 60
attr seedset 60
itervar biWeight 0.7
itervar replM 2
param *.osgEarthScene.scene "\"Szenario_Hotel_Gabelbach.earth\""
param *.playgroundLatitude 50.6830269
param *.playgroundLongitude 10.8538055
param *.playgroundWidth 3500m
param *.playgroundHeight 3500m
param *.numUAVs 100
param *.cs[0].posX 3537m
param *.cs[0].posY 965m
param *.cs[0].posZ 538m
param *.cs[1].posX 312m
param *.cs[1].posY 1262m
param *.cs[1].posZ 539m
param *.cs[2].posX 2185m
param *.cs[2].posY 3026m
param *.cs[2].posZ 777m
param *.cs[3].posX 10m
param *.cs[3].posY 2200m
param *.cs[3].posZ 560m
param *.cs[4].posX 750m
param *.cs[4].posY 200m
param *.cs[4].posZ 540m
param *.cs[5].posX 2450m
param *.cs[5].posY 180m
param *.cs[5].posZ 524m
param *.cs[6].posX 3140m
param *.cs[6].posY 1790m
param *.cs[6].posZ 606m
param *.numCSs 7
param *.uav[*].replacementMethod 2
param *.uav[*].weightedSumWeight 0.7
param *.*.timeStep 10s
param *.uav[*].commandPreviewCommandCount 20
param *.missionControl.missionFiles "\"missions\\\\Szenario_WB_Hotel_Gabelbach_Mission_Hotel.waypoints,missions\\\\Szenario_WB_Hotel_Gabelbach_Mission_Kickelhahn.waypoints,missions\\\\Szenario_WB_Hotel_Gabelbach_Mission_Ilmenau_Sportplatz.waypoints,missions\\\\Szenario_WB_Hotel_Gabelbach_Mission_Manebach_Mitte.waypoints,missions\\\\Szenario_WB_Hotel_Gabelbach_Mission_Manebach_Sued.waypoints\""
param *.missionControl.missionFiles "\"missions\\\\Szenario_WB_Hotel_Gabelbach_Mission_Hotel.waypoints,missions\\\\Szenario_WB_Hotel_Gabelbach_Mission_Kickelhahn.waypoints,missions\\\\Szenario_WB_Hotel_Gabelbach_Mission_Ilmenau_Sportplatz.waypoints,missions\\\\Szenario_WB_Hotel_Gabelbach_Mission_Manebach_Mitte.waypoints,missions\\\\Szenario_WB_Hotel_Gabelbach_Mission_Manebach_Sued.waypoints,missions\\\\Szenario_WB_Hotel_Gabelbach_Hover_HoheSchlaufe.waypoints,missions\\\\Szenario_WB_Hotel_Gabelbach_Hover_Kickelhahn.waypoints,missions\\\\Szenario_WB_Hotel_Gabelbach_Hover_Gabelbachskopf.waypoints,missions\\\\Szenario_WB_Hotel_Gabelbach_Hover_Dachskopf.waypoints\""
param *.uav[0].startX 3537m
param *.uav[0].startY 965m
param *.uav[0].startZ 539m
param *.uav[1].startX 312m
param *.uav[1].startY 1262m
param *.uav[1].startZ 540m
param *.uav[2].startX 2185m
param *.uav[2].startY 3026m
param *.uav[2].startZ 778m
param *.uav[3].startX 3537m
param *.uav[3].startY 965m
param *.uav[3].startZ 539m
param *.uav[4].startX 312m
param *.uav[4].startY 1262m
param *.uav[4].startZ 540m
param *.uav[5].startX 2185m
param *.uav[5].startY 3026m
param *.uav[5].startZ 778m
param *.uav[6].startX 3537m
param *.uav[6].startY 965m
param *.uav[6].startZ 539m
param *.uav[7].startX 312m
param *.uav[7].startY 1262m
param *.uav[7].startZ 540m
param *.uav[8].startX 2185m
param *.uav[8].startY 3026m
param *.uav[8].startZ 778m
param *.uav[9].startX 3537m
param *.uav[9].startY 965m
param *.uav[9].startZ 539m
param *.uav[10].startX 3537m
param *.uav[10].startY 965m
param *.uav[10].startZ 539m
param *.uav[11].startX 312m
param *.uav[11].startY 1262m
param *.uav[11].startZ 540m
param *.uav[12].startX 2185m
param *.uav[12].startY 3026m
param *.uav[12].startZ 778m
param *.uav[13].startX 3537m
param *.uav[13].startY 965m
param *.uav[13].startZ 539m
param *.uav[14].startX 312m
param *.uav[14].startY 1262m
param *.uav[14].startZ 540m
param *.uav[15].startX 2185m
param *.uav[15].startY 3026m
param *.uav[15].startZ 778m
param *.uav[16].startX 3537m
param *.uav[16].startY 965m
param *.uav[16].startZ 539m
param *.uav[17].startX 312m
param *.uav[17].startY 1262m
param *.uav[17].startZ 540m
param *.uav[18].startX 2185m
param *.uav[18].startY 3026m
param *.uav[18].startZ 778m
param *.uav[19].startX 3537m
param *.uav[19].startY 965m
param *.uav[19].startZ 539m
param *.uav[20].startX 3537m
param *.uav[20].startY 965m
param *.uav[20].startZ 539m
param *.uav[21].startX 312m
param *.uav[21].startY 1262m
param *.uav[21].startZ 540m
param *.uav[22].startX 2185m
param *.uav[22].startY 3026m
param *.uav[22].startZ 778m
param *.uav[23].startX 3537m
param *.uav[23].startY 965m
param *.uav[23].startZ 539m
param *.uav[24].startX 312m
param *.uav[24].startY 1262m
param *.uav[24].startZ 540m
param *.uav[25].startX 2185m
param *.uav[25].startY 3026m
param *.uav[25].startZ 778m
param *.uav[26].startX 3537m
param *.uav[26].startY 965m
param *.uav[26].startZ 539m
param *.uav[27].startX 312m
param *.uav[27].startY 1262m
param *.uav[27].startZ 540m
param *.uav[28].startX 2185m
param *.uav[28].startY 3026m
param *.uav[28].startZ 778m
param *.uav[29].startX 3537m
param *.uav[29].startY 965m
param *.uav[29].startZ 539m
param *.uav[30].startX 3537m
param *.uav[30].startY 965m
param *.uav[30].startZ 539m
param *.uav[31].startX 312m
param *.uav[31].startY 1262m
param *.uav[31].startZ 540m
param *.uav[32].startX 2185m
param *.uav[32].startY 3026m
param *.uav[32].startZ 778m
param *.uav[33].startX 3537m
param *.uav[33].startY 965m
param *.uav[33].startZ 539m
param *.uav[34].startX 312m
param *.uav[34].startY 1262m
param *.uav[34].startZ 540m
param *.uav[35].startX 2185m
param *.uav[35].startY 3026m
param *.uav[35].startZ 778m
param *.uav[36].startX 3537m
param *.uav[36].startY 965m
param *.uav[36].startZ 539m
param *.uav[37].startX 312m
param *.uav[37].startY 1262m
param *.uav[37].startZ 540m
param *.uav[38].startX 2185m
param *.uav[38].startY 3026m
param *.uav[38].startZ 778m
param *.uav[39].startX 3537m
param *.uav[39].startY 965m
param *.uav[39].startZ 539m
param *.uav[40].startX 3537m
param *.uav[40].startY 965m
param *.uav[40].startZ 539m
param *.uav[41].startX 312m
param *.uav[41].startY 1262m
param *.uav[41].startZ 540m
param *.uav[42].startX 2185m
param *.uav[42].startY 3026m
param *.uav[42].startZ 778m
param *.uav[43].startX 3537m
param *.uav[43].startY 965m
param *.uav[43].startZ 539m
param *.uav[44].startX 312m
param *.uav[44].startY 1262m
param *.uav[44].startZ 540m
param *.uav[45].startX 2185m
param *.uav[45].startY 3026m
param *.uav[45].startZ 778m
param *.uav[46].startX 3537m
param *.uav[46].startY 965m
param *.uav[46].startZ 539m
param *.uav[47].startX 312m
param *.uav[47].startY 1262m
param *.uav[47].startZ 540m
param *.uav[48].startX 2185m
param *.uav[48].startY 3026m
param *.uav[48].startZ 778m
param *.uav[49].startX 3537m
param *.uav[49].startY 965m
param *.uav[49].startZ 539m
param *.uav[50].startX 3537m
param *.uav[50].startY 965m
param *.uav[50].startZ 539m
param *.uav[51].startX 312m
param *.uav[51].startY 1262m
param *.uav[51].startZ 540m
param *.uav[52].startX 2185m
param *.uav[52].startY 3026m
param *.uav[52].startZ 778m
param *.uav[53].startX 3537m
param *.uav[53].startY 965m
param *.uav[53].startZ 539m
param *.uav[54].startX 312m
param *.uav[54].startY 1262m
param *.uav[54].startZ 540m
param *.uav[55].startX 2185m
param *.uav[55].startY 3026m
param *.uav[55].startZ 778m
param *.uav[56].startX 3537m
param *.uav[56].startY 965m
param *.uav[56].startZ 539m
param *.uav[57].startX 312m
param *.uav[57].startY 1262m
param *.uav[57].startZ 540m
param *.uav[58].startX 2185m
param *.uav[58].startY 3026m
param *.uav[58].startZ 778m
param *.uav[59].startX 3537m
param *.uav[59].startY 965m
param *.uav[59].startZ 539m
param *.uav[60].startX 3537m
param *.uav[60].startY 965m
param *.uav[60].startZ 539m
param *.uav[61].startX 312m
param *.uav[61].startY 1262m
param *.uav[61].startZ 540m
param *.uav[62].startX 2185m
param *.uav[62].startY 3026m
param *.uav[62].startZ 778m
param *.uav[63].startX 3537m
param *.uav[63].startY 965m
param *.uav[63].startZ 539m
param *.uav[64].startX 312m
param *.uav[64].startY 1262m
param *.uav[64].startZ 540m
param *.uav[65].startX 2185m
param *.uav[65].startY 3026m
param *.uav[65].startZ 778m
param *.uav[66].startX 3537m
param *.uav[66].startY 965m
param *.uav[66].startZ 539m
param *.uav[67].startX 312m
param *.uav[67].startY 1262m
param *.uav[67].startZ 540m
param *.uav[68].startX 2185m
param *.uav[68].startY 3026m
param *.uav[68].startZ 778m
param *.uav[69].startX 3537m
param *.uav[69].startY 965m
param *.uav[69].startZ 539m
param *.uav[70].startX 3537m
param *.uav[70].startY 965m
param *.uav[70].startZ 539m
param *.uav[71].startX 312m
param *.uav[71].startY 1262m
param *.uav[71].startZ 540m
param *.uav[72].startX 2185m
param *.uav[72].startY 3026m
param *.uav[72].startZ 778m
param *.uav[73].startX 3537m
param *.uav[73].startY 965m
param *.uav[73].startZ 539m
param *.uav[74].startX 312m
param *.uav[74].startY 1262m
param *.uav[74].startZ 540m
param *.uav[75].startX 2185m
param *.uav[75].startY 3026m
param *.uav[75].startZ 778m
param *.uav[76].startX 3537m
param *.uav[76].startY 965m
param *.uav[76].startZ 539m
param *.uav[77].startX 312m
param *.uav[77].startY 1262m
param *.uav[77].startZ 540m
param *.uav[78].startX 2185m
param *.uav[78].startY 3026m
param *.uav[78].startZ 778m
param *.uav[79].startX 3537m
param *.uav[79].startY 965m
param *.uav[79].startZ 539m
param *.uav[80].startX 3537m
param *.uav[80].startY 965m
param *.uav[80].startZ 539m
param *.uav[81].startX 312m
param *.uav[81].startY 1262m
param *.uav[81].startZ 540m
param *.uav[82].startX 2185m
param *.uav[82].startY 3026m
param *.uav[82].startZ 778m
param *.uav[83].startX 3537m
param *.uav[83].startY 965m
param *.uav[83].startZ 539m
param *.uav[84].startX 312m
param *.uav[84].startY 1262m
param *.uav[84].startZ 540m
param *.uav[85].startX 2185m
param *.uav[85].startY 3026m
param *.uav[85].startZ 778m
param *.uav[86].startX 3537m
param *.uav[86].startY 965m
param *.uav[86].startZ 539m
param *.uav[87].startX 312m
param *.uav[87].startY 1262m
param *.uav[87].startZ 540m
param *.uav[88].startX 2185m
param *.uav[88].startY 3026m
param *.uav[88].startZ 778m
param *.uav[89].startX 3537m
param *.uav[89].startY 965m
param *.uav[89].startZ 539m
param *.uav[90].startX 3537m
param *.uav[90].startY 965m
param *.uav[90].startZ 539m
param *.uav[91].startX 312m
param *.uav[91].startY 1262m
param *.uav[91].startZ 540m
param *.uav[92].startX 2185m
param *.uav[92].startY 3026m
param *.uav[92].startZ 778m
param *.uav[93].startX 3537m
param *.uav[93].startY 965m
param *.uav[93].startZ 539m
param *.uav[94].startX 312m
param *.uav[94].startY 1262m
param *.uav[94].startZ 540m
param *.uav[95].startX 2185m
param *.uav[95].startY 3026m
param *.uav[95].startZ 778m
param *.uav[96].startX 3537m
param *.uav[96].startY 965m
param *.uav[96].startZ 539m
param *.uav[97].startX 312m
param *.uav[97].startY 1262m
param *.uav[97].startZ 540m
param *.uav[98].startX 2185m
param *.uav[98].startY 3026m
param *.uav[98].startZ 778m
param *.uav[99].startX 3537m
param *.uav[99].startY 965m
param *.uav[99].startZ 539m
param *.osgEarthScene.scene "\"boston.earth\""
param *.playgroundLatitude 42.3558
param *.playgroundLongitude -71.0677
param *.playgroundWidth 400m
param *.playgroundHeight 200m
param *.channelController.connectionColor "\"#0000FF40\""
param *.channelController.showConnections false
param *.uav[*].modelURL "\"quadrocopter.small.obj.15.scale.0,0,90.rot\""
param *.uav[*].labelColor "\"#FF7C00CC\""
param *.uav[*].label2Color "\"#FF7C00EE\""
param *.uav[*].batteryCapacity 5200mAh
param *.uav[*].batteryRemaining uav[index].batteryCapacity
param *.uav[*].predictionQuantile 0.95
param *.uav[*].replacementMethod 2
param *.uav[*].weightedSumWeight 0.5
param *.cs[*].modelURL "\"chargingstation_v1.osgt.2.scale.0,0,0.rot.0,0,-15e-1.trans\""
param *.cs[*].spotsWaiting 999
param *.cs[*].spotsCharging 999
param *.cs[*].chargeEffectivenessPercentage 100
param *.cs[*].nonLinearPhaseStartPercentage 85
param *.cs[*].chargeCurrent 6.0A
param *.cs[*].prioritizeFastCharge true
param *.missionControl.replacementSearchMethod 0
param *.*.timeStep 9s

scalar OsgEarthNet.uav[0] utilizationSecMission 702.6942798579
scalar OsgEarthNet.uav[0] utilizationSecMaintenance 282.29565405678
scalar OsgEarthNet.uav[0] utilizationSecCharge 3660
scalar OsgEarthNet.uav[0] utilizationSecIdle 254555.00906609
scalar OsgEarthNet.uav[0] utilizationEnergyMission 3244.5503082275
scalar OsgEarthNet.uav[0] utilizationEnergyMaintenance 1281.2000846863
scalar OsgEarthNet.uav[0] utilizationEnergyCharge 4525.7509765625
scalar OsgEarthNet.uav[0] utilizationEnergyOverdrawMission 0
scalar OsgEarthNet.uav[0] utilizationEnergyOverdrawMaintenance 0
scalar OsgEarthNet.uav[0] utilizationCountMissions 1
scalar OsgEarthNet.uav[0] utilizationCountManeuversMission 10
scalar OsgEarthNet.uav[0] utilizationCountManeuversMaintenance 2
scalar OsgEarthNet.uav[0] utilizationCountChargeState 1
scalar OsgEarthNet.uav[0] utilizationCountOverdrawnAfterMission 0
scalar OsgEarthNet.uav[0] utilizationCountIdleState 2
scalar OsgEarthNet.uav[0] utilizationFail 0
scalar OsgEarthNet.uav[0] simulationTime 259200
scalar OsgEarthNet.uav[1] utilizationSecMission 25566.213543892
scalar OsgEarthNet.uav[1] utilizationSecMaintenance 11887.089015401
scalar OsgEarthNet.uav[1] utilizationSecCharge 138010
scalar OsgEarthNet.uav[1] utilizationSecIdle 83736.696440707
scalar OsgEarthNet.uav[1] utilizationEnergyMission 117649.16249847
scalar OsgEarthNet.uav[1] utilizationEnergyMaintenance 55859.604167938
scalar OsgEarthNet.uav[1] utilizationEnergyCharge 173072.91455078
scalar OsgEarthNet.uav[1] utilizationEnergyOverdrawMission 0
scalar OsgEarthNet.uav[1] utilizationEnergyOverdrawMaintenance 0
scalar OsgEarthNet.uav[1] utilizationCountMissions 37
scalar OsgEarthNet.uav[1] utilizationCountManeuversMission 415
scalar OsgEarthNet.uav[1] utilizationCountManeuversMaintenance 74
scalar OsgEarthNet.uav[1] utilizationCountChargeState 37
scalar OsgEarthNet.uav[1] utilizationCountOverdrawnAfterMission 0
scalar OsgEarthNet.uav[1] utilizationCountIdleState 38
scalar OsgEarthNet.uav[1] utilizationFail 0
scalar OsgEarthNet.uav[1] simulationTime 259200
scalar OsgEarthNet.uav[2] utilizationSecMission 766.82734763767
scalar OsgEarthNet.uav[2] utilizationSecMaintenance 306.92101052153
scalar OsgEarthNet.uav[2] utilizationSecCharge 3790
scalar OsgEarthNet.uav[2] utilizationSecIdle 254336.25064184
scalar OsgEarthNet.uav[2] utilizationEnergyMission 3366.460975647
scalar OsgEarthNet.uav[2] utilizationEnergyMaintenance 1398.2238998413
scalar OsgEarthNet.uav[2] utilizationEnergyCharge 4764.6840820312
scalar OsgEarthNet.uav[2] utilizationEnergyOverdrawMission 0
scalar OsgEarthNet.uav[2] utilizationEnergyOverdrawMaintenance 0
scalar OsgEarthNet.uav[2] utilizationCountMissions 1
scalar OsgEarthNet.uav[2] utilizationCountManeuversMission 14
scalar OsgEarthNet.uav[2] utilizationCountManeuversMaintenance 2
scalar OsgEarthNet.uav[2] utilizationCountChargeState 1
scalar OsgEarthNet.uav[2] utilizationCountOverdrawnAfterMission 0
scalar OsgEarthNet.uav[2] utilizationCountIdleState 2
scalar OsgEarthNet.uav[2] utilizationFail 0
scalar OsgEarthNet.uav[2] simulationTime 259200
scalar OsgEarthNet.uav[3] utilizationSecMission 507.8647069725
scalar OsgEarthNet.uav[3] utilizationSecMaintenance 484.98978100409
scalar OsgEarthNet.uav[3] utilizationSecCharge 3710
scalar OsgEarthNet.uav[3] utilizationSecIdle 254497.14451202
scalar OsgEarthNet.uav[3] utilizationEnergyMission 2340.6512298584
scalar OsgEarthNet.uav[3] utilizationEnergyMaintenance 2285.3178825378
scalar OsgEarthNet.uav[3] utilizationEnergyCharge 4679.6645507812
scalar OsgEarthNet.uav[3] utilizationEnergyOverdrawMission 0
scalar OsgEarthNet.uav[3] utilizationEnergyOverdrawMaintenance 0
scalar OsgEarthNet.uav[3] utilizationCountMissions 1
scalar OsgEarthNet.uav[3] utilizationCountManeuversMission 8
scalar OsgEarthNet.uav[3] utilizationCountManeuversMaintenance 2
scalar OsgEarthNet.uav[3] utilizationCountChargeState 1
scalar OsgEarthNet.uav[3] utilizationCountOverdrawnAfterMission 0
scalar OsgEarthNet.uav[3] utilizationCountIdleState 2
scalar OsgEarthNet.uav[3] utilizationFail 0
scalar OsgEarthNet.uav[3] simulationTime 259200
scalar OsgEarthNet.uav[4] utilizationSecMission 31150.364893748
scalar OsgEarthNet.uav[4] utilizationSecMaintenance 14469.143411658
scalar OsgEarthNet.uav[4] utilizationSecCharge 165476.73165762
scalar OsgEarthNet.uav[4] utilizationSecIdle 48103.759036976
scalar OsgEarthNet.uav[4] utilizationEnergyMission 142897.92855072
scalar OsgEarthNet.uav[4] utilizationEnergyMaintenance 69094.261985779
scalar OsgEarthNet.uav[4] utilizationEnergyCharge 208298.37866211
scalar OsgEarthNet.uav[4] utilizationEnergyOverdrawMission 0
scalar OsgEarthNet.uav[4] utilizationEnergyOverdrawMaintenance 0
scalar OsgEarthNet.uav[4] utilizationCountMissions 45
scalar OsgEarthNet.uav[4] utilizationCountManeuversMission 507
scalar OsgEarthNet.uav[4] utilizationCountManeuversMaintenance 90
scalar OsgEarthNet.uav[4] utilizationCountChargeState 45
scalar OsgEarthNet.uav[4] utilizationCountOverdrawnAfterMission 0
scalar OsgEarthNet.uav[4] utilizationCountIdleState 45
scalar OsgEarthNet.uav[4] utilizationFail 0
scalar OsgEarthNet.uav[4] simulationTime 259200
scalar OsgEarthNet.uav[5] utilizationSecMission 31021.398750514
scalar OsgEarthNet.uav[5] utilizationSecMaintenance 13159.169247903
scalar OsgEarthNet.uav[5] utilizationSecCharge 161845.54207833
scalar OsgEarthNet.uav[5] utilizationSecIdle 53173.888923256
scalar OsgEarthNet.uav[5] utilizationEnergyMission 142370.28646088
scalar OsgEarthNet.uav[5] utilizationEnergyMaintenance 60936.480480194
scalar OsgEarthNet.uav[5] utilizationEnergyCharge 203641.97314453
scalar OsgEarthNet.uav[5] utilizationEnergyOverdrawMission 0
scalar OsgEarthNet.uav[5] utilizationEnergyOverdrawMaintenance 0
scalar OsgEarthNet.uav[5] utilizationCountMissions 44
scalar OsgEarthNet.uav[5] utilizationCountManeuversMission 513
scalar OsgEarthNet.uav[5] utilizationCountManeuversMaintenance 88
scalar OsgEarthNet.uav[5] utilizationCountChargeState 44
scalar OsgEarthNet.uav[5] utilizationCountOverdrawnAfterMission 0
scalar OsgEarthNet.uav[5] utilizationCountIdleState 44
scalar OsgEarthNet.uav[5] utilizationFail 0
scalar OsgEarthNet.uav[5] simulationTime 259200
scalar OsgEarthNet.uav[6] utilizationSecMission 760.62515258028
scalar OsgEarthNet.uav[6] utilizationSecMaintenance 223.6438949726
scalar OsgEarthNet.uav[6] utilizationSecCharge 3760
scalar OsgEarthNet.uav[6] utilizationSecIdle 254455.72995245
scalar OsgEarthNet.uav[6] utilizationEnergyMission 3612.8193359375
scalar OsgEarthNet.uav[6] utilizationEnergyMaintenance 1107.9341239929
scalar OsgEarthNet.uav[6] utilizationEnergyCharge 4720.755859375
scalar OsgEarthNet.uav[6] utilizationEnergyOverdrawMission 0
scalar OsgEarthNet.uav[6] utilizationEnergyOverdrawMaintenance 0
scalar OsgEarthNet.uav[6] utilizationCountMissions 1
scalar OsgEarthNet.uav[6] utilizationCountManeuversMission 12
scalar OsgEarthNet.uav[6] utilizationCountManeuversMaintenance 2
scalar OsgEarthNet.uav[6] utilizationCountChargeState 1
scalar OsgEarthNet.uav[6] utilizationCountOverdrawnAfterMission 0
scalar OsgEarthNet.uav[6] utilizationCountIdleState 2
scalar OsgEarthNet.uav[6] utilizationFail 0
scalar OsgEarthNet.uav[6] simulationTime 259200
scalar OsgEarthNet.uav[7] utilizationSecMission 3442.5036957672
scalar OsgEarthNet.uav[7] utilizationSecMaintenance 1726.0680199493
scalar OsgEarthNet.uav[7] utilizationSecCharge 18790
scalar OsgEarthNet.uav[7] utilizationSecIdle 235241.42728428
scalar OsgEarthNet.uav[7] utilizationEnergyMission 15631.50125885
scalar OsgEarthNet.uav[7] utilizationEnergyMaintenance 8019.8429336548
scalar OsgEarthNet.uav[7] utilizationEnergyCharge 23559.5703125
scalar OsgEarthNet.uav[7] utilizationEnergyOverdrawMission 0
scalar OsgEarthNet.uav[7] utilizationEnergyOverdrawMaintenance 0
scalar OsgEarthNet.uav[7] utilizationCountMissions 5
scalar OsgEarthNet.uav[7] utilizationCountManeuversMission 57
scalar OsgEarthNet.uav[7] utilizationCountManeuversMaintenance 10
scalar OsgEarthNet.uav[7] utilizationCountChargeState 5
scalar OsgEarthNet.uav[7] utilizationCountOverdrawnAfterMission 0
scalar OsgEarthNet.uav[7] utilizationCountIdleState 6
scalar OsgEarthNet.uav[7] utilizationFail 0
scalar OsgEarthNet.uav[7] simulationTime 259200
scalar OsgEarthNet.uav[8] utilizationSecMission 26421.468274731
scalar OsgEarthNet.uav[8] utilizationSecMaintenance 12795.230699067
scalar OsgEarthNet.uav[8] utilizationSecCharge 141691.84706748
scalar OsgEarthNet.uav[8] utilizationSecIdle 78291.452958717
scalar OsgEarthNet.uav[8] utilizationEnergyMission 122383.13562012
scalar OsgEarthNet.uav[8] utilizationEnergyMaintenance 59522.448974609
scalar OsgEarthNet.uav[8] utilizationEnergyCharge 177851.74493408
scalar OsgEarthNet.uav[8] utilizationEnergyOverdrawMission 0
scalar OsgEarthNet.uav[8] utilizationEnergyOverdrawMaintenance 0
scalar OsgEarthNet.uav[8] utilizationCountMissions 39
scalar OsgEarthNet.uav[8] utilizationCountManeuversMission 421
scalar OsgEarthNet.uav[8] utilizationCountManeuversMaintenance 78
scalar OsgEarthNet.uav[8] utilizationCountChargeState 39
scalar OsgEarthNet.uav[8] utilizationCountOverdrawnAfterMission 0
scalar OsgEarthNet.uav[8] utilizationCountIdleState 39
scalar OsgEarthNet.uav[8] utilizationFail 0
scalar OsgEarthNet.uav[8] simulationTime 259200
scalar OsgEarthNet.uav[9] utilizationSecMission 760.62515258028
scalar OsgEarthNet.uav[9] utilizationSecMaintenance 291.95923480269
scalar OsgEarthNet.uav[9] utilizationSecCharge 3790
scalar OsgEarthNet.uav[9] utilizationSecIdle 254357.41461262
scalar OsgEarthNet.uav[9] utilizationEnergyMission 3351.1176528931
scalar OsgEarthNet.uav[9] utilizationEnergyMaintenance 1415.6276473999
scalar OsgEarthNet.uav[9] utilizationEnergyCharge 4766.7485351562
scalar OsgEarthNet.uav[9] utilizationEnergyOverdrawMission 0
scalar OsgEarthNet.uav[9] utilizationEnergyOverdrawMaintenance 0
scalar OsgEarthNet.uav[9] utilizationCountMissions 1
scalar OsgEarthNet.uav[9] utilizationCountManeuversMission 12
scalar OsgEarthNet.uav[9] utilizationCountManeuversMaintenance 2
scalar OsgEarthNet.uav[9] utilizationCountChargeState 1
scalar OsgEarthNet.uav[9] utilizationCountOverdrawnAfterMission 0
scalar OsgEarthNet.uav[9] utilizationCountIdleState 2
scalar OsgEarthNet.uav[9] utilizationFail 0
scalar OsgEarthNet.uav[9] simulationTime 259200
scalar OsgEarthNet.uav[10] utilizationSecMission 27181.069371215
scalar OsgEarthNet.uav[10] utilizationSecMaintenance 14846.223023277
scalar OsgEarthNet.uav[10] utilizationSecCharge 152262.13718763
scalar OsgEarthNet.uav[10] utilizationSecIdle 64910.569417878
scalar OsgEarthNet.uav[10] utilizationEnergyMission 126421.64362335
scalar OsgEarthNet.uav[10] utilizationEnergyMaintenance 68903.409629822
scalar OsgEarthNet.uav[10] utilizationEnergyCharge 190918.48498535
scalar OsgEarthNet.uav[10] utilizationEnergyOverdrawMission 0
scalar OsgEarthNet.uav[10] utilizationEnergyOverdrawMaintenance 0
scalar OsgEarthNet.uav[10] utilizationCountMissions 42
scalar OsgEarthNet.uav[10] utilizationCountManeuversMission 441
scalar OsgEarthNet.uav[10] utilizationCountManeuversMaintenance 84
scalar OsgEarthNet.uav[10] utilizationCountChargeState 42
scalar OsgEarthNet.uav[10] utilizationCountOverdrawnAfterMission 0
scalar OsgEarthNet.uav[10] utilizationCountIdleState 42
scalar OsgEarthNet.uav[10] utilizationFail 0
scalar OsgEarthNet.uav[10] simulationTime 259200
scalar OsgEarthNet.uav[11] utilizationSecMission 13778.405100814
scalar OsgEarthNet.uav[11] utilizationSecMaintenance 7561.1978560314
scalar OsgEarthNet.uav[11] utilizationSecCharge 78700
scalar OsgEarthNet.uav[11] utilizationSecIdle 159160.39604315
scalar OsgEarthNet.uav[11] utilizationEnergyMission 64214.15688324
scalar OsgEarthNet.uav[11] utilizationEnergyMaintenance 34962.799812317
scalar OsgEarthNet.uav[11] utilizationEnergyCharge 99005.220703125
scalar OsgEarthNet.uav[11] utilizationEnergyOverdrawMission 0
scalar OsgEarthNet.uav[11] utilizationEnergyOverdrawMaintenance 0
scalar OsgEarthNet.uav[11] utilizationCountMissions 21
scalar OsgEarthNet.uav[11] utilizationCountManeuversMission 239
scalar OsgEarthNet.uav[11] utilizationCountManeuversMaintenance 42
scalar OsgEarthNet.uav[11] utilizationCountChargeState 21
scalar OsgEarthNet.uav[11] utilizationCountOverdrawnAfterMission 0
scalar OsgEarthNet.uav[11] utilizationCountIdleState 22
scalar OsgEarthNet.uav[11] utilizationFail 0
scalar OsgEarthNet.uav[11] simulationTime 259200
scalar OsgEarthNet.uav[12] utilizationSecMission 887.1741082606
scalar OsgEarthNet.uav[12] utilizationSecMaintenance 171.13387461676
scalar OsgEarthNet.uav[12] utilizationSecCharge 3840
scalar OsgEarthNet.uav[12] utilizationSecIdle 254301.69101712
scalar OsgEarthNet.uav[12] utilizationEnergyMission 4171.8198394775
scalar OsgEarthNet.uav[12] utilizationEnergyMaintenance 807.53621673584
scalar OsgEarthNet.uav[12] utilizationEnergyCharge 4844.5595703125
scalar OsgEarthNet.uav[12] utilizationEnergyOverdrawMission 0
scalar OsgEarthNet.uav[12] utilizationEnergyOverdrawMaintenance 0
scalar OsgEarthNet.uav[12] utilizationCountMissions 1
scalar OsgEarthNet.uav[12] utilizationCountManeuversMission 14
scalar OsgEarthNet.uav[12] utilizationCountManeuversMaintenance 2
scalar OsgEarthNet.uav[12] utilizationCountChargeState 1
scalar OsgEarthNet.uav[12] utilizationCountOverdrawnAfterMission 0
scalar OsgEarthNet.uav[12] utilizationCountIdleState 2
scalar OsgEarthNet.uav[12] utilizationFail 0
scalar OsgEarthNet.uav[12] simulationTime 259200
scalar OsgEarthNet.uav[13] utilizationSecMission 684.4732299383
scalar OsgEarthNet.uav[13] utilizationSecMaintenance 298.56834692969
scalar OsgEarthNet.uav[13] utilizationSecCharge 3730
scalar OsgEarthNet.uav[13] utilizationSecIdle 254486.95742313
scalar OsgEarthNet.uav[13] utilizationEnergyMission 3140.0172653198
scalar OsgEarthNet.uav[13] utilizationEnergyMaintenance 1541.6180953979
scalar OsgEarthNet.uav[13] utilizationEnergyCharge 4681.6376953125
scalar OsgEarthNet.uav[13] utilizationEnergyOverdrawMission 0
scalar OsgEarthNet.uav[13] utilizationEnergyOverdrawMaintenance 0
scalar OsgEarthNet.uav[13] utilizationCountMissions 1
scalar OsgEarthNet.uav[13] utilizationCountManeuversMission 11
scalar OsgEarthNet.uav[13] utilizationCountManeuversMaintenance 2
scalar OsgEarthNet.uav[13] utilizationCountChargeState 1
scalar OsgEarthNet.uav[13] utilizationCountOverdrawnAfterMission 0
scalar OsgEarthNet.uav[13] utilizationCountIdleState 2
scalar OsgEarthNet.uav[13] utilizationFail 0
scalar OsgEarthNet.uav[13] simulationTime 259200
scalar OsgEarthNet.uav[14] utilizationSecMission 28393.083125716
scalar OsgEarthNet.uav[14] utilizationSecMaintenance 13721.734410093
scalar OsgEarthNet.uav[14] utilizationSecCharge 156440
scalar OsgEarthNet.uav[14] utilizationSecIdle 60645.181464191
scalar OsgEarthNet.uav[14] utilizationEnergyMission 131080.25218201
scalar OsgEarthNet.uav[14] utilizationEnergyMaintenance 64845.46736908
scalar OsgEarthNet.uav[14] utilizationEnergyCharge 196288.15283203
scalar OsgEarthNet.uav[14] utilizationEnergyOverdrawMission 0
scalar OsgEarthNet.uav[14] utilizationEnergyOverdrawMaintenance 0
scalar OsgEarthNet.uav[14] utilizationCountMissions 42
scalar OsgEarthNet.uav[14] utilizationCountManeuversMission 463
scalar OsgEarthNet.uav[14] utilizationCountManeuversMaintenance 84
scalar OsgEarthNet.uav[14] utilizationCountChargeState 42
scalar OsgEarthNet.uav[14] utilizationCountOverdrawnAfterMission 0
scalar OsgEarthNet.uav[14] utilizationCountIdleState 43
scalar OsgEarthNet.uav[14] utilizationFail 0
scalar OsgEarthNet.uav[14] simulationTime 259200
scalar OsgEarthNet.uav[15] utilizationSecMission 23520.87678144
scalar OsgEarthNet.uav[15] utilizationSecMaintenance 11657.449169177
scalar OsgEarthNet.uav[15] utilizationSecCharge 130640
scalar OsgEarthNet.uav[15] utilizationSecIdle 93381.673049383
scalar OsgEarthNet.uav[15] utilizationEnergyMission 108251.39905167
scalar OsgEarthNet.uav[15] utilizationEnergyMaintenance 55425.398275387
scalar OsgEarthNet.uav[15] utilizationEnergyCharge 163757.66992188
scalar OsgEarthNet.uav[15] utilizationEnergyOverdrawMission 0
scalar OsgEarthNet.uav[15] utilizationEnergyOverdrawMaintenance 0
scalar OsgEarthNet.uav[15] utilizationCountMissions 35
scalar OsgEarthNet.uav[15] utilizationCountManeuversMission 374
scalar OsgEarthNet.uav[15] utilizationCountManeuversMaintenance 71
scalar OsgEarthNet.uav[15] utilizationCountChargeState 35
scalar OsgEarthNet.uav[15] utilizationCountOverdrawnAfterMission 0
scalar OsgEarthNet.uav[15] utilizationCountIdleState 36
scalar OsgEarthNet.uav[15] utilizationFail 0
scalar OsgEarthNet.uav[15] simulationTime 259200
scalar OsgEarthNet.uav[16] utilizationSecMission 702.6942798579
scalar OsgEarthNet.uav[16] utilizationSecMaintenance 292.29565405678
scalar OsgEarthNet.uav[16] utilizationSecCharge 3860
scalar OsgEarthNet.uav[16] utilizationSecIdle 254345.00906609
scalar OsgEarthNet.uav[16] utilizationEnergyMission 3474.8786315918
scalar OsgEarthNet.uav[16] utilizationEnergyMaintenance 1423.1064987183
scalar OsgEarthNet.uav[16] utilizationEnergyCharge 4897.9814453125
scalar OsgEarthNet.uav[16] utilizationEnergyOverdrawMission 0
scalar OsgEarthNet.uav[16] utilizationEnergyOverdrawMaintenance 0
scalar OsgEarthNet.uav[16] utilizationCountMissions 1
scalar OsgEarthNet.uav[16] utilizationCountManeuversMission 10
scalar OsgEarthNet.uav[16] utilizationCountManeuversMaintenance 2
scalar OsgEarthNet.uav[16] utilizationCountChargeState 1
scalar OsgEarthNet.uav[16] utilizationCountOverdrawnAfterMission 0
scalar OsgEarthNet.uav[16] utilizationCountIdleState 2
scalar OsgEarthNet.uav[16] utilizationFail 0
scalar OsgEarthNet.uav[16] simulationTime 259200
scalar OsgEarthNet.uav[17] utilizationSecMission 29450.030896442
scalar OsgEarthNet.uav[17] utilizationSecMaintenance 13117.537980378
scalar OsgEarthNet.uav[17] utilizationSecCharge 156640
scalar OsgEarthNet.uav[17] utilizationSecIdle 59992.430123179
scalar OsgEarthNet.uav[17] utilizationEnergyMission 135048.50626373
scalar OsgEarthNet.uav[17] utilizationEnergyMaintenance 61427.380882263
scalar OsgEarthNet.uav[17] utilizationEnergyCharge 196449.20947266
scalar OsgEarthNet.uav[17] utilizationEnergyOverdrawMission 0
scalar OsgEarthNet.uav[17] utilizationEnergyOverdrawMaintenance 0
scalar OsgEarthNet.uav[17] utilizationCountMissions 42
scalar OsgEarthNet.uav[17] utilizationCountManeuversMission 478
scalar OsgEarthNet.uav[17] utilizationCountManeuversMaintenance 84
scalar OsgEarthNet.uav[17] utilizationCountChargeState 42
scalar OsgEarthNet.uav[17] utilizationCountOverdrawnAfterMission 0
scalar OsgEarthNet.uav[17] utilizationCountIdleState 43
scalar OsgEarthNet.uav[17] utilizationFail 0
scalar OsgEarthNet.uav[17] simulationTime 259200
scalar OsgEarthNet.uav[18] utilizationSecMission 22551.250924707
scalar OsgEarthNet.uav[18] utilizationSecMaintenance 10743.720908709
scalar OsgEarthNet.uav[18] utilizationSecCharge 122750
scalar OsgEarthNet.uav[18] utilizationSecIdle 103155.02716658
scalar OsgEarthNet.uav[18] utilizationEnergyMission 103818.47862244
scalar OsgEarthNet.uav[18] utilizationEnergyMaintenance 49765.491004944
scalar OsgEarthNet.uav[18] utilizationEnergyCharge 153665.27246094
scalar OsgEarthNet.uav[18] utilizationEnergyOverdrawMission 0
scalar OsgEarthNet.uav[18] utilizationEnergyOverdrawMaintenance 0
scalar OsgEarthNet.uav[18] utilizationCountMissions 33
scalar OsgEarthNet.uav[18] utilizationCountManeuversMission 365
scalar OsgEarthNet.uav[18] utilizationCountManeuversMaintenance 66
scalar OsgEarthNet.uav[18] utilizationCountChargeState 33
scalar OsgEarthNet.uav[18] utilizationCountOverdrawnAfterMission 0
scalar OsgEarthNet.uav[18] utilizationCountIdleState 34
scalar OsgEarthNet.uav[18] utilizationFail 0
scalar OsgEarthNet.uav[18] simulationTime 259200
scalar OsgEarthNet.uav[19] utilizationSecMission 760.62515258028
scalar OsgEarthNet.uav[19] utilizationSecMaintenance 223.6438949726
scalar OsgEarthNet.uav[19] utilizationSecCharge 3680
scalar OsgEarthNet.uav[19] utilizationSecIdle 254535.72995245
scalar OsgEarthNet.uav[19] utilizationEnergyMission 3496.0110549927
scalar OsgEarthNet.uav[19] utilizationEnergyMaintenance 1111.6842155457
scalar OsgEarthNet.uav[19] utilizationEnergyCharge 4607.6918945312
scalar OsgEarthNet.uav[19] utilizationEnergyOverdrawMission 0
scalar OsgEarthNet.uav[19] utilizationEnergyOverdrawMaintenance 0
scalar OsgEarthNet.uav[19] utilizationCountMissions 1
scalar OsgEarthNet.uav[19] utilizationCountManeuversMission 12
scalar OsgEarthNet.uav[19] utilizationCountManeuversMaintenance 2
scalar OsgEarthNet.uav[19] utilizationCountChargeState 1
scalar OsgEarthNet.uav[19] utilizationCountOverdrawnAfterMission 0
scalar OsgEarthNet.uav[19] utilizationCountIdleState 2
scalar OsgEarthNet.uav[19] utilizationFail 0
scalar OsgEarthNet.uav[19] simulationTime 259200
scalar OsgEarthNet.uav[20] utilizationSecMission 760.62515258028
scalar OsgEarthNet.uav[20] utilizationSecMaintenance 223.6438949726
scalar OsgEarthNet.uav[20] utilizationSecCharge 3730
scalar OsgEarthNet.uav[20] utilizationSecIdle 254485.72995245
scalar OsgEarthNet.uav[20] utilizationEnergyMission 3560.2046356201
scalar OsgEarthNet.uav[20] utilizationEnergyMaintenance 1065.0430412292
scalar OsgEarthNet.uav[20] utilizationEnergyCharge 4625.2490234375
scalar OsgEarthNet.uav[20] utilizationEnergyOverdrawMission 0
scalar OsgEarthNet.uav[20] utilizationEnergyOverdrawMaintenance 0
scalar OsgEarthNet.uav[20] utilizationCountMissions 1
scalar OsgEarthNet.uav[20] utilizationCountManeuversMission 12
scalar OsgEarthNet.uav[20] utilizationCountManeuversMaintenance 2
scalar OsgEarthNet.uav[20] utilizationCountChargeState 1
scalar OsgEarthNet.uav[20] utilizationCountOverdrawnAfterMission 0
scalar OsgEarthNet.uav[20] utilizationCountIdleState 2
scalar OsgEarthNet.uav[20] utilizationFail 0
scalar OsgEarthNet.uav[20] simulationTime 259200
scalar OsgEarthNet.uav[21] utilizationSecMission 28669.338546937
scalar OsgEarthNet.uav[21] utilizationSecMaintenance 14093.862621674
scalar OsgEarthNet.uav[21] utilizationSecCharge 156802.18594187
scalar OsgEarthNet.uav[21] utilizationSecIdle 59634.611889516
scalar OsgEarthNet.uav[21] utilizationEnergyMission 133082.01782227
scalar OsgEarthNet.uav[21] utilizationEnergyMaintenance 66218.191543579
scalar OsgEarthNet.uav[21] utilizationEnergyCharge 196648.4050293
scalar OsgEarthNet.uav[21] utilizationEnergyOverdrawMission 0
scalar OsgEarthNet.uav[21] utilizationEnergyOverdrawMaintenance 0
scalar OsgEarthNet.uav[21] utilizationCountMissions 43
scalar OsgEarthNet.uav[21] utilizationCountManeuversMission 484
scalar OsgEarthNet.uav[21] utilizationCountManeuversMaintenance 86
scalar OsgEarthNet.uav[21] utilizationCountChargeState 43
scalar OsgEarthNet.uav[21] utilizationCountOverdrawnAfterMission 0
scalar OsgEarthNet.uav[21] utilizationCountIdleState 43
scalar OsgEarthNet.uav[21] utilizationFail 0
scalar OsgEarthNet.uav[21] simulationTime 259200
scalar OsgEarthNet.uav[22] utilizationSecMission 31076.92844933
scalar OsgEarthNet.uav[22] utilizationSecMaintenance 13374.609357538
scalar OsgEarthNet.uav[22] utilizationSecCharge 162441.0109291
scalar OsgEarthNet.uav[22] utilizationSecIdle 52307.450264031
scalar OsgEarthNet.uav[22] utilizationEnergyMission 144740.11427689
scalar OsgEarthNet.uav[22] utilizationEnergyMaintenance 62906.563793182
scalar OsgEarthNet.uav[22] utilizationEnergyCharge 204429.03527832
scalar OsgEarthNet.uav[22] utilizationEnergyOverdrawMission 0
scalar OsgEarthNet.uav[22] utilizationEnergyOverdrawMaintenance 0
scalar OsgEarthNet.uav[22] utilizationCountMissions 44
scalar OsgEarthNet.uav[22] utilizationCountManeuversMission 502
scalar OsgEarthNet.uav[22] utilizationCountManeuversMaintenance 88
scalar OsgEarthNet.uav[22] utilizationCountChargeState 44
scalar OsgEarthNet.uav[22] utilizationCountOverdrawnAfterMission 0
scalar OsgEarthNet.uav[22] utilizationCountIdleState 44
scalar OsgEarthNet.uav[22] utilizationFail 0
scalar OsgEarthNet.uav[22] simulationTime 259200
scalar OsgEarthNet.uav[23] utilizationSecMission 702.6942798579
scalar OsgEarthNet.uav[23] utilizationSecMaintenance 282.29565405678
scalar OsgEarthNet.uav[23] utilizationSecCharge 3670
scalar OsgEarthNet.uav[23] utilizationSecIdle 254545.00906609
scalar OsgEarthNet.uav[23] utilizationEnergyMission 3098.5598754883
scalar OsgEarthNet.uav[23] utilizationEnergyMaintenance 1469.4322929382
scalar OsgEarthNet.uav[23] utilizationEnergyCharge 4567.9921875
scalar OsgEarthNet.uav[23] utilizationEnergyOverdrawMission 0
scalar OsgEarthNet.uav[23] utilizationEnergyOverdrawMaintenance 0
scalar OsgEarthNet.uav[23] utilizationCountMissions 1
scalar OsgEarthNet.uav[23] utilizationCountManeuversMission 10
scalar OsgEarthNet.uav[23] utilizationCountManeuversMaintenance 2
scalar OsgEarthNet.uav[23] utilizationCountChargeState 1
scalar OsgEarthNet.uav[23] utilizationCountOverdrawnAfterMission 0
scalar OsgEarthNet.uav[23] utilizationCountIdleState 2
scalar OsgEarthNet.uav[23] utilizationFail 0
scalar OsgEarthNet.uav[23] simulationTime 259200
scalar OsgEarthNet.uav[24] utilizationSecMission 22837.736990416
scalar OsgEarthNet.uav[24] utilizationSecMaintenance 11535.146132451
scalar OsgEarthNet.uav[24] utilizationSecCharge 127440
scalar OsgEarthNet.uav[24] utilizationSecIdle 97387.115877133
scalar OsgEarthNet.uav[24] utilizationEnergyMission 105614.18695831
scalar OsgEarthNet.uav[24] utilizationEnergyMaintenance 54098.856773376
scalar OsgEarthNet.uav[24] utilizationEnergyCharge 160055.85009766
scalar OsgEarthNet.uav[24] utilizationEnergyOverdrawMission 0
scalar OsgEarthNet.uav[24] utilizationEnergyOverdrawMaintenance 0
scalar OsgEarthNet.uav[24] utilizationCountMissions 34
scalar OsgEarthNet.uav[24] utilizationCountManeuversMission 374
scalar OsgEarthNet.uav[24] utilizationCountManeuversMaintenance 68
scalar OsgEarthNet.uav[24] utilizationCountChargeState 34
scalar OsgEarthNet.uav[24] utilizationCountOverdrawnAfterMission 0
scalar OsgEarthNet.uav[24] utilizationCountIdleState 35
scalar OsgEarthNet.uav[24] utilizationFail 0
scalar OsgEarthNet.uav[24] simulationTime 259200
scalar OsgEarthNet.uav[25] utilizationSecMission 31175.418101929
scalar OsgEarthNet.uav[25] utilizationSecMaintenance 14185.30783479
scalar OsgEarthNet.uav[25] utilizationSecCharge 167440
scalar OsgEarthNet.uav[25] utilizationSecIdle 46399.273063281
scalar OsgEarthNet.uav[25] utilizationEnergyMission 143131.17034086
scalar OsgEarthNet.uav[25] utilizationEnergyMaintenance 66546.337093353
scalar OsgEarthNet.uav[25] utilizationEnergyCharge 209705.05419922
scalar OsgEarthNet.uav[25] utilizationEnergyOverdrawMission 0
scalar OsgEarthNet.uav[25] utilizationEnergyOverdrawMaintenance 0
scalar OsgEarthNet.uav[25] utilizationCountMissions 45
scalar OsgEarthNet.uav[25] utilizationCountManeuversMission 504
scalar OsgEarthNet.uav[25] utilizationCountManeuversMaintenance 89
scalar OsgEarthNet.uav[25] utilizationCountChargeState 45
scalar OsgEarthNet.uav[25] utilizationCountOverdrawnAfterMission 0
scalar OsgEarthNet.uav[25] utilizationCountIdleState 46
scalar OsgEarthNet.uav[25] utilizationFail 0
scalar OsgEarthNet.uav[25] simulationTime 259200
scalar OsgEarthNet.uav[26] utilizationSecMission 702.6942798579
scalar OsgEarthNet.uav[26] utilizationSecMaintenance 282.29565405678
scalar OsgEarthNet.uav[26] utilizationSecCharge 3580
scalar OsgEarthNet.uav[26] utilizationSecIdle 254635.00906609
scalar OsgEarthNet.uav[26] utilizationEnergyMission 3198.7329406738
scalar OsgEarthNet.uav[26] utilizationEnergyMaintenance 1264.6557121277
scalar OsgEarthNet.uav[26] utilizationEnergyCharge 4463.3896484375
scalar OsgEarthNet.uav[26] utilizationEnergyOverdrawMission 0
scalar OsgEarthNet.uav[26] utilizationEnergyOverdrawMaintenance 0
scalar OsgEarthNet.uav[26] utilizationCountMissions 1
scalar OsgEarthNet.uav[26] utilizationCountManeuversMission 10
scalar OsgEarthNet.uav[26] utilizationCountManeuversMaintenance 2
scalar OsgEarthNet.uav[26] utilizationCountChargeState 1
scalar OsgEarthNet.uav[26] utilizationCountOverdrawnAfterMission 0
scalar OsgEarthNet.uav[26] utilizationCountIdleState 2
scalar OsgEarthNet.uav[26] utilizationFail 0
scalar OsgEarthNet.uav[26] simulationTime 259200
scalar OsgEarthNet.uav[27] utilizationSecMission 30224.264550516
scalar OsgEarthNet.uav[27] utilizationSecMaintenance 14320.773823012
scalar OsgEarthNet.uav[27] utilizationSecCharge 162177.64554026
scalar OsgEarthNet.uav[27] utilizationSecIdle 52477.315086215
scalar OsgEarthNet.uav[27] utilizationEnergyMission 139786.89727783
scalar OsgEarthNet.uav[27] utilizationEnergyMaintenance 66984.581768036
scalar OsgEarthNet.uav[27] utilizationEnergyCharge 204127.36987305
scalar OsgEarthNet.uav[27] utilizationEnergyOverdrawMission 0
scalar OsgEarthNet.uav[27] utilizationEnergyOverdrawMaintenance 0
scalar OsgEarthNet.uav[27] utilizationCountMissions 44
scalar OsgEarthNet.uav[27] utilizationCountManeuversMission 486
scalar OsgEarthNet.uav[27] utilizationCountManeuversMaintenance 88
scalar OsgEarthNet.uav[27] utilizationCountChargeState 44
scalar OsgEarthNet.uav[27] utilizationCountOverdrawnAfterMission 0
scalar OsgEarthNet.uav[27] utilizationCountIdleState 44
scalar OsgEarthNet.uav[27] utilizationFail 0
scalar OsgEarthNet.uav[27] simulationTime 259200
scalar OsgEarthNet.uav[28] utilizationSecMission 750.20472747826
scalar OsgEarthNet.uav[28] utilizationSecMaintenance 300.8347882699
scalar OsgEarthNet.uav[28] utilizationSecCharge 3740
scalar OsgEarthNet.uav[28] utilizationSecIdle 254408.95948425
scalar OsgEarthNet.uav[28] utilizationEnergyMission 3255.9227752686
scalar OsgEarthNet.uav[28] utilizationEnergyMaintenance 1390.0668449402
scalar OsgEarthNet.uav[28] utilizationEnergyCharge 4645.98828125
scalar OsgEarthNet.uav[28] utilizationEnergyOverdrawMission 0
scalar OsgEarthNet.uav[28] utilizationEnergyOverdrawMaintenance 0
scalar OsgEarthNet.uav[28] utilizationCountMissions 1
scalar OsgEarthNet.uav[28] utilizationCountManeuversMission 11
scalar OsgEarthNet.uav[28] utilizationCountManeuversMaintenance 2
scalar OsgEarthNet.uav[28] utilizationCountChargeState 1
scalar OsgEarthNet.uav[28] utilizationCountOverdrawnAfterMission 0
scalar OsgEarthNet.uav[28] utilizationCountIdleState 2
scalar OsgEarthNet.uav[28] utilizationFail 0
scalar OsgEarthNet.uav[28] simulationTime 259200
scalar OsgEarthNet.uav[29] utilizationSecMission 28681.650266756
scalar OsgEarthNet.uav[29] utilizationSecMaintenance 13595.114984012
scalar OsgEarthNet.uav[29] utilizationSecCharge 156101.72008828
scalar OsgEarthNet.uav[29] utilizationSecIdle 60821.51366095
scalar OsgEarthNet.uav[29] utilizationEnergyMission 132461.21641541
scalar OsgEarthNet.uav[29] utilizationEnergyMaintenance 64193.996658325
scalar OsgEarthNet.uav[29] utilizationEnergyCharge 195835.80712891
scalar OsgEarthNet.uav[29] utilizationEnergyOverdrawMission 0
scalar OsgEarthNet.uav[29] utilizationEnergyOverdrawMaintenance 0
scalar OsgEarthNet.uav[29] utilizationCountMissions 42
scalar OsgEarthNet.uav[29] utilizationCountManeuversMission 462
scalar OsgEarthNet.uav[29] utilizationCountManeuversMaintenance 84
scalar OsgEarthNet.uav[29] utilizationCountChargeState 42
scalar OsgEarthNet.uav[29] utilizationCountOverdrawnAfterMission 0
scalar OsgEarthNet.uav[29] utilizationCountIdleState 42
scalar OsgEarthNet.uav[29] utilizationFail 0
scalar OsgEarthNet.uav[29] simulationTime 259200
scalar OsgEarthNet.uav[30] utilizationSecMission 760.62515258028
scalar OsgEarthNet.uav[30] utilizationSecMaintenance 291.95923480269
scalar OsgEarthNet.uav[30] utilizationSecCharge 3900
scalar OsgEarthNet.uav[30] utilizationSecIdle 254247.41461262
scalar OsgEarthNet.uav[30] utilizationEnergyMission 3513.9241027832
scalar OsgEarthNet.uav[30] utilizationEnergyMaintenance 1452.2782821655
scalar OsgEarthNet.uav[30] utilizationEnergyCharge 4966.2026367188
scalar OsgEarthNet.uav[30] utilizationEnergyOverdrawMission 0
scalar OsgEarthNet.uav[30] utilizationEnergyOverdrawMaintenance 0
scalar OsgEarthNet.uav[30] utilizationCountMissions 1
scalar OsgEarthNet.uav[30] utilizationCountManeuversMission 12
scalar OsgEarthNet.uav[30] utilizationCountManeuversMaintenance 2
scalar OsgEarthNet.uav[30] utilizationCountChargeState 1
scalar OsgEarthNet.uav[30] utilizationCountOverdrawnAfterMission 0
scalar OsgEarthNet.uav[30] utilizationCountIdleState 2
scalar OsgEarthNet.uav[30] utilizationFail 0
scalar OsgEarthNet.uav[30] simulationTime 259200
scalar OsgEarthNet.uav[31] utilizationSecMission 27405.233363737
scalar OsgEarthNet.uav[31] utilizationSecMaintenance 13680.248447998
scalar OsgEarthNet.uav[31] utilizationSecCharge 150265.78274326
scalar OsgEarthNet.uav[31] utilizationSecIdle 67848.734445004
scalar OsgEarthNet.uav[31] utilizationEnergyMission 128013.50850677
scalar OsgEarthNet.uav[31] utilizationEnergyMaintenance 63340.531593323
scalar OsgEarthNet.uav[31] utilizationEnergyCharge 189049.99487305
scalar OsgEarthNet.uav[31] utilizationEnergyOverdrawMission 0
scalar OsgEarthNet.uav[31] utilizationEnergyOverdrawMaintenance 0
scalar OsgEarthNet.uav[31] utilizationCountMissions 41
scalar OsgEarthNet.uav[31] utilizationCountManeuversMission 443
scalar OsgEarthNet.uav[31] utilizationCountManeuversMaintenance 82
scalar OsgEarthNet.uav[31] utilizationCountChargeState 41
scalar OsgEarthNet.uav[31] utilizationCountOverdrawnAfterMission 0
scalar OsgEarthNet.uav[31] utilizationCountIdleState 41
scalar OsgEarthNet.uav[31] utilizationFail 0
scalar OsgEarthNet.uav[31] simulationTime 259200
scalar OsgEarthNet.uav[32] utilizationSecMission 1581.1758029604
scalar OsgEarthNet.uav[32] utilizationSecMaintenance 449.83648892254
scalar OsgEarthNet.uav[32] utilizationSecCharge 7610
scalar OsgEarthNet.uav[32] utilizationSecIdle 249558.98670812
scalar OsgEarthNet.uav[32] utilizationEnergyMission 7458.2852325439
scalar OsgEarthNet.uav[32] utilizationEnergyMaintenance 1927.7666053772
scalar OsgEarthNet.uav[32] utilizationEnergyCharge 9545.9116210938
scalar OsgEarthNet.uav[32] utilizationEnergyOverdrawMission 0
scalar OsgEarthNet.uav[32] utilizationEnergyOverdrawMaintenance 0
scalar OsgEarthNet.uav[32] utilizationCountMissions 2
scalar OsgEarthNet.uav[32] utilizationCountManeuversMission 27
scalar OsgEarthNet.uav[32] utilizationCountManeuversMaintenance 4
scalar OsgEarthNet.uav[32] utilizationCountChargeState 2
scalar OsgEarthNet.uav[32] utilizationCountOverdrawnAfterMission 0
scalar OsgEarthNet.uav[32] utilizationCountIdleState 3
scalar OsgEarthNet.uav[32] utilizationFail 0
scalar OsgEarthNet.uav[32] simulationTime 259200
scalar OsgEarthNet.uav[33] utilizationSecMission 684.4732299383
scalar OsgEarthNet.uav[33] utilizationSecMaintenance 298.56834692969
scalar OsgEarthNet.uav[33] utilizationSecCharge 3810
scalar OsgEarthNet.uav[33] utilizationSecIdle 254406.95742313
scalar OsgEarthNet.uav[33] utilizationEnergyMission 3289.6503143311
scalar OsgEarthNet.uav[33] utilizationEnergyMaintenance 1531.822593689
scalar OsgEarthNet.uav[33] utilizationEnergyCharge 4821.4677734375
scalar OsgEarthNet.uav[33] utilizationEnergyOverdrawMission 0
scalar OsgEarthNet.uav[33] utilizationEnergyOverdrawMaintenance 0
scalar OsgEarthNet.uav[33] utilizationCountMissions 1
scalar OsgEarthNet.uav[33] utilizationCountManeuversMission 11
scalar OsgEarthNet.uav[33] utilizationCountManeuversMaintenance 2
scalar OsgEarthNet.uav[33] utilizationCountChargeState 1
scalar OsgEarthNet.uav[33] utilizationCountOverdrawnAfterMission 0
scalar OsgEarthNet.uav[33] utilizationCountIdleState 2
scalar OsgEarthNet.uav[33] utilizationFail 0
scalar OsgEarthNet.uav[33] simulationTime 259200
scalar OsgEarthNet.uav[34] utilizationSecMission 27415.815228462
scalar OsgEarthNet.uav[34] utilizationSecMaintenance 14034.075994124
scalar OsgEarthNet.uav[34] utilizationSecCharge 152145.74268117
scalar OsgEarthNet.uav[34] utilizationSecIdle 65604.36509624
scalar OsgEarthNet.uav[34] utilizationEnergyMission 127308.86941528
scalar OsgEarthNet.uav[34] utilizationEnergyMaintenance 65805.5782547
scalar OsgEarthNet.uav[34] utilizationEnergyCharge 190705.21191406
scalar OsgEarthNet.uav[34] utilizationEnergyOverdrawMission 0
scalar OsgEarthNet.uav[34] utilizationEnergyOverdrawMaintenance 0
scalar OsgEarthNet.uav[34] utilizationCountMissions 42
scalar OsgEarthNet.uav[34] utilizationCountManeuversMission 453
scalar OsgEarthNet.uav[34] utilizationCountManeuversMaintenance 84
scalar OsgEarthNet.uav[34] utilizationCountChargeState 42
scalar OsgEarthNet.uav[34] utilizationCountOverdrawnAfterMission 0
scalar OsgEarthNet.uav[34] utilizationCountIdleState 42
scalar OsgEarthNet.uav[34] utilizationFail 0
scalar OsgEarthNet.uav[34] simulationTime 259200
scalar OsgEarthNet.uav[35] utilizationSecMission 694.00169469977
scalar OsgEarthNet.uav[35] utilizationSecMaintenance 282.18572599206
scalar OsgEarthNet.uav[35] utilizationSecCharge 3690
scalar OsgEarthNet.uav[35] utilizationSecIdle 254533.81157931
scalar OsgEarthNet.uav[35] utilizationEnergyMission 3266.9459152222
scalar OsgEarthNet.uav[35] utilizationEnergyMaintenance 1312.684715271
scalar OsgEarthNet.uav[35] utilizationEnergyCharge 4579.6318359375
scalar OsgEarthNet.uav[35] utilizationEnergyOverdrawMission 0
scalar OsgEarthNet.uav[35] utilizationEnergyOverdrawMaintenance 0
scalar OsgEarthNet.uav[35] utilizationCountMissions 1
scalar OsgEarthNet.uav[35] utilizationCountManeuversMission 13
scalar OsgEarthNet.uav[35] utilizationCountManeuversMaintenance 2
scalar OsgEarthNet.uav[35] utilizationCountChargeState 1
scalar OsgEarthNet.uav[35] utilizationCountOverdrawnAfterMission 0
scalar OsgEarthNet.uav[35] utilizationCountIdleState 2
scalar OsgEarthNet.uav[35] utilizationFail 0
scalar OsgEarthNet.uav[35] simulationTime 259200
scalar OsgEarthNet.uav[36] utilizationSecMission 28713.980000215
scalar OsgEarthNet.uav[36] utilizationSecMaintenance 13640.877051003
scalar OsgEarthNet.uav[36] utilizationSecCharge 154252.37598344
scalar OsgEarthNet.uav[36] utilizationSecIdle 62592.765965339
scalar OsgEarthNet.uav[36] utilizationEnergyMission 131778.61619949
scalar OsgEarthNet.uav[36] utilizationEnergyMaintenance 63268.007118225
scalar OsgEarthNet.uav[36] utilizationEnergyCharge 193869.50146484
scalar OsgEarthNet.uav[36] utilizationEnergyOverdrawMission 0
scalar OsgEarthNet.uav[36] utilizationEnergyOverdrawMaintenance 0
scalar OsgEarthNet.uav[36] utilizationCountMissions 42
scalar OsgEarthNet.uav[36] utilizationCountManeuversMission 465
scalar OsgEarthNet.uav[36] utilizationCountManeuversMaintenance 84
scalar OsgEarthNet.uav[36] utilizationCountChargeState 42
scalar OsgEarthNet.uav[36] utilizationCountOverdrawnAfterMission 0
scalar OsgEarthNet.uav[36] utilizationCountIdleState 42
scalar OsgEarthNet.uav[36] utilizationFail 0
scalar OsgEarthNet.uav[36] simulationTime 259200
scalar OsgEarthNet.uav[37] utilizationSecMission 29720.573341591
scalar OsgEarthNet.uav[37] utilizationSecMaintenance 15049.407313402
scalar OsgEarthNet.uav[37] utilizationSecCharge 163078.96251951
scalar OsgEarthNet.uav[37] utilizationSecIdle 51351.055825492
scalar OsgEarthNet.uav[37] utilizationEnergyMission 137384.45343018
scalar OsgEarthNet.uav[37] utilizationEnergyMaintenance 71016.186908722
scalar OsgEarthNet.uav[37] utilizationEnergyCharge 204238.11773682
scalar OsgEarthNet.uav[37] utilizationEnergyOverdrawMission 0
scalar OsgEarthNet.uav[37] utilizationEnergyOverdrawMaintenance 0
scalar OsgEarthNet.uav[37] utilizationCountMissions 45
scalar OsgEarthNet.uav[37] utilizationCountManeuversMission 488
scalar OsgEarthNet.uav[37] utilizationCountManeuversMaintenance 90
scalar OsgEarthNet.uav[37] utilizationCountChargeState 45
scalar OsgEarthNet.uav[37] utilizationCountOverdrawnAfterMission 0
scalar OsgEarthNet.uav[37] utilizationCountIdleState 45
scalar OsgEarthNet.uav[37] utilizationFail 0
scalar OsgEarthNet.uav[37] simulationTime 259200
scalar OsgEarthNet.uav[38] utilizationSecMission 31463.489810286
scalar OsgEarthNet.uav[38] utilizationSecMaintenance 13044.954249119
scalar OsgEarthNet.uav[38] utilizationSecCharge 162809.55494059
scalar OsgEarthNet.uav[38] utilizationSecIdle 51882
scalar OsgEarthNet.uav[38] utilizationEnergyMission 147224.34232924
scalar OsgEarthNet.uav[38] utilizationEnergyMaintenance 59943.274017334
scalar OsgEarthNet.uav[38] utilizationEnergyCharge 205175.48950195
scalar OsgEarthNet.uav[38] utilizationEnergyOverdrawMission 0
scalar OsgEarthNet.uav[38] utilizationEnergyOverdrawMaintenance 0
scalar OsgEarthNet.uav[38] utilizationCountMissions 44
scalar OsgEarthNet.uav[38] utilizationCountManeuversMission 508
scalar OsgEarthNet.uav[38] utilizationCountManeuversMaintenance 87
scalar OsgEarthNet.uav[38] utilizationCountChargeState 44
scalar OsgEarthNet.uav[38] utilizationCountOverdrawnAfterMission 0
scalar OsgEarthNet.uav[38] utilizationCountIdleState 44
scalar OsgEarthNet.uav[38] utilizationFail 0
scalar OsgEarthNet.uav[38] simulationTime 259200
scalar OsgEarthNet.uav[39] utilizationSecMission 684.4732299383
scalar OsgEarthNet.uav[39] utilizationSecMaintenance 298.56834692969
scalar OsgEarthNet.uav[39] utilizationSecCharge 3710
scalar OsgEarthNet.uav[39] utilizationSecIdle 254506.95742313
scalar OsgEarthNet.uav[39] utilizationEnergyMission 3266.4627838135
scalar OsgEarthNet.uav[39] utilizationEnergyMaintenance 1347.9978256226
scalar OsgEarthNet.uav[39] utilizationEnergyCharge 4614.4584960938
scalar OsgEarthNet.uav[39] utilizationEnergyOverdrawMission 0
scalar OsgEarthNet.uav[39] utilizationEnergyOverdrawMaintenance 0
scalar OsgEarthNet.uav[39] utilizationCountMissions 1
scalar OsgEarthNet.uav[39] utilizationCountManeuversMission 11
scalar OsgEarthNet.uav[39] utilizationCountManeuversMaintenance 2
scalar OsgEarthNet.uav[39] utilizationCountChargeState 1
scalar OsgEarthNet.uav[39] utilizationCountOverdrawnAfterMission 0
scalar OsgEarthNet.uav[39] utilizationCountIdleState 2
scalar OsgEarthNet.uav[39] utilizationFail 0
scalar OsgEarthNet.uav[39] simulationTime 259200
scalar OsgEarthNet.uav[40] utilizationSecMission 648.09208854277
scalar OsgEarthNet.uav[40] utilizationSecMaintenance 452.13003754036
scalar OsgEarthNet.uav[40] utilizationSecCharge 3840
scalar OsgEarthNet.uav[40] utilizationSecIdle 254259.77687392
scalar OsgEarthNet.uav[40] utilizationEnergyMission 2839.4291687012
scalar OsgEarthNet.uav[40] utilizationEnergyMaintenance 1901.4737663269
scalar OsgEarthNet.uav[40] utilizationEnergyCharge 4846.4506835938
scalar OsgEarthNet.uav[40] utilizationEnergyOverdrawMission 0
scalar OsgEarthNet.uav[40] utilizationEnergyOverdrawMaintenance 0
scalar OsgEarthNet.uav[40] utilizationCountMissions 1
scalar OsgEarthNet.uav[40] utilizationCountManeuversMission 10
scalar OsgEarthNet.uav[40] utilizationCountManeuversMaintenance 2
scalar OsgEarthNet.uav[40] utilizationCountChargeState 1
scalar OsgEarthNet.uav[40] utilizationCountOverdrawnAfterMission 0
scalar OsgEarthNet.uav[40] utilizationCountIdleState 2
scalar OsgEarthNet.uav[40] utilizationFail 0
scalar OsgEarthNet.uav[40] simulationTime 259200
scalar OsgEarthNet.uav[41] utilizationSecMission 698.45058753696
scalar OsgEarthNet.uav[41] utilizationSecMaintenance 321.40558798357
scalar OsgEarthNet.uav[41] utilizationSecCharge 3910
scalar OsgEarthNet.uav[41] utilizationSecIdle 254270.14282448
scalar OsgEarthNet.uav[41] utilizationEnergyMission 3286.8448638916
scalar OsgEarthNet.uav[41] utilizationEnergyMaintenance 1663.673789978
scalar OsgEarthNet.uav[41] utilizationEnergyCharge 4950.517578125
scalar OsgEarthNet.uav[41] utilizationEnergyOverdrawMission 0
scalar OsgEarthNet.uav[41] utilizationEnergyOverdrawMaintenance 0
scalar OsgEarthNet.uav[41] utilizationCountMissions 1
scalar OsgEarthNet.uav[41] utilizationCountManeuversMission 11
scalar OsgEarthNet.uav[41] utilizationCountManeuversMaintenance 2
scalar OsgEarthNet.uav[41] utilizationCountChargeState 1
scalar OsgEarthNet.uav[41] utilizationCountOverdrawnAfterMission 0
scalar OsgEarthNet.uav[41] utilizationCountIdleState 2
scalar OsgEarthNet.uav[41] utilizationFail 0
scalar OsgEarthNet.uav[41] simulationTime 259200
scalar OsgEarthNet.uav[42] utilizationSecMission 621.17604176187
scalar OsgEarthNet.uav[42] utilizationSecMaintenance 313.76167006775
scalar OsgEarthNet.uav[42] utilizationSecCharge 3600
scalar OsgEarthNet.uav[42] utilizationSecIdle 254665.06128817
scalar OsgEarthNet.uav[42] utilizationEnergyMission 2960.697845459
scalar OsgEarthNet.uav[42] utilizationEnergyMaintenance 1488.1662101746
scalar OsgEarthNet.uav[42] utilizationEnergyCharge 4448.8637695312
scalar OsgEarthNet.uav[42] utilizationEnergyOverdrawMission 0
scalar OsgEarthNet.uav[42] utilizationEnergyOverdrawMaintenance 0
scalar OsgEarthNet.uav[42] utilizationCountMissions 1
scalar OsgEarthNet.uav[42] utilizationCountManeuversMission 12
scalar OsgEarthNet.uav[42] utilizationCountManeuversMaintenance 2
scalar OsgEarthNet.uav[42] utilizationCountChargeState 1
scalar OsgEarthNet.uav[42] utilizationCountOverdrawnAfterMission 0
scalar OsgEarthNet.uav[42] utilizationCountIdleState 2
scalar OsgEarthNet.uav[42] utilizationFail 0
scalar OsgEarthNet.uav[42] simulationTime 259200
scalar OsgEarthNet.uav[43] utilizationSecMission 750.20472747826
scalar OsgEarthNet.uav[43] utilizationSecMaintenance 335.16822070369
scalar OsgEarthNet.uav[43] utilizationSecCharge 3950
scalar OsgEarthNet.uav[43] utilizationSecIdle 254164.62605182
scalar OsgEarthNet.uav[43] utilizationEnergyMission 3441.8448638916
scalar OsgEarthNet.uav[43] utilizationEnergyMaintenance 1543.2180290222
scalar OsgEarthNet.uav[43] utilizationEnergyCharge 4985.0634765625
scalar OsgEarthNet.uav[43] utilizationEnergyOverdrawMission 0
scalar OsgEarthNet.uav[43] utilizationEnergyOverdrawMaintenance 0
scalar OsgEarthNet.uav[43] utilizationCountMissions 1
scalar OsgEarthNet.uav[43] utilizationCountManeuversMission 11
scalar OsgEarthNet.uav[43] utilizationCountManeuversMaintenance 2
scalar OsgEarthNet.uav[43] utilizationCountChargeState 1
scalar OsgEarthNet.uav[43] utilizationCountOverdrawnAfterMission 0
scalar OsgEarthNet.uav[43] utilizationCountIdleState 2
scalar OsgEarthNet.uav[43] utilizationFail 0
scalar OsgEarthNet.uav[43] simulationTime 259200
scalar OsgEarthNet.uav[44] utilizationSecMission 8627.4356254987
scalar OsgEarthNet.uav[44] utilizationSecMaintenance 4225.8978781917
scalar OsgEarthNet.uav[44] utilizationSecCharge 48560
scalar OsgEarthNet.uav[44] utilizationSecIdle 197786.66549631
scalar OsgEarthNet.uav[44] utilizationEnergyMission 40712.9610672
scalar OsgEarthNet.uav[44] utilizationEnergyMaintenance 20212.933254242
scalar OsgEarthNet.uav[44] utilizationEnergyCharge 60941.614257812
scalar OsgEarthNet.uav[44] utilizationEnergyOverdrawMission 0
scalar OsgEarthNet.uav[44] utilizationEnergyOverdrawMaintenance 0
scalar OsgEarthNet.uav[44] utilizationCountMissions 13
scalar OsgEarthNet.uav[44] utilizationCountManeuversMission 144
scalar OsgEarthNet.uav[44] utilizationCountManeuversMaintenance 26
scalar OsgEarthNet.uav[44] utilizationCountChargeState 13
scalar OsgEarthNet.uav[44] utilizationCountOverdrawnAfterMission 0
scalar OsgEarthNet.uav[44] utilizationCountIdleState 14
scalar OsgEarthNet.uav[44] utilizationFail 0
scalar OsgEarthNet.uav[44] simulationTime 259200
scalar OsgEarthNet.uav[45] utilizationSecMission 929.66633852757
scalar OsgEarthNet.uav[45] utilizationSecMaintenance 183.39004742748
scalar OsgEarthNet.uav[45] utilizationSecCharge 3840
scalar OsgEarthNet.uav[45] utilizationSecIdle 254246.94261404
scalar OsgEarthNet.uav[45] utilizationEnergyMission 4347.465133667
scalar OsgEarthNet.uav[45] utilizationEnergyMaintenance 771.6432723999
scalar OsgEarthNet.uav[45] utilizationEnergyCharge 4859.29296875
scalar OsgEarthNet.uav[45] utilizationEnergyOverdrawMission 0
scalar OsgEarthNet.uav[45] utilizationEnergyOverdrawMaintenance 0
scalar OsgEarthNet.uav[45] utilizationCountMissions 1
scalar OsgEarthNet.uav[45] utilizationCountManeuversMission 15
scalar OsgEarthNet.uav[45] utilizationCountManeuversMaintenance 2
scalar OsgEarthNet.uav[45] utilizationCountChargeState 1
scalar OsgEarthNet.uav[45] utilizationCountOverdrawnAfterMission 0
scalar OsgEarthNet.uav[45] utilizationCountIdleState 2
scalar OsgEarthNet.uav[45] utilizationFail 0
scalar OsgEarthNet.uav[45] simulationTime 259200
scalar OsgEarthNet.uav[46] utilizationSecMission 760.62515258028
scalar OsgEarthNet.uav[46] utilizationSecMaintenance 291.95923480269
scalar OsgEarthNet.uav[46] utilizationSecCharge 3830
scalar OsgEarthNet.uav[46] utilizationSecIdle 254317.41461262
scalar OsgEarthNet.uav[46] utilizationEnergyMission 3445.2553634644
scalar OsgEarthNet.uav[46] utilizationEnergyMaintenance 1357.9460372925
scalar OsgEarthNet.uav[46] utilizationEnergyCharge 4803.1977539062
scalar OsgEarthNet.uav[46] utilizationEnergyOverdrawMission 0
scalar OsgEarthNet.uav[46] utilizationEnergyOverdrawMaintenance 0
scalar OsgEarthNet.uav[46] utilizationCountMissions 1
scalar OsgEarthNet.uav[46] utilizationCountManeuversMission 12
scalar OsgEarthNet.uav[46] utilizationCountManeuversMaintenance 2
scalar OsgEarthNet.uav[46] utilizationCountChargeState 1
scalar OsgEarthNet.uav[46] utilizationCountOverdrawnAfterMission 0
scalar OsgEarthNet.uav[46] utilizationCountIdleState 2
scalar OsgEarthNet.uav[46] utilizationFail 0
scalar OsgEarthNet.uav[46] simulationTime 259200
scalar OsgEarthNet.uav[47] utilizationSecMission 28912.724598745
scalar OsgEarthNet.uav[47] utilizationSecMaintenance 12735.664773021
scalar OsgEarthNet.uav[47] utilizationSecCharge 149849.23912857
scalar OsgEarthNet.uav[47] utilizationSecIdle 67702.37049966
scalar OsgEarthNet.uav[47] utilizationEnergyMission 132771.2965126
scalar OsgEarthNet.uav[47] utilizationEnergyMaintenance 59585.972866058
scalar OsgEarthNet.uav[47] utilizationEnergyCharge 188113.67175293
scalar OsgEarthNet.uav[47] utilizationEnergyOverdrawMission 0
scalar OsgEarthNet.uav[47] utilizationEnergyOverdrawMaintenance 0
scalar OsgEarthNet.uav[47] utilizationCountMissions 41
scalar OsgEarthNet.uav[47] utilizationCountManeuversMission 470
scalar OsgEarthNet.uav[47] utilizationCountManeuversMaintenance 82
scalar OsgEarthNet.uav[47] utilizationCountChargeState 41
scalar OsgEarthNet.uav[47] utilizationCountOverdrawnAfterMission 0
scalar OsgEarthNet.uav[47] utilizationCountIdleState 41
scalar OsgEarthNet.uav[47] utilizationFail 0
scalar OsgEarthNet.uav[47] simulationTime 259200
scalar OsgEarthNet.uav[48] utilizationSecMission 694.00169469977
scalar OsgEarthNet.uav[48] utilizationSecMaintenance 282.18572599206
scalar OsgEarthNet.uav[48] utilizationSecCharge 3710
scalar OsgEarthNet.uav[48] utilizationSecIdle 254513.81157931
scalar OsgEarthNet.uav[48] utilizationEnergyMission 3244.6263046265
scalar OsgEarthNet.uav[48] utilizationEnergyMaintenance 1387.3625717163
scalar OsgEarthNet.uav[48] utilizationEnergyCharge 4631.98828125
scalar OsgEarthNet.uav[48] utilizationEnergyOverdrawMission 0
scalar OsgEarthNet.uav[48] utilizationEnergyOverdrawMaintenance 0
scalar OsgEarthNet.uav[48] utilizationCountMissions 1
scalar OsgEarthNet.uav[48] utilizationCountManeuversMission 13
scalar OsgEarthNet.uav[48] utilizationCountManeuversMaintenance 2
scalar OsgEarthNet.uav[48] utilizationCountChargeState 1
scalar OsgEarthNet.uav[48] utilizationCountOverdrawnAfterMission 0
scalar OsgEarthNet.uav[48] utilizationCountIdleState 2
scalar OsgEarthNet.uav[48] utilizationFail 0
scalar OsgEarthNet.uav[48] simulationTime 259200
scalar OsgEarthNet.uav[49] utilizationSecMission 836.77707522227
scalar OsgEarthNet.uav[49] utilizationSecMaintenance 217.0347828456
scalar OsgEarthNet.uav[49] utilizationSecCharge 3910
scalar OsgEarthNet.uav[49] utilizationSecIdle 254236.18714193
scalar OsgEarthNet.uav[49] utilizationEnergyMission 3866.7051849365
scalar OsgEarthNet.uav[49] utilizationEnergyMaintenance 1077.0839042664
scalar OsgEarthNet.uav[49] utilizationEnergyCharge 4943.7905273438
scalar OsgEarthNet.uav[49] utilizationEnergyOverdrawMission 0
scalar OsgEarthNet.uav[49] utilizationEnergyOverdrawMaintenance 0
scalar OsgEarthNet.uav[49] utilizationCountMissions 1
scalar OsgEarthNet.uav[49] utilizationCountManeuversMission 13
scalar OsgEarthNet.uav[49] utilizationCountManeuversMaintenance 2
scalar OsgEarthNet.uav[49] utilizationCountChargeState 1
scalar OsgEarthNet.uav[49] utilizationCountOverdrawnAfterMission 0
scalar OsgEarthNet.uav[49] utilizationCountIdleState 2
scalar OsgEarthNet.uav[49] utilizationFail 0
scalar OsgEarthNet.uav[49] simulationTime 259200
scalar OsgEarthNet.uav[50] utilizationSecMission 702.6942798579
scalar OsgEarthNet.uav[50] utilizationSecMaintenance 282.29565405678
scalar OsgEarthNet.uav[50] utilizationSecCharge 3680
scalar OsgEarthNet.uav[50] utilizationSecIdle 254535.00906609
scalar OsgEarthNet.uav[50] utilizationEnergyMission 3273.8473358154
scalar OsgEarthNet.uav[50] utilizationEnergyMaintenance 1309.0075187683
scalar OsgEarthNet.uav[50] utilizationEnergyCharge 4582.8569335938
scalar OsgEarthNet.uav[50] utilizationEnergyOverdrawMission 0
scalar OsgEarthNet.uav[50] utilizationEnergyOverdrawMaintenance 0
scalar OsgEarthNet.uav[50] utilizationCountMissions 1
scalar OsgEarthNet.uav[50] utilizationCountManeuversMission 10
scalar OsgEarthNet.uav[50] utilizationCountManeuversMaintenance 2
scalar OsgEarthNet.uav[50] utilizationCountChargeState 1
scalar OsgEarthNet.uav[50] utilizationCountOverdrawnAfterMission 0
scalar OsgEarthNet.uav[50] utilizationCountIdleState 2
scalar OsgEarthNet.uav[50] utilizationFail 0
scalar OsgEarthNet.uav[50] simulationTime 259200
scalar OsgEarthNet.uav[51] utilizationSecMission 28145.583861577
scalar OsgEarthNet.uav[51] utilizationSecMaintenance 13672.833611531
scalar OsgEarthNet.uav[51] utilizationSecCharge 155050.42205301
scalar OsgEarthNet.uav[51] utilizationSecIdle 62331.159473879
scalar OsgEarthNet.uav[51] utilizationEnergyMission 129828.68378067
scalar OsgEarthNet.uav[51] utilizationEnergyMaintenance 64783.554359436
scalar OsgEarthNet.uav[51] utilizationEnergyCharge 194375.34570312
scalar OsgEarthNet.uav[51] utilizationEnergyOverdrawMission 0
scalar OsgEarthNet.uav[51] utilizationEnergyOverdrawMaintenance 0
scalar OsgEarthNet.uav[51] utilizationCountMissions 42
scalar OsgEarthNet.uav[51] utilizationCountManeuversMission 462
scalar OsgEarthNet.uav[51] utilizationCountManeuversMaintenance 84
scalar OsgEarthNet.uav[51] utilizationCountChargeState 42
scalar OsgEarthNet.uav[51] utilizationCountOverdrawnAfterMission 0
scalar OsgEarthNet.uav[51] utilizationCountIdleState 42
scalar OsgEarthNet.uav[51] utilizationFail 0
scalar OsgEarthNet.uav[51] simulationTime 259200
scalar OsgEarthNet.uav[52] utilizationSecMission 30555.574817588
scalar OsgEarthNet.uav[52] utilizationSecMaintenance 14811.414883585
scalar OsgEarthNet.uav[52] utilizationSecCharge 167776.97320006
scalar OsgEarthNet.uav[52] utilizationSecIdle 46056.036098769
scalar OsgEarthNet.uav[52] utilizationEnergyMission 142281.7146759
scalar OsgEarthNet.uav[52] utilizationEnergyMaintenance 69739.274852753
scalar OsgEarthNet.uav[52] utilizationEnergyCharge 211709.89355469
scalar OsgEarthNet.uav[52] utilizationEnergyOverdrawMission 0
scalar OsgEarthNet.uav[52] utilizationEnergyOverdrawMaintenance 0
scalar OsgEarthNet.uav[52] utilizationCountMissions 45
scalar OsgEarthNet.uav[52] utilizationCountManeuversMission 492
scalar OsgEarthNet.uav[52] utilizationCountManeuversMaintenance 90
scalar OsgEarthNet.uav[52] utilizationCountChargeState 45
scalar OsgEarthNet.uav[52] utilizationCountOverdrawnAfterMission 0
scalar OsgEarthNet.uav[52] utilizationCountIdleState 45
scalar OsgEarthNet.uav[52] utilizationFail 0
scalar OsgEarthNet.uav[52] simulationTime 259200
scalar OsgEarthNet.uav[53] utilizationSecMission 27670.705328626
scalar OsgEarthNet.uav[53] utilizationSecMaintenance 13962.516931395
scalar OsgEarthNet.uav[53] utilizationSecCharge 152744.63692683
scalar OsgEarthNet.uav[53] utilizationSecIdle 64822.139813144
scalar OsgEarthNet.uav[53] utilizationEnergyMission 128526.04434967
scalar OsgEarthNet.uav[53] utilizationEnergyMaintenance 66040.149887085
scalar OsgEarthNet.uav[53] utilizationEnergyCharge 191526.01159668
scalar OsgEarthNet.uav[53] utilizationEnergyOverdrawMission 0
scalar OsgEarthNet.uav[53] utilizationEnergyOverdrawMaintenance 0
scalar OsgEarthNet.uav[53] utilizationCountMissions 42
scalar OsgEarthNet.uav[53] utilizationCountManeuversMission 439
scalar OsgEarthNet.uav[53] utilizationCountManeuversMaintenance 84
scalar OsgEarthNet.uav[53] utilizationCountChargeState 42
scalar OsgEarthNet.uav[53] utilizationCountOverdrawnAfterMission 0
scalar OsgEarthNet.uav[53] utilizationCountIdleState 42
scalar OsgEarthNet.uav[53] utilizationFail 0
scalar OsgEarthNet.uav[53] simulationTime 259200
scalar OsgEarthNet.uav[54] utilizationSecMission 24011.574500001
scalar OsgEarthNet.uav[54] utilizationSecMaintenance 13846.803275176
scalar OsgEarthNet.uav[54] utilizationSecCharge 141360
scalar OsgEarthNet.uav[54] utilizationSecIdle 79981.621224823
scalar OsgEarthNet.uav[54] utilizationEnergyMission 111303.93223572
scalar OsgEarthNet.uav[54] utilizationEnergyMaintenance 65588.073482513
scalar OsgEarthNet.uav[54] utilizationEnergyCharge 177034.79150391
scalar OsgEarthNet.uav[54] utilizationEnergyOverdrawMission 0
scalar OsgEarthNet.uav[54] utilizationEnergyOverdrawMaintenance 0
scalar OsgEarthNet.uav[54] utilizationCountMissions 38
scalar OsgEarthNet.uav[54] utilizationCountManeuversMission 405
scalar OsgEarthNet.uav[54] utilizationCountManeuversMaintenance 76
scalar OsgEarthNet.uav[54] utilizationCountChargeState 38
scalar OsgEarthNet.uav[54] utilizationCountOverdrawnAfterMission 0
scalar OsgEarthNet.uav[54] utilizationCountIdleState 39
scalar OsgEarthNet.uav[54] utilizationFail 0
scalar OsgEarthNet.uav[54] simulationTime 259200
scalar OsgEarthNet.uav[55] utilizationSecMission 27876.068611349
scalar OsgEarthNet.uav[55] utilizationSecMaintenance 12431.98976841
scalar OsgEarthNet.uav[55] utilizationSecCharge 147329.818883
scalar OsgEarthNet.uav[55] utilizationSecIdle 71562.121737246
scalar OsgEarthNet.uav[55] utilizationEnergyMission 129640.5151062
scalar OsgEarthNet.uav[55] utilizationEnergyMaintenance 58730.316253662
scalar OsgEarthNet.uav[55] utilizationEnergyCharge 185657.0703125
scalar OsgEarthNet.uav[55] utilizationEnergyOverdrawMission 0
scalar OsgEarthNet.uav[55] utilizationEnergyOverdrawMaintenance 0
scalar OsgEarthNet.uav[55] utilizationCountMissions 40
scalar OsgEarthNet.uav[55] utilizationCountManeuversMission 457
scalar OsgEarthNet.uav[55] utilizationCountManeuversMaintenance 80
scalar OsgEarthNet.uav[55] utilizationCountChargeState 40
scalar OsgEarthNet.uav[55] utilizationCountOverdrawnAfterMission 0
scalar OsgEarthNet.uav[55] utilizationCountIdleState 40
scalar OsgEarthNet.uav[55] utilizationFail 0
scalar OsgEarthNet.uav[55] simulationTime 259200
scalar OsgEarthNet.uav[56] utilizationSecMission 3665.6109832514
scalar OsgEarthNet.uav[56] utilizationSecMaintenance 1341.5018339332
scalar OsgEarthNet.uav[56] utilizationSecCharge 18620
scalar OsgEarthNet.uav[56] utilizationSecIdle 235572.88618282
scalar OsgEarthNet.uav[56] utilizationEnergyMission 17072.539306641
scalar OsgEarthNet.uav[56] utilizationEnergyMaintenance 6176.5046157837
scalar OsgEarthNet.uav[56] utilizationEnergyCharge 23330.972167969
scalar OsgEarthNet.uav[56] utilizationEnergyOverdrawMission 0
scalar OsgEarthNet.uav[56] utilizationEnergyOverdrawMaintenance 0
scalar OsgEarthNet.uav[56] utilizationCountMissions 5
scalar OsgEarthNet.uav[56] utilizationCountManeuversMission 58
scalar OsgEarthNet.uav[56] utilizationCountManeuversMaintenance 10
scalar OsgEarthNet.uav[56] utilizationCountChargeState 5
scalar OsgEarthNet.uav[56] utilizationCountOverdrawnAfterMission 0
scalar OsgEarthNet.uav[56] utilizationCountIdleState 6
scalar OsgEarthNet.uav[56] utilizationFail 0
scalar OsgEarthNet.uav[56] simulationTime 259200
scalar OsgEarthNet.uav[57] utilizationSecMission 28552.285885871
scalar OsgEarthNet.uav[57] utilizationSecMaintenance 13735.987844735
scalar OsgEarthNet.uav[57] utilizationSecCharge 156017.3466646
scalar OsgEarthNet.uav[57] utilizationSecIdle 60894.378604791
scalar OsgEarthNet.uav[57] utilizationEnergyMission 132098.95113754
scalar OsgEarthNet.uav[57] utilizationEnergyMaintenance 64149.66002655
scalar OsgEarthNet.uav[57] utilizationEnergyCharge 196483.07177734
scalar OsgEarthNet.uav[57] utilizationEnergyOverdrawMission 0
scalar OsgEarthNet.uav[57] utilizationEnergyOverdrawMaintenance 0
scalar OsgEarthNet.uav[57] utilizationCountMissions 42
scalar OsgEarthNet.uav[57] utilizationCountManeuversMission 473
scalar OsgEarthNet.uav[57] utilizationCountManeuversMaintenance 84
scalar OsgEarthNet.uav[57] utilizationCountChargeState 42
scalar OsgEarthNet.uav[57] utilizationCountOverdrawnAfterMission 0
scalar OsgEarthNet.uav[57] utilizationCountIdleState 42
scalar OsgEarthNet.uav[57] utilizationFail 0
scalar OsgEarthNet.uav[57] simulationTime 259200
scalar OsgEarthNet.uav[58] utilizationSecMission 694.00169469977
scalar OsgEarthNet.uav[58] utilizationSecMaintenance 282.18572599206
scalar OsgEarthNet.uav[58] utilizationSecCharge 3720
scalar OsgEarthNet.uav[58] utilizationSecIdle 254503.81157931
scalar OsgEarthNet.uav[58] utilizationEnergyMission 3306.4322128296
scalar OsgEarthNet.uav[58] utilizationEnergyMaintenance 1348.5190048218
scalar OsgEarthNet.uav[58] utilizationEnergyCharge 4654.951171875
scalar OsgEarthNet.uav[58] utilizationEnergyOverdrawMission 0
scalar OsgEarthNet.uav[58] utilizationEnergyOverdrawMaintenance 0
scalar OsgEarthNet.uav[58] utilizationCountMissions 1
scalar OsgEarthNet.uav[58] utilizationCountManeuversMission 13
scalar OsgEarthNet.uav[58] utilizationCountManeuversMaintenance 2
scalar OsgEarthNet.uav[58] utilizationCountChargeState 1
scalar OsgEarthNet.uav[58] utilizationCountOverdrawnAfterMission 0
scalar OsgEarthNet.uav[58] utilizationCountIdleState 2
scalar OsgEarthNet.uav[58] utilizationFail 0
scalar OsgEarthNet.uav[58] simulationTime 259200
scalar OsgEarthNet.uav[59] utilizationSecMission 760.62515258028
scalar OsgEarthNet.uav[59] utilizationSecMaintenance 223.6438949726
scalar OsgEarthNet.uav[59] utilizationSecCharge 3700
scalar OsgEarthNet.uav[59] utilizationSecIdle 254515.72995245
scalar OsgEarthNet.uav[59] utilizationEnergyMission 3545.0692901611
scalar OsgEarthNet.uav[59] utilizationEnergyMaintenance 1012.8731193542
scalar OsgEarthNet.uav[59] utilizationEnergyCharge 4557.9389648438
scalar OsgEarthNet.uav[59] utilizationEnergyOverdrawMission 0
scalar OsgEarthNet.uav[59] utilizationEnergyOverdrawMaintenance 0
scalar OsgEarthNet.uav[59] utilizationCountMissions 1
scalar OsgEarthNet.uav[59] utilizationCountManeuversMission 12
scalar OsgEarthNet.uav[59] utilizationCountManeuversMaintenance 2
scalar OsgEarthNet.uav[59] utilizationCountChargeState 1
scalar OsgEarthNet.uav[59] utilizationCountOverdrawnAfterMission 0
scalar OsgEarthNet.uav[59] utilizationCountIdleState 2
scalar OsgEarthNet.uav[59] utilizationFail 0
scalar OsgEarthNet.uav[59] simulationTime 259200
scalar OsgEarthNet.uav[60] utilizationSecMission 29540.197415985
scalar OsgEarthNet.uav[60] utilizationSecMaintenance 12960.226723681
scalar OsgEarthNet.uav[60] utilizationSecCharge 158297.57486033
scalar OsgEarthNet.uav[60] utilizationSecIdle 58402
scalar OsgEarthNet.uav[60] utilizationEnergyMission 137264.29086304
scalar OsgEarthNet.uav[60] utilizationEnergyMaintenance 61698.784351349
scalar OsgEarthNet.uav[60] utilizationEnergyCharge 199181.75805664
scalar OsgEarthNet.uav[60] utilizationEnergyOverdrawMission 0
scalar OsgEarthNet.uav[60] utilizationEnergyOverdrawMaintenance 0
scalar OsgEarthNet.uav[60] utilizationCountMissions 43
scalar OsgEarthNet.uav[60] utilizationCountManeuversMission 486
scalar OsgEarthNet.uav[60] utilizationCountManeuversMaintenance 85
scalar OsgEarthNet.uav[60] utilizationCountChargeState 43
scalar OsgEarthNet.uav[60] utilizationCountOverdrawnAfterMission 0
scalar OsgEarthNet.uav[60] utilizationCountIdleState 43
scalar OsgEarthNet.uav[60] utilizationFail 0
scalar OsgEarthNet.uav[60] simulationTime 259200
scalar OsgEarthNet.uav[61] utilizationSecMission 15158.846664264
scalar OsgEarthNet.uav[61] utilizationSecMaintenance 8889.7439405709
scalar OsgEarthNet.uav[61] utilizationSecCharge 89397.247420724
scalar OsgEarthNet.uav[61] utilizationSecIdle 145754.16097444
scalar OsgEarthNet.uav[61] utilizationEnergyMission 70599.200035095
scalar OsgEarthNet.uav[61] utilizationEnergyMaintenance 41439.042541504
scalar OsgEarthNet.uav[61] utilizationEnergyCharge 112189.6328125
scalar OsgEarthNet.uav[61] utilizationEnergyOverdrawMission 0
scalar OsgEarthNet.uav[61] utilizationEnergyOverdrawMaintenance 0
scalar OsgEarthNet.uav[61] utilizationCountMissions 24
scalar OsgEarthNet.uav[61] utilizationCountManeuversMission 260
scalar OsgEarthNet.uav[61] utilizationCountManeuversMaintenance 48
scalar OsgEarthNet.uav[61] utilizationCountChargeState 24
scalar OsgEarthNet.uav[61] utilizationCountOverdrawnAfterMission 0
scalar OsgEarthNet.uav[61] utilizationCountIdleState 24
scalar OsgEarthNet.uav[61] utilizationFail 0
scalar OsgEarthNet.uav[61] simulationTime 259200
scalar OsgEarthNet.uav[62] utilizationSecMission 750.20472747826
scalar OsgEarthNet.uav[62] utilizationSecMaintenance 218.84515192887
scalar OsgEarthNet.uav[62] utilizationSecCharge 3780
scalar OsgEarthNet.uav[62] utilizationSecIdle 254450.94912059
scalar OsgEarthNet.uav[62] utilizationEnergyMission 3674.5659942627
scalar OsgEarthNet.uav[62] utilizationEnergyMaintenance 1048.3776168823
scalar OsgEarthNet.uav[62] utilizationEnergyCharge 4745.7407226562
scalar OsgEarthNet.uav[62] utilizationEnergyOverdrawMission 0
scalar OsgEarthNet.uav[62] utilizationEnergyOverdrawMaintenance 0
scalar OsgEarthNet.uav[62] utilizationCountMissions 1
scalar OsgEarthNet.uav[62] utilizationCountManeuversMission 11
scalar OsgEarthNet.uav[62] utilizationCountManeuversMaintenance 2
scalar OsgEarthNet.uav[62] utilizationCountChargeState 1
scalar OsgEarthNet.uav[62] utilizationCountOverdrawnAfterMission 0
scalar OsgEarthNet.uav[62] utilizationCountIdleState 2
scalar OsgEarthNet.uav[62] utilizationFail 0
scalar OsgEarthNet.uav[62] simulationTime 259200
scalar OsgEarthNet.uav[63] utilizationSecMission 684.4732299383
scalar OsgEarthNet.uav[63] utilizationSecMaintenance 298.56834692969
scalar OsgEarthNet.uav[63] utilizationSecCharge 3910
scalar OsgEarthNet.uav[63] utilizationSecIdle 254306.95742313
scalar OsgEarthNet.uav[63] utilizationEnergyMission 3446.9792022705
scalar OsgEarthNet.uav[63] utilizationEnergyMaintenance 1509.0556259155
scalar OsgEarthNet.uav[63] utilizationEnergyCharge 4956.033203125
scalar OsgEarthNet.uav[63] utilizationEnergyOverdrawMission 0
scalar OsgEarthNet.uav[63] utilizationEnergyOverdrawMaintenance 0
scalar OsgEarthNet.uav[63] utilizationCountMissions 1
scalar OsgEarthNet.uav[63] utilizationCountManeuversMission 11
scalar OsgEarthNet.uav[63] utilizationCountManeuversMaintenance 2
scalar OsgEarthNet.uav[63] utilizationCountChargeState 1
scalar OsgEarthNet.uav[63] utilizationCountOverdrawnAfterMission 0
scalar OsgEarthNet.uav[63] utilizationCountIdleState 2
scalar OsgEarthNet.uav[63] utilizationFail 0
scalar OsgEarthNet.uav[63] simulationTime 259200
scalar OsgEarthNet.uav[64] utilizationSecMission 29126.997717614
scalar OsgEarthNet.uav[64] utilizationSecMaintenance 13420.574627806
scalar OsgEarthNet.uav[64] utilizationSecCharge 156298.56396922
scalar OsgEarthNet.uav[64] utilizationSecIdle 60353.862685363
scalar OsgEarthNet.uav[64] utilizationEnergyMission 136331.20011902
scalar OsgEarthNet.uav[64] utilizationEnergyMaintenance 63363.354362488
scalar OsgEarthNet.uav[64] utilizationEnergyCharge 197623.72485352
scalar OsgEarthNet.uav[64] utilizationEnergyOverdrawMission 0
scalar OsgEarthNet.uav[64] utilizationEnergyOverdrawMaintenance 0
scalar OsgEarthNet.uav[64] utilizationCountMissions 42
scalar OsgEarthNet.uav[64] utilizationCountManeuversMission 467
scalar OsgEarthNet.uav[64] utilizationCountManeuversMaintenance 84
scalar OsgEarthNet.uav[64] utilizationCountChargeState 42
scalar OsgEarthNet.uav[64] utilizationCountOverdrawnAfterMission 0
scalar OsgEarthNet.uav[64] utilizationCountIdleState 42
scalar OsgEarthNet.uav[64] utilizationFail 0
scalar OsgEarthNet.uav[64] simulationTime 259200
scalar OsgEarthNet.uav[65] utilizationSecMission 798.36311351164
scalar OsgEarthNet.uav[65] utilizationSecMaintenance 337.83926879396
scalar OsgEarthNet.uav[65] utilizationSecCharge 4000
[...]
scalar OsgEarthNet.uav[82] utilizationSecIdle 173190.16712949
scalar OsgEarthNet.uav[82] utilizationEnergyMission 65754.267402649
scalar OsgEarthNet.uav[82] utilizationEnergyMaintenance 19163.072834015
scalar OsgEarthNet.uav[82] utilizationEnergyCharge 84818.441894531
scalar OsgEarthNet.uav[82] utilizationEnergyOverdrawMission 0
scalar OsgEarthNet.uav[82] utilizationEnergyOverdrawMaintenance 0
scalar OsgEarthNet.uav[82] utilizationCountMissions 18
scalar OsgEarthNet.uav[82] utilizationCountManeuversMission 232
scalar OsgEarthNet.uav[82] utilizationCountManeuversMaintenance 36
scalar OsgEarthNet.uav[82] utilizationCountChargeState 18
scalar OsgEarthNet.uav[82] utilizationCountOverdrawnAfterMission 0
scalar OsgEarthNet.uav[82] utilizationCountIdleState 19
scalar OsgEarthNet.uav[82] utilizationFail 0
scalar OsgEarthNet.uav[82] simulationTime 259200
scalar OsgEarthNet.uav[83] utilizationSecMission 836.77707522227
scalar OsgEarthNet.uav[83] utilizationSecMaintenance 217.0347828456
scalar OsgEarthNet.uav[83] utilizationSecCharge 4010
scalar OsgEarthNet.uav[83] utilizationSecIdle 254136.18714193
scalar OsgEarthNet.uav[83] utilizationEnergyMission 3978.5556335449
scalar OsgEarthNet.uav[83] utilizationEnergyMaintenance 1137.1439323425
scalar OsgEarthNet.uav[83] utilizationEnergyCharge 5115.6987304688
scalar OsgEarthNet.uav[83] utilizationEnergyOverdrawMission 0
scalar OsgEarthNet.uav[83] utilizationEnergyOverdrawMaintenance 0
scalar OsgEarthNet.uav[83] utilizationCountMissions 1
scalar OsgEarthNet.uav[83] utilizationCountManeuversMission 13
scalar OsgEarthNet.uav[83] utilizationCountManeuversMaintenance 2
scalar OsgEarthNet.uav[83] utilizationCountChargeState 1
scalar OsgEarthNet.uav[83] utilizationCountOverdrawnAfterMission 0
scalar OsgEarthNet.uav[83] utilizationCountIdleState 2
scalar OsgEarthNet.uav[83] utilizationFail 0
scalar OsgEarthNet.uav[83] simulationTime 259200
scalar OsgEarthNet.uav[84] utilizationSecMission 608.41235740769
scalar OsgEarthNet.uav[84] utilizationSecMaintenance 411.08654793843
scalar OsgEarthNet.uav[84] utilizationSecCharge 3610
scalar OsgEarthNet.uav[84] utilizationSecIdle 254570.50009465
scalar OsgEarthNet.uav[84] utilizationEnergyMission 2610.6350326538
scalar OsgEarthNet.uav[84] utilizationEnergyMaintenance 1864.6418380737
scalar OsgEarthNet.uav[84] utilizationEnergyCharge 4475.2734375
scalar OsgEarthNet.uav[84] utilizationEnergyOverdrawMission 0
scalar OsgEarthNet.uav[84] utilizationEnergyOverdrawMaintenance 0
scalar OsgEarthNet.uav[84] utilizationCountMissions 1
scalar OsgEarthNet.uav[84] utilizationCountManeuversMission 11
scalar OsgEarthNet.uav[84] utilizationCountManeuversMaintenance 2
scalar OsgEarthNet.uav[84] utilizationCountChargeState 1
scalar OsgEarthNet.uav[84] utilizationCountOverdrawnAfterMission 0
scalar OsgEarthNet.uav[84] utilizationCountIdleState 2
scalar OsgEarthNet.uav[84] utilizationFail 0
scalar OsgEarthNet.uav[84] simulationTime 259200
scalar OsgEarthNet.uav[85] utilizationSecMission 694.00169469977
scalar OsgEarthNet.uav[85] utilizationSecMaintenance 282.18572599206
scalar OsgEarthNet.uav[85] utilizationSecCharge 3710
scalar OsgEarthNet.uav[85] utilizationSecIdle 254513.81157931
scalar OsgEarthNet.uav[85] utilizationEnergyMission 3250.417755127
scalar OsgEarthNet.uav[85] utilizationEnergyMaintenance 1384.484336853
scalar OsgEarthNet.uav[85] utilizationEnergyCharge 4634.904296875
scalar OsgEarthNet.uav[85] utilizationEnergyOverdrawMission 0
scalar OsgEarthNet.uav[85] utilizationEnergyOverdrawMaintenance 0
scalar OsgEarthNet.uav[85] utilizationCountMissions 1
scalar OsgEarthNet.uav[85] utilizationCountManeuversMission 13
scalar OsgEarthNet.uav[85] utilizationCountManeuversMaintenance 2
scalar OsgEarthNet.uav[85] utilizationCountChargeState 1
scalar OsgEarthNet.uav[85] utilizationCountOverdrawnAfterMission 0
scalar OsgEarthNet.uav[85] utilizationCountIdleState 2
scalar OsgEarthNet.uav[85] utilizationFail 0
scalar OsgEarthNet.uav[85] simulationTime 259200
scalar OsgEarthNet.uav[86] utilizationSecMission 687.96628759863
scalar OsgEarthNet.uav[86] utilizationSecMaintenance 395.09592957968
scalar OsgEarthNet.uav[86] utilizationSecCharge 3940
scalar OsgEarthNet.uav[86] utilizationSecIdle 254176.93678282
scalar OsgEarthNet.uav[86] utilizationEnergyMission 3228.0596923828
scalar OsgEarthNet.uav[86] utilizationEnergyMaintenance 1806.5501937866
scalar OsgEarthNet.uav[86] utilizationEnergyCharge 5068.4653320312
scalar OsgEarthNet.uav[86] utilizationEnergyOverdrawMission 0
scalar OsgEarthNet.uav[86] utilizationEnergyOverdrawMaintenance 0
scalar OsgEarthNet.uav[86] utilizationCountMissions 1
scalar OsgEarthNet.uav[86] utilizationCountManeuversMission 11
scalar OsgEarthNet.uav[86] utilizationCountManeuversMaintenance 2
scalar OsgEarthNet.uav[86] utilizationCountChargeState 1
scalar OsgEarthNet.uav[86] utilizationCountOverdrawnAfterMission 0
scalar OsgEarthNet.uav[86] utilizationCountIdleState 2
scalar OsgEarthNet.uav[86] utilizationFail 0
scalar OsgEarthNet.uav[86] simulationTime 259200
scalar OsgEarthNet.uav[87] utilizationSecMission 29080.560522381
scalar OsgEarthNet.uav[87] utilizationSecMaintenance 15143.490220221
scalar OsgEarthNet.uav[87] utilizationSecCharge 161991.50035636
scalar OsgEarthNet.uav[87] utilizationSecIdle 52984.447901041
scalar OsgEarthNet.uav[87] utilizationEnergyMission 133492.81818771
scalar OsgEarthNet.uav[87] utilizationEnergyMaintenance 71290.947902679
scalar OsgEarthNet.uav[87] utilizationEnergyCharge 203895.15942383
scalar OsgEarthNet.uav[87] utilizationEnergyOverdrawMission 0
scalar OsgEarthNet.uav[87] utilizationEnergyOverdrawMaintenance 0
scalar OsgEarthNet.uav[87] utilizationCountMissions 44
scalar OsgEarthNet.uav[87] utilizationCountManeuversMission 480
scalar OsgEarthNet.uav[87] utilizationCountManeuversMaintenance 88
scalar OsgEarthNet.uav[87] utilizationCountChargeState 44
scalar OsgEarthNet.uav[87] utilizationCountOverdrawnAfterMission 0
scalar OsgEarthNet.uav[87] utilizationCountIdleState 44
scalar OsgEarthNet.uav[87] utilizationFail 0
scalar OsgEarthNet.uav[87] simulationTime 259200
scalar OsgEarthNet.uav[88] utilizationSecMission 829.90295093042
scalar OsgEarthNet.uav[88] utilizationSecMaintenance 218.07310244337
scalar OsgEarthNet.uav[88] utilizationSecCharge 3810
scalar OsgEarthNet.uav[88] utilizationSecIdle 254342.02294663
scalar OsgEarthNet.uav[88] utilizationEnergyMission 3711.4718780518
scalar OsgEarthNet.uav[88] utilizationEnergyMaintenance 1088.9455375671
scalar OsgEarthNet.uav[88] utilizationEnergyCharge 4800.4194335938
scalar OsgEarthNet.uav[88] utilizationEnergyOverdrawMission 0
scalar OsgEarthNet.uav[88] utilizationEnergyOverdrawMaintenance 0
scalar OsgEarthNet.uav[88] utilizationCountMissions 1
scalar OsgEarthNet.uav[88] utilizationCountManeuversMission 12
scalar OsgEarthNet.uav[88] utilizationCountManeuversMaintenance 2
scalar OsgEarthNet.uav[88] utilizationCountChargeState 1
scalar OsgEarthNet.uav[88] utilizationCountOverdrawnAfterMission 0
scalar OsgEarthNet.uav[88] utilizationCountIdleState 2
scalar OsgEarthNet.uav[88] utilizationFail 0
scalar OsgEarthNet.uav[88] simulationTime 259200
scalar OsgEarthNet.uav[89] utilizationSecMission 836.77707522227
scalar OsgEarthNet.uav[89] utilizationSecMaintenance 217.0347828456
scalar OsgEarthNet.uav[89] utilizationSecCharge 3900
scalar OsgEarthNet.uav[89] utilizationSecIdle 254246.18714193
scalar OsgEarthNet.uav[89] utilizationEnergyMission 3881.9693603516
scalar OsgEarthNet.uav[89] utilizationEnergyMaintenance 1078.347240448
scalar OsgEarthNet.uav[89] utilizationEnergyCharge 4960.3188476562
scalar OsgEarthNet.uav[89] utilizationEnergyOverdrawMission 0
scalar OsgEarthNet.uav[89] utilizationEnergyOverdrawMaintenance 0
scalar OsgEarthNet.uav[89] utilizationCountMissions 1
scalar OsgEarthNet.uav[89] utilizationCountManeuversMission 13
scalar OsgEarthNet.uav[89] utilizationCountManeuversMaintenance 2
scalar OsgEarthNet.uav[89] utilizationCountChargeState 1
scalar OsgEarthNet.uav[89] utilizationCountOverdrawnAfterMission 0
scalar OsgEarthNet.uav[89] utilizationCountIdleState 2
scalar OsgEarthNet.uav[89] utilizationFail 0
scalar OsgEarthNet.uav[89] simulationTime 259200
scalar OsgEarthNet.uav[90] utilizationSecMission 760.62515258028
scalar OsgEarthNet.uav[90] utilizationSecMaintenance 291.95923480269
scalar OsgEarthNet.uav[90] utilizationSecCharge 3840
scalar OsgEarthNet.uav[90] utilizationSecIdle 254307.41461262
scalar OsgEarthNet.uav[90] utilizationEnergyMission 3394.6155548096
scalar OsgEarthNet.uav[90] utilizationEnergyMaintenance 1444.5757675171
scalar OsgEarthNet.uav[90] utilizationEnergyCharge 4839.1909179688
scalar OsgEarthNet.uav[90] utilizationEnergyOverdrawMission 0
scalar OsgEarthNet.uav[90] utilizationEnergyOverdrawMaintenance 0
scalar OsgEarthNet.uav[90] utilizationCountMissions 1
scalar OsgEarthNet.uav[90] utilizationCountManeuversMission 12
scalar OsgEarthNet.uav[90] utilizationCountManeuversMaintenance 2
scalar OsgEarthNet.uav[90] utilizationCountChargeState 1
scalar OsgEarthNet.uav[90] utilizationCountOverdrawnAfterMission 0
scalar OsgEarthNet.uav[90] utilizationCountIdleState 2
scalar OsgEarthNet.uav[90] utilizationFail 0
scalar OsgEarthNet.uav[90] simulationTime 259200
scalar OsgEarthNet.uav[91] utilizationSecMission 31170.706795674
scalar OsgEarthNet.uav[91] utilizationSecMaintenance 14417.432653425
scalar OsgEarthNet.uav[91] utilizationSecCharge 166513.50694364
scalar OsgEarthNet.uav[91] utilizationSecIdle 47098.352607263
scalar OsgEarthNet.uav[91] utilizationEnergyMission 143683.13589859
scalar OsgEarthNet.uav[91] utilizationEnergyMaintenance 67260.287372589
scalar OsgEarthNet.uav[91] utilizationEnergyCharge 208186.22607422
scalar OsgEarthNet.uav[91] utilizationEnergyOverdrawMission 0
scalar OsgEarthNet.uav[91] utilizationEnergyOverdrawMaintenance 0
scalar OsgEarthNet.uav[91] utilizationCountMissions 46
scalar OsgEarthNet.uav[91] utilizationCountManeuversMission 513
scalar OsgEarthNet.uav[91] utilizationCountManeuversMaintenance 92
scalar OsgEarthNet.uav[91] utilizationCountChargeState 46
scalar OsgEarthNet.uav[91] utilizationCountOverdrawnAfterMission 0
scalar OsgEarthNet.uav[91] utilizationCountIdleState 46
scalar OsgEarthNet.uav[91] utilizationFail 0
scalar OsgEarthNet.uav[91] simulationTime 259200
scalar OsgEarthNet.uav[92] utilizationSecMission 887.1741082606
scalar OsgEarthNet.uav[92] utilizationSecMaintenance 181.20511066264
scalar OsgEarthNet.uav[92] utilizationSecCharge 3900
scalar OsgEarthNet.uav[92] utilizationSecIdle 254231.61978108
scalar OsgEarthNet.uav[92] utilizationEnergyMission 4022.4471588135
scalar OsgEarthNet.uav[92] utilizationEnergyMaintenance 900.14106369019
scalar OsgEarthNet.uav[92] utilizationEnergyCharge 4965.3447265625
scalar OsgEarthNet.uav[92] utilizationEnergyOverdrawMission 0
scalar OsgEarthNet.uav[92] utilizationEnergyOverdrawMaintenance 0
scalar OsgEarthNet.uav[92] utilizationCountMissions 1
scalar OsgEarthNet.uav[92] utilizationCountManeuversMission 14
scalar OsgEarthNet.uav[92] utilizationCountManeuversMaintenance 2
scalar OsgEarthNet.uav[92] utilizationCountChargeState 1
scalar OsgEarthNet.uav[92] utilizationCountOverdrawnAfterMission 0
scalar OsgEarthNet.uav[92] utilizationCountIdleState 2
scalar OsgEarthNet.uav[92] utilizationFail 0
scalar OsgEarthNet.uav[92] simulationTime 259200
scalar OsgEarthNet.uav[93] utilizationSecMission 31801.321066952
scalar OsgEarthNet.uav[93] utilizationSecMaintenance 14676.677933048
scalar OsgEarthNet.uav[93] utilizationSecCharge 169230
scalar OsgEarthNet.uav[93] utilizationSecIdle 43492
scalar OsgEarthNet.uav[93] utilizationEnergyMission 147602.35270016
scalar OsgEarthNet.uav[93] utilizationEnergyMaintenance 68628.218959808
scalar OsgEarthNet.uav[93] utilizationEnergyCharge 212941.74072266
scalar OsgEarthNet.uav[93] utilizationEnergyOverdrawMission 0
scalar OsgEarthNet.uav[93] utilizationEnergyOverdrawMaintenance 0
scalar OsgEarthNet.uav[93] utilizationCountMissions 45
scalar OsgEarthNet.uav[93] utilizationCountManeuversMission 537
scalar OsgEarthNet.uav[93] utilizationCountManeuversMaintenance 90
scalar OsgEarthNet.uav[93] utilizationCountChargeState 45
scalar OsgEarthNet.uav[93] utilizationCountOverdrawnAfterMission 0
scalar OsgEarthNet.uav[93] utilizationCountIdleState 46
scalar OsgEarthNet.uav[93] utilizationFail 0
scalar OsgEarthNet.uav[93] simulationTime 259200
scalar OsgEarthNet.uav[94] utilizationSecMission 30825.658938568
scalar OsgEarthNet.uav[94] utilizationSecMaintenance 14185.940719173
scalar OsgEarthNet.uav[94] utilizationSecCharge 166946.39934226
scalar OsgEarthNet.uav[94] utilizationSecIdle 47242
scalar OsgEarthNet.uav[94] utilizationEnergyMission 143480.62913513
scalar OsgEarthNet.uav[94] utilizationEnergyMaintenance 67737.131980896
scalar OsgEarthNet.uav[94] utilizationEnergyCharge 210474.25854492
scalar OsgEarthNet.uav[94] utilizationEnergyOverdrawMission 0
scalar OsgEarthNet.uav[94] utilizationEnergyOverdrawMaintenance 0
scalar OsgEarthNet.uav[94] utilizationCountMissions 45
scalar OsgEarthNet.uav[94] utilizationCountManeuversMission 506
scalar OsgEarthNet.uav[94] utilizationCountManeuversMaintenance 89
scalar OsgEarthNet.uav[94] utilizationCountChargeState 45
scalar OsgEarthNet.uav[94] utilizationCountOverdrawnAfterMission 0
scalar OsgEarthNet.uav[94] utilizationCountIdleState 45
scalar OsgEarthNet.uav[94] utilizationFail 0
scalar OsgEarthNet.uav[94] simulationTime 259200
scalar OsgEarthNet.uav[95] utilizationSecMission 1344.3688085295
scalar OsgEarthNet.uav[95] utilizationSecMaintenance 667.02649035592
scalar OsgEarthNet.uav[95] utilizationSecCharge 7490
scalar OsgEarthNet.uav[95] utilizationSecIdle 249698.60370111
scalar OsgEarthNet.uav[95] utilizationEnergyMission 6281.0598144531
scalar OsgEarthNet.uav[95] utilizationEnergyMaintenance 3073.8246192932
scalar OsgEarthNet.uav[95] utilizationEnergyCharge 9354.88671875
scalar OsgEarthNet.uav[95] utilizationEnergyOverdrawMission 0
scalar OsgEarthNet.uav[95] utilizationEnergyOverdrawMaintenance 0
scalar OsgEarthNet.uav[95] utilizationCountMissions 2
scalar OsgEarthNet.uav[95] utilizationCountManeuversMission 24
scalar OsgEarthNet.uav[95] utilizationCountManeuversMaintenance 4
scalar OsgEarthNet.uav[95] utilizationCountChargeState 2
scalar OsgEarthNet.uav[95] utilizationCountOverdrawnAfterMission 0
scalar OsgEarthNet.uav[95] utilizationCountIdleState 3
scalar OsgEarthNet.uav[95] utilizationFail 0
scalar OsgEarthNet.uav[95] simulationTime 259200
scalar OsgEarthNet.uav[96] utilizationSecMission 2230.1542639703
scalar OsgEarthNet.uav[96] utilizationSecMaintenance 2274.8738219425
scalar OsgEarthNet.uav[96] utilizationSecCharge 14770
scalar OsgEarthNet.uav[96] utilizationSecIdle 239924.97091409
scalar OsgEarthNet.uav[96] utilizationEnergyMission 10393.467918765
scalar OsgEarthNet.uav[96] utilizationEnergyMaintenance 10216.219833374
scalar OsgEarthNet.uav[96] utilizationEnergyCharge 18524.809570312
scalar OsgEarthNet.uav[96] utilizationEnergyOverdrawMission 0
scalar OsgEarthNet.uav[96] utilizationEnergyOverdrawMaintenance 0
scalar OsgEarthNet.uav[96] utilizationCountMissions 4
scalar OsgEarthNet.uav[96] utilizationCountManeuversMission 37
scalar OsgEarthNet.uav[96] utilizationCountManeuversMaintenance 9
scalar OsgEarthNet.uav[96] utilizationCountChargeState 4
scalar OsgEarthNet.uav[96] utilizationCountOverdrawnAfterMission 0
scalar OsgEarthNet.uav[96] utilizationCountIdleState 5
scalar OsgEarthNet.uav[96] utilizationFail 0
scalar OsgEarthNet.uav[96] simulationTime 259200
scalar OsgEarthNet.uav[97] utilizationSecMission 22852.835721272
scalar OsgEarthNet.uav[97] utilizationSecMaintenance 12469.018222429
scalar OsgEarthNet.uav[97] utilizationSecCharge 127340
scalar OsgEarthNet.uav[97] utilizationSecIdle 96538.145056299
scalar OsgEarthNet.uav[97] utilizationEnergyMission 105302.02233591
scalar OsgEarthNet.uav[97] utilizationEnergyMaintenance 58739.318454742
scalar OsgEarthNet.uav[97] utilizationEnergyCharge 159830.67431641
scalar OsgEarthNet.uav[97] utilizationEnergyOverdrawMission 0
scalar OsgEarthNet.uav[97] utilizationEnergyOverdrawMaintenance 0
scalar OsgEarthNet.uav[97] utilizationCountMissions 34
scalar OsgEarthNet.uav[97] utilizationCountManeuversMission 363
scalar OsgEarthNet.uav[97] utilizationCountManeuversMaintenance 69
scalar OsgEarthNet.uav[97] utilizationCountChargeState 34
scalar OsgEarthNet.uav[97] utilizationCountOverdrawnAfterMission 0
scalar OsgEarthNet.uav[97] utilizationCountIdleState 35
scalar OsgEarthNet.uav[97] utilizationFail 0
scalar OsgEarthNet.uav[97] simulationTime 259200
scalar OsgEarthNet.uav[98] utilizationSecMission 26306.758934818
scalar OsgEarthNet.uav[98] utilizationSecMaintenance 12448.733956996
scalar OsgEarthNet.uav[98] utilizationSecCharge 142120
scalar OsgEarthNet.uav[98] utilizationSecIdle 78324.506108186
scalar OsgEarthNet.uav[98] utilizationEnergyMission 121853.59317117
scalar OsgEarthNet.uav[98] utilizationEnergyMaintenance 59013.805957794
scalar OsgEarthNet.uav[98] utilizationEnergyCharge 178550.94360352
scalar OsgEarthNet.uav[98] utilizationEnergyOverdrawMission 0
scalar OsgEarthNet.uav[98] utilizationEnergyOverdrawMaintenance 0
scalar OsgEarthNet.uav[98] utilizationCountMissions 38
scalar OsgEarthNet.uav[98] utilizationCountManeuversMission 423
scalar OsgEarthNet.uav[98] utilizationCountManeuversMaintenance 77
scalar OsgEarthNet.uav[98] utilizationCountChargeState 38
scalar OsgEarthNet.uav[98] utilizationCountOverdrawnAfterMission 0
scalar OsgEarthNet.uav[98] utilizationCountIdleState 39
scalar OsgEarthNet.uav[98] utilizationFail 0
scalar OsgEarthNet.uav[98] simulationTime 259200
scalar OsgEarthNet.uav[99] utilizationSecMission 21022.886095043
scalar OsgEarthNet.uav[99] utilizationSecMaintenance 10123.394301293
scalar OsgEarthNet.uav[99] utilizationSecCharge 113250
scalar OsgEarthNet.uav[99] utilizationSecIdle 114803.71860366
scalar OsgEarthNet.uav[99] utilizationEnergyMission 98127.435938266
scalar OsgEarthNet.uav[99] utilizationEnergyMaintenance 47186.134300232
scalar OsgEarthNet.uav[99] utilizationEnergyCharge 142778.68261719
scalar OsgEarthNet.uav[99] utilizationEnergyOverdrawMission 0
scalar OsgEarthNet.uav[99] utilizationEnergyOverdrawMaintenance 0
scalar OsgEarthNet.uav[99] utilizationCountMissions 30
scalar OsgEarthNet.uav[99] utilizationCountManeuversMission 336
scalar OsgEarthNet.uav[99] utilizationCountManeuversMaintenance 61
scalar OsgEarthNet.uav[99] utilizationCountChargeState 30
scalar OsgEarthNet.uav[99] utilizationCountOverdrawnAfterMission 0
scalar OsgEarthNet.uav[99] utilizationCountIdleState 31
scalar OsgEarthNet.uav[99] utilizationFail 0
scalar OsgEarthNet.uav[99] simulationTime 259200
scalar OsgEarthNet.cs[0] usedPower 662004.42452921
scalar OsgEarthNet.cs[0] chargedPower 662004.42452921
scalar OsgEarthNet.cs[0] chargedMobileNodes 141
scalar OsgEarthNet.cs[0] reservations 142
scalar OsgEarthNet.cs[1] usedPower 1095889.5357613
scalar OsgEarthNet.cs[1] chargedPower 1095889.5357613
scalar OsgEarthNet.cs[1] chargedMobileNodes 232
scalar OsgEarthNet.cs[1] reservations 234
scalar OsgEarthNet.cs[2] usedPower 2582058.3608846
scalar OsgEarthNet.cs[2] chargedPower 2582058.3608846
scalar OsgEarthNet.cs[2] chargedMobileNodes 543
scalar OsgEarthNet.cs[2] reservations 554
scalar OsgEarthNet.cs[3] usedPower 856608.2582311
scalar OsgEarthNet.cs[3] chargedPower 856608.2582311
scalar OsgEarthNet.cs[3] chargedMobileNodes 185
scalar OsgEarthNet.cs[3] reservations 185
scalar OsgEarthNet.cs[4] usedPower 736510.68601493
scalar OsgEarthNet.cs[4] chargedPower 736510.68601493
scalar OsgEarthNet.cs[4] chargedMobileNodes 157
scalar OsgEarthNet.cs[4] reservations 159
scalar OsgEarthNet.cs[5] usedPower 467608.78070396
scalar OsgEarthNet.cs[5] chargedPower 467608.78070396
scalar OsgEarthNet.cs[5] chargedMobileNodes 97
scalar OsgEarthNet.cs[5] reservations 101
scalar OsgEarthNet.cs[6] usedPower 2387707.3515089
scalar OsgEarthNet.cs[6] chargedPower 2387707.3515089
scalar OsgEarthNet.cs[6] chargedMobileNodes 507
scalar OsgEarthNet.cs[6] reservations 516

