version 2
run Szenario_Hotel_Gabelbach-23-20180709-19:03:47-46724
attr configname Szenario_Hotel_Gabelbach
attr datetime 20180709-19:03:47
attr experiment Szenario_Hotel_Gabelbach
attr inifile omnetpp.ini
attr iterationvars "$replM=2, $biWeight=0.2"
attr iterationvarsf replM=2,biWeight=0.2-
attr measurement "$replM=2, $biWeight=0.2"
attr network OsgEarthNet
attr processid 46724
attr repetition 11
attr replication #11
attr resultdir results
attr runnumber 23
attr seedset 23
itervar biWeight 0.2
itervar replM 2
param *.osgEarthScene.scene "\"Szenario_Hotel_Gabelbach.earth\""
param *.playgroundLatitude 50.6830269
param *.playgroundLongitude 10.8538055
param *.playgroundWidth 3500m
param *.playgroundHeight 3500m
param *.numUAVs 100
param *.cs[0].posX 3537m
param *.cs[0].posY 965m
param *.cs[0].posZ 538m
param *.cs[1].posX 312m
param *.cs[1].posY 1262m
param *.cs[1].posZ 539m
param *.cs[2].posX 2185m
param *.cs[2].posY 3026m
param *.cs[2].posZ 777m
param *.cs[3].posX 10m
param *.cs[3].posY 2200m
param *.cs[3].posZ 560m
param *.cs[4].posX 750m
param *.cs[4].posY 200m
param *.cs[4].posZ 540m
param *.cs[5].posX 2450m
param *.cs[5].posY 180m
param *.cs[5].posZ 524m
param *.cs[6].posX 3140m
param *.cs[6].posY 1790m
param *.cs[6].posZ 606m
param *.numCSs 7
param *.uav[*].replacementMethod 2
param *.uav[*].weightedSumWeight 0.2
param *.*.timeStep 10s
param *.uav[*].commandPreviewCommandCount 20
param *.missionControl.missionFiles "\"missions\\\\Szenario_WB_Hotel_Gabelbach_Mission_Hotel.waypoints,missions\\\\Szenario_WB_Hotel_Gabelbach_Mission_Kickelhahn.waypoints,missions\\\\Szenario_WB_Hotel_Gabelbach_Mission_Ilmenau_Sportplatz.waypoints,missions\\\\Szenario_WB_Hotel_Gabelbach_Mission_Manebach_Mitte.waypoints,missions\\\\Szenario_WB_Hotel_Gabelbach_Mission_Manebach_Sued.waypoints\""
param *.missionControl.missionFiles "\"missions\\\\Szenario_WB_Hotel_Gabelbach_Mission_Hotel.waypoints,missions\\\\Szenario_WB_Hotel_Gabelbach_Mission_Kickelhahn.waypoints,missions\\\\Szenario_WB_Hotel_Gabelbach_Mission_Ilmenau_Sportplatz.waypoints,missions\\\\Szenario_WB_Hotel_Gabelbach_Mission_Manebach_Mitte.waypoints,missions\\\\Szenario_WB_Hotel_Gabelbach_Mission_Manebach_Sued.waypoints,missions\\\\Szenario_WB_Hotel_Gabelbach_Hover_HoheSchlaufe.waypoints,missions\\\\Szenario_WB_Hotel_Gabelbach_Hover_Kickelhahn.waypoints,missions\\\\Szenario_WB_Hotel_Gabelbach_Hover_Gabelbachskopf.waypoints,missions\\\\Szenario_WB_Hotel_Gabelbach_Hover_Dachskopf.waypoints\""
param *.uav[0].startX 3537m
param *.uav[0].startY 965m
param *.uav[0].startZ 539m
param *.uav[1].startX 312m
param *.uav[1].startY 1262m
param *.uav[1].startZ 540m
param *.uav[2].startX 2185m
param *.uav[2].startY 3026m
param *.uav[2].startZ 778m
param *.uav[3].startX 3537m
param *.uav[3].startY 965m
param *.uav[3].startZ 539m
param *.uav[4].startX 312m
param *.uav[4].startY 1262m
param *.uav[4].startZ 540m
param *.uav[5].startX 2185m
param *.uav[5].startY 3026m
param *.uav[5].startZ 778m
param *.uav[6].startX 3537m
param *.uav[6].startY 965m
param *.uav[6].startZ 539m
param *.uav[7].startX 312m
param *.uav[7].startY 1262m
param *.uav[7].startZ 540m
param *.uav[8].startX 2185m
param *.uav[8].startY 3026m
param *.uav[8].startZ 778m
param *.uav[9].startX 3537m
param *.uav[9].startY 965m
param *.uav[9].startZ 539m
param *.uav[10].startX 3537m
param *.uav[10].startY 965m
param *.uav[10].startZ 539m
param *.uav[11].startX 312m
param *.uav[11].startY 1262m
param *.uav[11].startZ 540m
param *.uav[12].startX 2185m
param *.uav[12].startY 3026m
param *.uav[12].startZ 778m
param *.uav[13].startX 3537m
param *.uav[13].startY 965m
param *.uav[13].startZ 539m
param *.uav[14].startX 312m
param *.uav[14].startY 1262m
param *.uav[14].startZ 540m
param *.uav[15].startX 2185m
param *.uav[15].startY 3026m
param *.uav[15].startZ 778m
param *.uav[16].startX 3537m
param *.uav[16].startY 965m
param *.uav[16].startZ 539m
param *.uav[17].startX 312m
param *.uav[17].startY 1262m
param *.uav[17].startZ 540m
param *.uav[18].startX 2185m
param *.uav[18].startY 3026m
param *.uav[18].startZ 778m
param *.uav[19].startX 3537m
param *.uav[19].startY 965m
param *.uav[19].startZ 539m
param *.uav[20].startX 3537m
param *.uav[20].startY 965m
param *.uav[20].startZ 539m
param *.uav[21].startX 312m
param *.uav[21].startY 1262m
param *.uav[21].startZ 540m
param *.uav[22].startX 2185m
param *.uav[22].startY 3026m
param *.uav[22].startZ 778m
param *.uav[23].startX 3537m
param *.uav[23].startY 965m
param *.uav[23].startZ 539m
param *.uav[24].startX 312m
param *.uav[24].startY 1262m
param *.uav[24].startZ 540m
param *.uav[25].startX 2185m
param *.uav[25].startY 3026m
param *.uav[25].startZ 778m
param *.uav[26].startX 3537m
param *.uav[26].startY 965m
param *.uav[26].startZ 539m
param *.uav[27].startX 312m
param *.uav[27].startY 1262m
param *.uav[27].startZ 540m
param *.uav[28].startX 2185m
param *.uav[28].startY 3026m
param *.uav[28].startZ 778m
param *.uav[29].startX 3537m
param *.uav[29].startY 965m
param *.uav[29].startZ 539m
param *.uav[30].startX 3537m
param *.uav[30].startY 965m
param *.uav[30].startZ 539m
param *.uav[31].startX 312m
param *.uav[31].startY 1262m
param *.uav[31].startZ 540m
param *.uav[32].startX 2185m
param *.uav[32].startY 3026m
param *.uav[32].startZ 778m
param *.uav[33].startX 3537m
param *.uav[33].startY 965m
param *.uav[33].startZ 539m
param *.uav[34].startX 312m
param *.uav[34].startY 1262m
param *.uav[34].startZ 540m
param *.uav[35].startX 2185m
param *.uav[35].startY 3026m
param *.uav[35].startZ 778m
param *.uav[36].startX 3537m
param *.uav[36].startY 965m
param *.uav[36].startZ 539m
param *.uav[37].startX 312m
param *.uav[37].startY 1262m
param *.uav[37].startZ 540m
param *.uav[38].startX 2185m
param *.uav[38].startY 3026m
param *.uav[38].startZ 778m
param *.uav[39].startX 3537m
param *.uav[39].startY 965m
param *.uav[39].startZ 539m
param *.uav[40].startX 3537m
param *.uav[40].startY 965m
param *.uav[40].startZ 539m
param *.uav[41].startX 312m
param *.uav[41].startY 1262m
param *.uav[41].startZ 540m
param *.uav[42].startX 2185m
param *.uav[42].startY 3026m
param *.uav[42].startZ 778m
param *.uav[43].startX 3537m
param *.uav[43].startY 965m
param *.uav[43].startZ 539m
param *.uav[44].startX 312m
param *.uav[44].startY 1262m
param *.uav[44].startZ 540m
param *.uav[45].startX 2185m
param *.uav[45].startY 3026m
param *.uav[45].startZ 778m
param *.uav[46].startX 3537m
param *.uav[46].startY 965m
param *.uav[46].startZ 539m
param *.uav[47].startX 312m
param *.uav[47].startY 1262m
param *.uav[47].startZ 540m
param *.uav[48].startX 2185m
param *.uav[48].startY 3026m
param *.uav[48].startZ 778m
param *.uav[49].startX 3537m
param *.uav[49].startY 965m
param *.uav[49].startZ 539m
param *.uav[50].startX 3537m
param *.uav[50].startY 965m
param *.uav[50].startZ 539m
param *.uav[51].startX 312m
param *.uav[51].startY 1262m
param *.uav[51].startZ 540m
param *.uav[52].startX 2185m
param *.uav[52].startY 3026m
param *.uav[52].startZ 778m
param *.uav[53].startX 3537m
param *.uav[53].startY 965m
param *.uav[53].startZ 539m
param *.uav[54].startX 312m
param *.uav[54].startY 1262m
param *.uav[54].startZ 540m
param *.uav[55].startX 2185m
param *.uav[55].startY 3026m
param *.uav[55].startZ 778m
param *.uav[56].startX 3537m
param *.uav[56].startY 965m
param *.uav[56].startZ 539m
param *.uav[57].startX 312m
param *.uav[57].startY 1262m
param *.uav[57].startZ 540m
param *.uav[58].startX 2185m
param *.uav[58].startY 3026m
param *.uav[58].startZ 778m
param *.uav[59].startX 3537m
param *.uav[59].startY 965m
param *.uav[59].startZ 539m
param *.uav[60].startX 3537m
param *.uav[60].startY 965m
param *.uav[60].startZ 539m
param *.uav[61].startX 312m
param *.uav[61].startY 1262m
param *.uav[61].startZ 540m
param *.uav[62].startX 2185m
param *.uav[62].startY 3026m
param *.uav[62].startZ 778m
param *.uav[63].startX 3537m
param *.uav[63].startY 965m
param *.uav[63].startZ 539m
param *.uav[64].startX 312m
param *.uav[64].startY 1262m
param *.uav[64].startZ 540m
param *.uav[65].startX 2185m
param *.uav[65].startY 3026m
param *.uav[65].startZ 778m
param *.uav[66].startX 3537m
param *.uav[66].startY 965m
param *.uav[66].startZ 539m
param *.uav[67].startX 312m
param *.uav[67].startY 1262m
param *.uav[67].startZ 540m
param *.uav[68].startX 2185m
param *.uav[68].startY 3026m
param *.uav[68].startZ 778m
param *.uav[69].startX 3537m
param *.uav[69].startY 965m
param *.uav[69].startZ 539m
param *.uav[70].startX 3537m
param *.uav[70].startY 965m
param *.uav[70].startZ 539m
param *.uav[71].startX 312m
param *.uav[71].startY 1262m
param *.uav[71].startZ 540m
param *.uav[72].startX 2185m
param *.uav[72].startY 3026m
param *.uav[72].startZ 778m
param *.uav[73].startX 3537m
param *.uav[73].startY 965m
param *.uav[73].startZ 539m
param *.uav[74].startX 312m
param *.uav[74].startY 1262m
param *.uav[74].startZ 540m
param *.uav[75].startX 2185m
param *.uav[75].startY 3026m
param *.uav[75].startZ 778m
param *.uav[76].startX 3537m
param *.uav[76].startY 965m
param *.uav[76].startZ 539m
param *.uav[77].startX 312m
param *.uav[77].startY 1262m
param *.uav[77].startZ 540m
param *.uav[78].startX 2185m
param *.uav[78].startY 3026m
param *.uav[78].startZ 778m
param *.uav[79].startX 3537m
param *.uav[79].startY 965m
param *.uav[79].startZ 539m
param *.uav[80].startX 3537m
param *.uav[80].startY 965m
param *.uav[80].startZ 539m
param *.uav[81].startX 312m
param *.uav[81].startY 1262m
param *.uav[81].startZ 540m
param *.uav[82].startX 2185m
param *.uav[82].startY 3026m
param *.uav[82].startZ 778m
param *.uav[83].startX 3537m
param *.uav[83].startY 965m
param *.uav[83].startZ 539m
param *.uav[84].startX 312m
param *.uav[84].startY 1262m
param *.uav[84].startZ 540m
param *.uav[85].startX 2185m
param *.uav[85].startY 3026m
param *.uav[85].startZ 778m
param *.uav[86].startX 3537m
param *.uav[86].startY 965m
param *.uav[86].startZ 539m
param *.uav[87].startX 312m
param *.uav[87].startY 1262m
param *.uav[87].startZ 540m
param *.uav[88].startX 2185m
param *.uav[88].startY 3026m
param *.uav[88].startZ 778m
param *.uav[89].startX 3537m
param *.uav[89].startY 965m
param *.uav[89].startZ 539m
param *.uav[90].startX 3537m
param *.uav[90].startY 965m
param *.uav[90].startZ 539m
param *.uav[91].startX 312m
param *.uav[91].startY 1262m
param *.uav[91].startZ 540m
param *.uav[92].startX 2185m
param *.uav[92].startY 3026m
param *.uav[92].startZ 778m
param *.uav[93].startX 3537m
param *.uav[93].startY 965m
param *.uav[93].startZ 539m
param *.uav[94].startX 312m
param *.uav[94].startY 1262m
param *.uav[94].startZ 540m
param *.uav[95].startX 2185m
param *.uav[95].startY 3026m
param *.uav[95].startZ 778m
param *.uav[96].startX 3537m
param *.uav[96].startY 965m
param *.uav[96].startZ 539m
param *.uav[97].startX 312m
param *.uav[97].startY 1262m
param *.uav[97].startZ 540m
param *.uav[98].startX 2185m
param *.uav[98].startY 3026m
param *.uav[98].startZ 778m
param *.uav[99].startX 3537m
param *.uav[99].startY 965m
param *.uav[99].startZ 539m
param *.osgEarthScene.scene "\"boston.earth\""
param *.playgroundLatitude 42.3558
param *.playgroundLongitude -71.0677
param *.playgroundWidth 400m
param *.playgroundHeight 200m
param *.channelController.connectionColor "\"#0000FF40\""
param *.channelController.showConnections false
param *.uav[*].modelURL "\"quadrocopter.small.obj.15.scale.0,0,90.rot\""
param *.uav[*].labelColor "\"#FF7C00CC\""
param *.uav[*].label2Color "\"#FF7C00EE\""
param *.uav[*].batteryCapacity 5200mAh
param *.uav[*].batteryRemaining uav[index].batteryCapacity
param *.uav[*].predictionQuantile 0.95
param *.uav[*].replacementMethod 2
param *.uav[*].weightedSumWeight 0.5
param *.cs[*].modelURL "\"chargingstation_v1.osgt.2.scale.0,0,0.rot.0,0,-15e-1.trans\""
param *.cs[*].spotsWaiting 999
param *.cs[*].spotsCharging 999
param *.cs[*].chargeEffectivenessPercentage 100
param *.cs[*].nonLinearPhaseStartPercentage 85
param *.cs[*].chargeCurrent 6.0A
param *.cs[*].prioritizeFastCharge true
param *.missionControl.replacementSearchMethod 0
param *.*.timeStep 9s

scalar OsgEarthNet.uav[0] utilizationSecMission 213.40226662092
scalar OsgEarthNet.uav[0] utilizationSecMaintenance 474.30151219871
scalar OsgEarthNet.uav[0] utilizationSecCharge 2940
scalar OsgEarthNet.uav[0] utilizationSecIdle 255572.29522118
scalar OsgEarthNet.uav[0] utilizationEnergyMission 1014.8519744873
scalar OsgEarthNet.uav[0] utilizationEnergyMaintenance 2312.6359176636
scalar OsgEarthNet.uav[0] utilizationEnergyCharge 3327.4858398438
scalar OsgEarthNet.uav[0] utilizationEnergyOverdrawMission 0
scalar OsgEarthNet.uav[0] utilizationEnergyOverdrawMaintenance 0
scalar OsgEarthNet.uav[0] utilizationCountMissions 1
scalar OsgEarthNet.uav[0] utilizationCountManeuversMission 3
scalar OsgEarthNet.uav[0] utilizationCountManeuversMaintenance 2
scalar OsgEarthNet.uav[0] utilizationCountChargeState 1
scalar OsgEarthNet.uav[0] utilizationCountOverdrawnAfterMission 0
scalar OsgEarthNet.uav[0] utilizationCountIdleState 2
scalar OsgEarthNet.uav[0] utilizationFail 0
scalar OsgEarthNet.uav[0] simulationTime 259200
scalar OsgEarthNet.uav[1] utilizationSecMission 29274.12268364
scalar OsgEarthNet.uav[1] utilizationSecMaintenance 11807.324576123
scalar OsgEarthNet.uav[1] utilizationSecCharge 157587.58775456
scalar OsgEarthNet.uav[1] utilizationSecIdle 60530.963985674
scalar OsgEarthNet.uav[1] utilizationEnergyMission 136095.79112244
scalar OsgEarthNet.uav[1] utilizationEnergyMaintenance 55151.980659485
scalar OsgEarthNet.uav[1] utilizationEnergyCharge 190520.59155273
scalar OsgEarthNet.uav[1] utilizationEnergyOverdrawMission 0
scalar OsgEarthNet.uav[1] utilizationEnergyOverdrawMaintenance 0
scalar OsgEarthNet.uav[1] utilizationCountMissions 47
scalar OsgEarthNet.uav[1] utilizationCountManeuversMission 468
scalar OsgEarthNet.uav[1] utilizationCountManeuversMaintenance 94
scalar OsgEarthNet.uav[1] utilizationCountChargeState 47
scalar OsgEarthNet.uav[1] utilizationCountOverdrawnAfterMission 0
scalar OsgEarthNet.uav[1] utilizationCountIdleState 47
scalar OsgEarthNet.uav[1] utilizationFail 0
scalar OsgEarthNet.uav[1] simulationTime 259200
scalar OsgEarthNet.uav[2] utilizationSecMission 16642.350705489
scalar OsgEarthNet.uav[2] utilizationSecMaintenance 6873.8186867683
scalar OsgEarthNet.uav[2] utilizationSecCharge 88236.559087866
scalar OsgEarthNet.uav[2] utilizationSecIdle 147447.27051988
scalar OsgEarthNet.uav[2] utilizationEnergyMission 76746.007987976
scalar OsgEarthNet.uav[2] utilizationEnergyMaintenance 32524.154747009
scalar OsgEarthNet.uav[2] utilizationEnergyCharge 109206.51196289
scalar OsgEarthNet.uav[2] utilizationEnergyOverdrawMission 0
scalar OsgEarthNet.uav[2] utilizationEnergyOverdrawMaintenance 0
scalar OsgEarthNet.uav[2] utilizationCountMissions 25
scalar OsgEarthNet.uav[2] utilizationCountManeuversMission 269
scalar OsgEarthNet.uav[2] utilizationCountManeuversMaintenance 50
scalar OsgEarthNet.uav[2] utilizationCountChargeState 25
scalar OsgEarthNet.uav[2] utilizationCountOverdrawnAfterMission 0
scalar OsgEarthNet.uav[2] utilizationCountIdleState 25
scalar OsgEarthNet.uav[2] utilizationFail 0
scalar OsgEarthNet.uav[2] simulationTime 259200
scalar OsgEarthNet.uav[3] utilizationSecMission 760.62515258028
scalar OsgEarthNet.uav[3] utilizationSecMaintenance 291.95923480269
scalar OsgEarthNet.uav[3] utilizationSecCharge 3850
scalar OsgEarthNet.uav[3] utilizationSecIdle 254297.41461262
scalar OsgEarthNet.uav[3] utilizationEnergyMission 3407.5188446045
scalar OsgEarthNet.uav[3] utilizationEnergyMaintenance 1469.7902450562
scalar OsgEarthNet.uav[3] utilizationEnergyCharge 4877.3090820312
scalar OsgEarthNet.uav[3] utilizationEnergyOverdrawMission 0
scalar OsgEarthNet.uav[3] utilizationEnergyOverdrawMaintenance 0
scalar OsgEarthNet.uav[3] utilizationCountMissions 1
scalar OsgEarthNet.uav[3] utilizationCountManeuversMission 12
scalar OsgEarthNet.uav[3] utilizationCountManeuversMaintenance 2
scalar OsgEarthNet.uav[3] utilizationCountChargeState 1
scalar OsgEarthNet.uav[3] utilizationCountOverdrawnAfterMission 0
scalar OsgEarthNet.uav[3] utilizationCountIdleState 2
scalar OsgEarthNet.uav[3] utilizationFail 0
scalar OsgEarthNet.uav[3] simulationTime 259200
scalar OsgEarthNet.uav[4] utilizationSecMission 682.94783150361
scalar OsgEarthNet.uav[4] utilizationSecMaintenance 228.1606024445
scalar OsgEarthNet.uav[4] utilizationSecCharge 3520
scalar OsgEarthNet.uav[4] utilizationSecIdle 254768.89056605
scalar OsgEarthNet.uav[4] utilizationEnergyMission 3139.2427062988
scalar OsgEarthNet.uav[4] utilizationEnergyMaintenance 1208.9350204468
scalar OsgEarthNet.uav[4] utilizationEnergyCharge 4348.1782226562
scalar OsgEarthNet.uav[4] utilizationEnergyOverdrawMission 0
scalar OsgEarthNet.uav[4] utilizationEnergyOverdrawMaintenance 0
scalar OsgEarthNet.uav[4] utilizationCountMissions 1
scalar OsgEarthNet.uav[4] utilizationCountManeuversMission 12
scalar OsgEarthNet.uav[4] utilizationCountManeuversMaintenance 2
scalar OsgEarthNet.uav[4] utilizationCountChargeState 1
scalar OsgEarthNet.uav[4] utilizationCountOverdrawnAfterMission 0
scalar OsgEarthNet.uav[4] utilizationCountIdleState 2
scalar OsgEarthNet.uav[4] utilizationFail 0
scalar OsgEarthNet.uav[4] simulationTime 259200
scalar OsgEarthNet.uav[5] utilizationSecMission 27939.378043921
scalar OsgEarthNet.uav[5] utilizationSecMaintenance 11062.94901492
scalar OsgEarthNet.uav[5] utilizationSecCharge 148900
scalar OsgEarthNet.uav[5] utilizationSecIdle 71297.671941159
scalar OsgEarthNet.uav[5] utilizationEnergyMission 129834.75553131
scalar OsgEarthNet.uav[5] utilizationEnergyMaintenance 52377.978572845
scalar OsgEarthNet.uav[5] utilizationEnergyCharge 182224.85791016
scalar OsgEarthNet.uav[5] utilizationEnergyOverdrawMission 0
scalar OsgEarthNet.uav[5] utilizationEnergyOverdrawMaintenance 0
scalar OsgEarthNet.uav[5] utilizationCountMissions 43
scalar OsgEarthNet.uav[5] utilizationCountManeuversMission 449
scalar OsgEarthNet.uav[5] utilizationCountManeuversMaintenance 86
scalar OsgEarthNet.uav[5] utilizationCountChargeState 43
scalar OsgEarthNet.uav[5] utilizationCountOverdrawnAfterMission 0
scalar OsgEarthNet.uav[5] utilizationCountIdleState 44
scalar OsgEarthNet.uav[5] utilizationFail 0
scalar OsgEarthNet.uav[5] simulationTime 259200
scalar OsgEarthNet.uav[6] utilizationSecMission 760.62515258028
scalar OsgEarthNet.uav[6] utilizationSecMaintenance 223.6438949726
scalar OsgEarthNet.uav[6] utilizationSecCharge 3740
scalar OsgEarthNet.uav[6] utilizationSecIdle 254475.72995245
scalar OsgEarthNet.uav[6] utilizationEnergyMission 3631.0045013428
scalar OsgEarthNet.uav[6] utilizationEnergyMaintenance 1052.5519828796
scalar OsgEarthNet.uav[6] utilizationEnergyCharge 4683.5537109375
scalar OsgEarthNet.uav[6] utilizationEnergyOverdrawMission 0
scalar OsgEarthNet.uav[6] utilizationEnergyOverdrawMaintenance 0
scalar OsgEarthNet.uav[6] utilizationCountMissions 1
scalar OsgEarthNet.uav[6] utilizationCountManeuversMission 12
scalar OsgEarthNet.uav[6] utilizationCountManeuversMaintenance 2
scalar OsgEarthNet.uav[6] utilizationCountChargeState 1
scalar OsgEarthNet.uav[6] utilizationCountOverdrawnAfterMission 0
scalar OsgEarthNet.uav[6] utilizationCountIdleState 2
scalar OsgEarthNet.uav[6] utilizationFail 0
scalar OsgEarthNet.uav[6] simulationTime 259200
scalar OsgEarthNet.uav[7] utilizationSecMission 22556.163285256
scalar OsgEarthNet.uav[7] utilizationSecMaintenance 11309.700990015
scalar OsgEarthNet.uav[7] utilizationSecCharge 131781.79898968
scalar OsgEarthNet.uav[7] utilizationSecIdle 93552.335735053
scalar OsgEarthNet.uav[7] utilizationEnergyMission 105540.3351593
scalar OsgEarthNet.uav[7] utilizationEnergyMaintenance 54009.107303619
scalar OsgEarthNet.uav[7] utilizationEnergyCharge 155991.32879639
scalar OsgEarthNet.uav[7] utilizationEnergyOverdrawMission 0
scalar OsgEarthNet.uav[7] utilizationEnergyOverdrawMaintenance 0
scalar OsgEarthNet.uav[7] utilizationCountMissions 42
scalar OsgEarthNet.uav[7] utilizationCountManeuversMission 374
scalar OsgEarthNet.uav[7] utilizationCountManeuversMaintenance 84
scalar OsgEarthNet.uav[7] utilizationCountChargeState 42
scalar OsgEarthNet.uav[7] utilizationCountOverdrawnAfterMission 0
scalar OsgEarthNet.uav[7] utilizationCountIdleState 42
scalar OsgEarthNet.uav[7] utilizationFail 0
scalar OsgEarthNet.uav[7] simulationTime 259200
scalar OsgEarthNet.uav[8] utilizationSecMission 2786.013483483
scalar OsgEarthNet.uav[8] utilizationSecMaintenance 1495.6432198084
scalar OsgEarthNet.uav[8] utilizationSecCharge 16670
scalar OsgEarthNet.uav[8] utilizationSecIdle 238248.34229671
scalar OsgEarthNet.uav[8] utilizationEnergyMission 12697.236785889
scalar OsgEarthNet.uav[8] utilizationEnergyMaintenance 7217.3409385681
scalar OsgEarthNet.uav[8] utilizationEnergyCharge 19925.56640625
scalar OsgEarthNet.uav[8] utilizationEnergyOverdrawMission 0
scalar OsgEarthNet.uav[8] utilizationEnergyOverdrawMaintenance 0
scalar OsgEarthNet.uav[8] utilizationCountMissions 5
scalar OsgEarthNet.uav[8] utilizationCountManeuversMission 47
scalar OsgEarthNet.uav[8] utilizationCountManeuversMaintenance 10
scalar OsgEarthNet.uav[8] utilizationCountChargeState 5
scalar OsgEarthNet.uav[8] utilizationCountOverdrawnAfterMission 0
scalar OsgEarthNet.uav[8] utilizationCountIdleState 6
scalar OsgEarthNet.uav[8] utilizationFail 0
scalar OsgEarthNet.uav[8] simulationTime 259200
scalar OsgEarthNet.uav[9] utilizationSecMission 25414.587556694
scalar OsgEarthNet.uav[9] utilizationSecMaintenance 12873.085909247
scalar OsgEarthNet.uav[9] utilizationSecCharge 143716.15246739
scalar OsgEarthNet.uav[9] utilizationSecIdle 77196.173066668
scalar OsgEarthNet.uav[9] utilizationEnergyMission 117889.32042694
scalar OsgEarthNet.uav[9] utilizationEnergyMaintenance 59671.747314453
scalar OsgEarthNet.uav[9] utilizationEnergyCharge 174968.96191406
scalar OsgEarthNet.uav[9] utilizationEnergyOverdrawMission 0
scalar OsgEarthNet.uav[9] utilizationEnergyOverdrawMaintenance 0
scalar OsgEarthNet.uav[9] utilizationCountMissions 43
scalar OsgEarthNet.uav[9] utilizationCountManeuversMission 424
scalar OsgEarthNet.uav[9] utilizationCountManeuversMaintenance 86
scalar OsgEarthNet.uav[9] utilizationCountChargeState 43
scalar OsgEarthNet.uav[9] utilizationCountOverdrawnAfterMission 0
scalar OsgEarthNet.uav[9] utilizationCountIdleState 43
scalar OsgEarthNet.uav[9] utilizationFail 0
scalar OsgEarthNet.uav[9] simulationTime 259200
scalar OsgEarthNet.uav[10] utilizationSecMission 974.02741920121
scalar OsgEarthNet.uav[10] utilizationSecMaintenance 644.86201791861
scalar OsgEarthNet.uav[10] utilizationSecCharge 6330
scalar OsgEarthNet.uav[10] utilizationSecIdle 251251.10956288
scalar OsgEarthNet.uav[10] utilizationEnergyMission 4431.5000610352
scalar OsgEarthNet.uav[10] utilizationEnergyMaintenance 3094.103679657
scalar OsgEarthNet.uav[10] utilizationEnergyCharge 7525.6069335938
scalar OsgEarthNet.uav[10] utilizationEnergyOverdrawMission 0
scalar OsgEarthNet.uav[10] utilizationEnergyOverdrawMaintenance 0
scalar OsgEarthNet.uav[10] utilizationCountMissions 2
scalar OsgEarthNet.uav[10] utilizationCountManeuversMission 15
scalar OsgEarthNet.uav[10] utilizationCountManeuversMaintenance 4
scalar OsgEarthNet.uav[10] utilizationCountChargeState 2
scalar OsgEarthNet.uav[10] utilizationCountOverdrawnAfterMission 0
scalar OsgEarthNet.uav[10] utilizationCountIdleState 3
scalar OsgEarthNet.uav[10] utilizationFail 0
scalar OsgEarthNet.uav[10] simulationTime 259200
scalar OsgEarthNet.uav[11] utilizationSecMission 19099.083217384
scalar OsgEarthNet.uav[11] utilizationSecMaintenance 8968.256720132
scalar OsgEarthNet.uav[11] utilizationSecCharge 108310
scalar OsgEarthNet.uav[11] utilizationSecIdle 122822.65906248
scalar OsgEarthNet.uav[11] utilizationEnergyMission 88846.081176758
scalar OsgEarthNet.uav[11] utilizationEnergyMaintenance 42440.306728363
scalar OsgEarthNet.uav[11] utilizationEnergyCharge 131128.99121094
scalar OsgEarthNet.uav[11] utilizationEnergyOverdrawMission 0
scalar OsgEarthNet.uav[11] utilizationEnergyOverdrawMaintenance 0
scalar OsgEarthNet.uav[11] utilizationCountMissions 32
scalar OsgEarthNet.uav[11] utilizationCountManeuversMission 319
scalar OsgEarthNet.uav[11] utilizationCountManeuversMaintenance 64
scalar OsgEarthNet.uav[11] utilizationCountChargeState 32
scalar OsgEarthNet.uav[11] utilizationCountOverdrawnAfterMission 0
scalar OsgEarthNet.uav[11] utilizationCountIdleState 33
scalar OsgEarthNet.uav[11] utilizationFail 0
scalar OsgEarthNet.uav[11] simulationTime 259200
scalar OsgEarthNet.uav[12] utilizationSecMission 26745.407696955
scalar OsgEarthNet.uav[12] utilizationSecMaintenance 12896.082325282
scalar OsgEarthNet.uav[12] utilizationSecCharge 151890
scalar OsgEarthNet.uav[12] utilizationSecIdle 67668.508977763
scalar OsgEarthNet.uav[12] utilizationEnergyMission 124443.34783173
scalar OsgEarthNet.uav[12] utilizationEnergyMaintenance 61068.411956787
scalar OsgEarthNet.uav[12] utilizationEnergyCharge 185562.77905273
scalar OsgEarthNet.uav[12] utilizationEnergyOverdrawMission 0
scalar OsgEarthNet.uav[12] utilizationEnergyOverdrawMaintenance 0
scalar OsgEarthNet.uav[12] utilizationCountMissions 44
scalar OsgEarthNet.uav[12] utilizationCountManeuversMission 426
scalar OsgEarthNet.uav[12] utilizationCountManeuversMaintenance 88
scalar OsgEarthNet.uav[12] utilizationCountChargeState 44
scalar OsgEarthNet.uav[12] utilizationCountOverdrawnAfterMission 0
scalar OsgEarthNet.uav[12] utilizationCountIdleState 45
scalar OsgEarthNet.uav[12] utilizationFail 0
scalar OsgEarthNet.uav[12] simulationTime 259200
scalar OsgEarthNet.uav[13] utilizationSecMission 8872.1113537976
scalar OsgEarthNet.uav[13] utilizationSecMaintenance 4353.5674573623
scalar OsgEarthNet.uav[13] utilizationSecCharge 51640
scalar OsgEarthNet.uav[13] utilizationSecIdle 194334.32018884
scalar OsgEarthNet.uav[13] utilizationEnergyMission 40708.579689026
scalar OsgEarthNet.uav[13] utilizationEnergyMaintenance 20427.520385742
scalar OsgEarthNet.uav[13] utilizationEnergyCharge 61396.734863281
scalar OsgEarthNet.uav[13] utilizationEnergyOverdrawMission 0
scalar OsgEarthNet.uav[13] utilizationEnergyOverdrawMaintenance 0
scalar OsgEarthNet.uav[13] utilizationCountMissions 16
scalar OsgEarthNet.uav[13] utilizationCountManeuversMission 138
scalar OsgEarthNet.uav[13] utilizationCountManeuversMaintenance 32
scalar OsgEarthNet.uav[13] utilizationCountChargeState 16
scalar OsgEarthNet.uav[13] utilizationCountOverdrawnAfterMission 0
scalar OsgEarthNet.uav[13] utilizationCountIdleState 17
scalar OsgEarthNet.uav[13] utilizationFail 0
scalar OsgEarthNet.uav[13] simulationTime 259200
scalar OsgEarthNet.uav[14] utilizationSecMission 27656.476840341
scalar OsgEarthNet.uav[14] utilizationSecMaintenance 12572.520174989
scalar OsgEarthNet.uav[14] utilizationSecCharge 153444.6422267
scalar OsgEarthNet.uav[14] utilizationSecIdle 65526.359757974
scalar OsgEarthNet.uav[14] utilizationEnergyMission 128507.59434128
scalar OsgEarthNet.uav[14] utilizationEnergyMaintenance 58621.475868225
scalar OsgEarthNet.uav[14] utilizationEnergyCharge 186959.38256836
scalar OsgEarthNet.uav[14] utilizationEnergyOverdrawMission 0
scalar OsgEarthNet.uav[14] utilizationEnergyOverdrawMaintenance 0
scalar OsgEarthNet.uav[14] utilizationCountMissions 45
scalar OsgEarthNet.uav[14] utilizationCountManeuversMission 452
scalar OsgEarthNet.uav[14] utilizationCountManeuversMaintenance 90
scalar OsgEarthNet.uav[14] utilizationCountChargeState 45
scalar OsgEarthNet.uav[14] utilizationCountOverdrawnAfterMission 0
scalar OsgEarthNet.uav[14] utilizationCountIdleState 45
scalar OsgEarthNet.uav[14] utilizationFail 0
scalar OsgEarthNet.uav[14] simulationTime 259200
scalar OsgEarthNet.uav[15] utilizationSecMission 10716.508937124
scalar OsgEarthNet.uav[15] utilizationSecMaintenance 4519.4519862799
scalar OsgEarthNet.uav[15] utilizationSecCharge 56706.561819868
scalar OsgEarthNet.uav[15] utilizationSecIdle 187257.47625673
scalar OsgEarthNet.uav[15] utilizationEnergyMission 49057.421989441
scalar OsgEarthNet.uav[15] utilizationEnergyMaintenance 21457.339214325
scalar OsgEarthNet.uav[15] utilizationEnergyCharge 70724.938720703
scalar OsgEarthNet.uav[15] utilizationEnergyOverdrawMission 0
scalar OsgEarthNet.uav[15] utilizationEnergyOverdrawMaintenance 0
scalar OsgEarthNet.uav[15] utilizationCountMissions 16
scalar OsgEarthNet.uav[15] utilizationCountManeuversMission 175
scalar OsgEarthNet.uav[15] utilizationCountManeuversMaintenance 32
scalar OsgEarthNet.uav[15] utilizationCountChargeState 16
scalar OsgEarthNet.uav[15] utilizationCountOverdrawnAfterMission 0
scalar OsgEarthNet.uav[15] utilizationCountIdleState 16
scalar OsgEarthNet.uav[15] utilizationFail 0
scalar OsgEarthNet.uav[15] simulationTime 259200
scalar OsgEarthNet.uav[16] utilizationSecMission 179.21601502944
scalar OsgEarthNet.uav[16] utilizationSecMaintenance 354.43405905663
scalar OsgEarthNet.uav[16] utilizationSecCharge 2440
scalar OsgEarthNet.uav[16] utilizationSecIdle 256226.34892591
scalar OsgEarthNet.uav[16] utilizationEnergyMission 772.59963989258
scalar OsgEarthNet.uav[16] utilizationEnergyMaintenance 1656.7077255249
scalar OsgEarthNet.uav[16] utilizationEnergyCharge 2429.3063964844
scalar OsgEarthNet.uav[16] utilizationEnergyOverdrawMission 0
scalar OsgEarthNet.uav[16] utilizationEnergyOverdrawMaintenance 0
scalar OsgEarthNet.uav[16] utilizationCountMissions 1
scalar OsgEarthNet.uav[16] utilizationCountManeuversMission 3
scalar OsgEarthNet.uav[16] utilizationCountManeuversMaintenance 2
scalar OsgEarthNet.uav[16] utilizationCountChargeState 1
scalar OsgEarthNet.uav[16] utilizationCountOverdrawnAfterMission 0
scalar OsgEarthNet.uav[16] utilizationCountIdleState 2
scalar OsgEarthNet.uav[16] utilizationFail 0
scalar OsgEarthNet.uav[16] simulationTime 259200
scalar OsgEarthNet.uav[17] utilizationSecMission 17860.101685366
scalar OsgEarthNet.uav[17] utilizationSecMaintenance 8006.4971056517
scalar OsgEarthNet.uav[17] utilizationSecCharge 96911.029644168
scalar OsgEarthNet.uav[17] utilizationSecIdle 136422.37056481
scalar OsgEarthNet.uav[17] utilizationEnergyMission 83749.135681152
scalar OsgEarthNet.uav[17] utilizationEnergyMaintenance 36724.514125824
scalar OsgEarthNet.uav[17] utilizationEnergyCharge 118639.30761719
scalar OsgEarthNet.uav[17] utilizationEnergyOverdrawMission 0
scalar OsgEarthNet.uav[17] utilizationEnergyOverdrawMaintenance 0
scalar OsgEarthNet.uav[17] utilizationCountMissions 29
scalar OsgEarthNet.uav[17] utilizationCountManeuversMission 300
scalar OsgEarthNet.uav[17] utilizationCountManeuversMaintenance 58
scalar OsgEarthNet.uav[17] utilizationCountChargeState 29
scalar OsgEarthNet.uav[17] utilizationCountOverdrawnAfterMission 0
scalar OsgEarthNet.uav[17] utilizationCountIdleState 29
scalar OsgEarthNet.uav[17] utilizationFail 0
scalar OsgEarthNet.uav[17] simulationTime 259200
scalar OsgEarthNet.uav[18] utilizationSecMission 13726.452480638
scalar OsgEarthNet.uav[18] utilizationSecMaintenance 4440.3830459248
scalar OsgEarthNet.uav[18] utilizationSecCharge 67730
scalar OsgEarthNet.uav[18] utilizationSecIdle 173303.16347344
scalar OsgEarthNet.uav[18] utilizationEnergyMission 62869.862739563
scalar OsgEarthNet.uav[18] utilizationEnergyMaintenance 20901.686538696
scalar OsgEarthNet.uav[18] utilizationEnergyCharge 83829.295654297
scalar OsgEarthNet.uav[18] utilizationEnergyOverdrawMission 0
scalar OsgEarthNet.uav[18] utilizationEnergyOverdrawMaintenance 0
scalar OsgEarthNet.uav[18] utilizationCountMissions 19
scalar OsgEarthNet.uav[18] utilizationCountManeuversMission 213
scalar OsgEarthNet.uav[18] utilizationCountManeuversMaintenance 38
scalar OsgEarthNet.uav[18] utilizationCountChargeState 19
scalar OsgEarthNet.uav[18] utilizationCountOverdrawnAfterMission 0
scalar OsgEarthNet.uav[18] utilizationCountIdleState 20
scalar OsgEarthNet.uav[18] utilizationFail 0
scalar OsgEarthNet.uav[18] simulationTime 259200
scalar OsgEarthNet.uav[19] utilizationSecMission 28196.297468665
scalar OsgEarthNet.uav[19] utilizationSecMaintenance 12795.399906981
scalar OsgEarthNet.uav[19] utilizationSecCharge 154410
scalar OsgEarthNet.uav[19] utilizationSecIdle 63798.301624355
scalar OsgEarthNet.uav[19] utilizationEnergyMission 129430.43045807
scalar OsgEarthNet.uav[19] utilizationEnergyMaintenance 59364.989849091
scalar OsgEarthNet.uav[19] utilizationEnergyCharge 187951.93286133
scalar OsgEarthNet.uav[19] utilizationEnergyOverdrawMission 0
scalar OsgEarthNet.uav[19] utilizationEnergyOverdrawMaintenance 0
scalar OsgEarthNet.uav[19] utilizationCountMissions 45
scalar OsgEarthNet.uav[19] utilizationCountManeuversMission 471
scalar OsgEarthNet.uav[19] utilizationCountManeuversMaintenance 90
scalar OsgEarthNet.uav[19] utilizationCountChargeState 45
scalar OsgEarthNet.uav[19] utilizationCountOverdrawnAfterMission 0
scalar OsgEarthNet.uav[19] utilizationCountIdleState 46
scalar OsgEarthNet.uav[19] utilizationFail 0
scalar OsgEarthNet.uav[19] simulationTime 259200
scalar OsgEarthNet.uav[20] utilizationSecMission 570.98871244881
scalar OsgEarthNet.uav[20] utilizationSecMaintenance 276.2282017063
scalar OsgEarthNet.uav[20] utilizationSecCharge 3410
scalar OsgEarthNet.uav[20] utilizationSecIdle 254942.78208584
scalar OsgEarthNet.uav[20] utilizationEnergyMission 2728.7746582031
scalar OsgEarthNet.uav[20] utilizationEnergyMaintenance 1405.710521698
scalar OsgEarthNet.uav[20] utilizationEnergyCharge 4134.4858398438
scalar OsgEarthNet.uav[20] utilizationEnergyOverdrawMission 0
scalar OsgEarthNet.uav[20] utilizationEnergyOverdrawMaintenance 0
scalar OsgEarthNet.uav[20] utilizationCountMissions 1
scalar OsgEarthNet.uav[20] utilizationCountManeuversMission 8
scalar OsgEarthNet.uav[20] utilizationCountManeuversMaintenance 2
scalar OsgEarthNet.uav[20] utilizationCountChargeState 1
scalar OsgEarthNet.uav[20] utilizationCountOverdrawnAfterMission 0
scalar OsgEarthNet.uav[20] utilizationCountIdleState 2
scalar OsgEarthNet.uav[20] utilizationFail 0
scalar OsgEarthNet.uav[20] simulationTime 259200
scalar OsgEarthNet.uav[21] utilizationSecMission 682.94783150361
scalar OsgEarthNet.uav[21] utilizationSecMaintenance 228.1606024445
scalar OsgEarthNet.uav[21] utilizationSecCharge 3600
scalar OsgEarthNet.uav[21] utilizationSecIdle 254688.89056605
scalar OsgEarthNet.uav[21] utilizationEnergyMission 3331.8096618652
scalar OsgEarthNet.uav[21] utilizationEnergyMaintenance 1108.8601303101
scalar OsgEarthNet.uav[21] utilizationEnergyCharge 4440.6723632812
scalar OsgEarthNet.uav[21] utilizationEnergyOverdrawMission 0
scalar OsgEarthNet.uav[21] utilizationEnergyOverdrawMaintenance 0
scalar OsgEarthNet.uav[21] utilizationCountMissions 1
scalar OsgEarthNet.uav[21] utilizationCountManeuversMission 12
scalar OsgEarthNet.uav[21] utilizationCountManeuversMaintenance 2
scalar OsgEarthNet.uav[21] utilizationCountChargeState 1
scalar OsgEarthNet.uav[21] utilizationCountOverdrawnAfterMission 0
scalar OsgEarthNet.uav[21] utilizationCountIdleState 2
scalar OsgEarthNet.uav[21] utilizationFail 0
scalar OsgEarthNet.uav[21] simulationTime 259200
scalar OsgEarthNet.uav[22] utilizationSecMission 694.00169469977
scalar OsgEarthNet.uav[22] utilizationSecMaintenance 223.34597234416
scalar OsgEarthNet.uav[22] utilizationSecCharge 3370
scalar OsgEarthNet.uav[22] utilizationSecIdle 254912.65133296
scalar OsgEarthNet.uav[22] utilizationEnergyMission 3176.492980957
scalar OsgEarthNet.uav[22] utilizationEnergyMaintenance 961.29554367066
scalar OsgEarthNet.uav[22] utilizationEnergyCharge 4108.6484375
scalar OsgEarthNet.uav[22] utilizationEnergyOverdrawMission 0
scalar OsgEarthNet.uav[22] utilizationEnergyOverdrawMaintenance 0
scalar OsgEarthNet.uav[22] utilizationCountMissions 1
scalar OsgEarthNet.uav[22] utilizationCountManeuversMission 13
scalar OsgEarthNet.uav[22] utilizationCountManeuversMaintenance 2
scalar OsgEarthNet.uav[22] utilizationCountChargeState 1
scalar OsgEarthNet.uav[22] utilizationCountOverdrawnAfterMission 0
scalar OsgEarthNet.uav[22] utilizationCountIdleState 2
scalar OsgEarthNet.uav[22] utilizationFail 0
scalar OsgEarthNet.uav[22] simulationTime 259200
scalar OsgEarthNet.uav[23] utilizationSecMission 836.77707522227
scalar OsgEarthNet.uav[23] utilizationSecMaintenance 217.0347828456
scalar OsgEarthNet.uav[23] utilizationSecCharge 3820
scalar OsgEarthNet.uav[23] utilizationSecIdle 254326.18714193
scalar OsgEarthNet.uav[23] utilizationEnergyMission 3728.2178649902
scalar OsgEarthNet.uav[23] utilizationEnergyMaintenance 1090.9503288269
scalar OsgEarthNet.uav[23] utilizationEnergyCharge 4819.1665039062
scalar OsgEarthNet.uav[23] utilizationEnergyOverdrawMission 0
scalar OsgEarthNet.uav[23] utilizationEnergyOverdrawMaintenance 0
scalar OsgEarthNet.uav[23] utilizationCountMissions 1
scalar OsgEarthNet.uav[23] utilizationCountManeuversMission 13
scalar OsgEarthNet.uav[23] utilizationCountManeuversMaintenance 2
scalar OsgEarthNet.uav[23] utilizationCountChargeState 1
scalar OsgEarthNet.uav[23] utilizationCountOverdrawnAfterMission 0
scalar OsgEarthNet.uav[23] utilizationCountIdleState 2
scalar OsgEarthNet.uav[23] utilizationFail 0
scalar OsgEarthNet.uav[23] simulationTime 259200
scalar OsgEarthNet.uav[24] utilizationSecMission 27105.480845978
scalar OsgEarthNet.uav[24] utilizationSecMaintenance 11984.155694338
scalar OsgEarthNet.uav[24] utilizationSecCharge 148000
scalar OsgEarthNet.uav[24] utilizationSecIdle 72110.362459684
scalar OsgEarthNet.uav[24] utilizationEnergyMission 126181.63173633
scalar OsgEarthNet.uav[24] utilizationEnergyMaintenance 56702.767375946
scalar OsgEarthNet.uav[24] utilizationEnergyCharge 178795.59741211
scalar OsgEarthNet.uav[24] utilizationEnergyOverdrawMission 0
scalar OsgEarthNet.uav[24] utilizationEnergyOverdrawMaintenance 0
scalar OsgEarthNet.uav[24] utilizationCountMissions 44
scalar OsgEarthNet.uav[24] utilizationCountManeuversMission 444
scalar OsgEarthNet.uav[24] utilizationCountManeuversMaintenance 89
scalar OsgEarthNet.uav[24] utilizationCountChargeState 44
scalar OsgEarthNet.uav[24] utilizationCountOverdrawnAfterMission 0
scalar OsgEarthNet.uav[24] utilizationCountIdleState 45
scalar OsgEarthNet.uav[24] utilizationFail 0
scalar OsgEarthNet.uav[24] simulationTime 259200
scalar OsgEarthNet.uav[25] utilizationSecMission 2527.3303503127
scalar OsgEarthNet.uav[25] utilizationSecMaintenance 547.17634248801
scalar OsgEarthNet.uav[25] utilizationSecCharge 11040
scalar OsgEarthNet.uav[25] utilizationSecIdle 245085.4923072
scalar OsgEarthNet.uav[25] utilizationEnergyMission 11574.564178467
scalar OsgEarthNet.uav[25] utilizationEnergyMaintenance 2406.3469696045
scalar OsgEarthNet.uav[25] utilizationEnergyCharge 13785.611816406
scalar OsgEarthNet.uav[25] utilizationEnergyOverdrawMission 0
scalar OsgEarthNet.uav[25] utilizationEnergyOverdrawMaintenance 0
scalar OsgEarthNet.uav[25] utilizationCountMissions 3
scalar OsgEarthNet.uav[25] utilizationCountManeuversMission 42
scalar OsgEarthNet.uav[25] utilizationCountManeuversMaintenance 6
scalar OsgEarthNet.uav[25] utilizationCountChargeState 3
scalar OsgEarthNet.uav[25] utilizationCountOverdrawnAfterMission 0
scalar OsgEarthNet.uav[25] utilizationCountIdleState 4
scalar OsgEarthNet.uav[25] utilizationFail 0
scalar OsgEarthNet.uav[25] simulationTime 259200
scalar OsgEarthNet.uav[26] utilizationSecMission 213.40226662092
scalar OsgEarthNet.uav[26] utilizationSecMaintenance 474.30151219871
scalar OsgEarthNet.uav[26] utilizationSecCharge 3030
scalar OsgEarthNet.uav[26] utilizationSecIdle 255482.29522118
scalar OsgEarthNet.uav[26] utilizationEnergyMission 1012.3446350098
scalar OsgEarthNet.uav[26] utilizationEnergyMaintenance 2468.7917709351
scalar OsgEarthNet.uav[26] utilizationEnergyCharge 3481.138671875
scalar OsgEarthNet.uav[26] utilizationEnergyOverdrawMission 0
scalar OsgEarthNet.uav[26] utilizationEnergyOverdrawMaintenance 0
scalar OsgEarthNet.uav[26] utilizationCountMissions 1
scalar OsgEarthNet.uav[26] utilizationCountManeuversMission 3
scalar OsgEarthNet.uav[26] utilizationCountManeuversMaintenance 2
scalar OsgEarthNet.uav[26] utilizationCountChargeState 1
scalar OsgEarthNet.uav[26] utilizationCountOverdrawnAfterMission 0
scalar OsgEarthNet.uav[26] utilizationCountIdleState 2
scalar OsgEarthNet.uav[26] utilizationFail 0
scalar OsgEarthNet.uav[26] simulationTime 259200
scalar OsgEarthNet.uav[27] utilizationSecMission 12743.520780953
scalar OsgEarthNet.uav[27] utilizationSecMaintenance 5326.7917634285
scalar OsgEarthNet.uav[27] utilizationSecCharge 71320
scalar OsgEarthNet.uav[27] utilizationSecIdle 169809.68645562
scalar OsgEarthNet.uav[27] utilizationEnergyMission 59739.328125
scalar OsgEarthNet.uav[27] utilizationEnergyMaintenance 25183.055744171
scalar OsgEarthNet.uav[27] utilizationEnergyCharge 84890.817382812
scalar OsgEarthNet.uav[27] utilizationEnergyOverdrawMission 0
scalar OsgEarthNet.uav[27] utilizationEnergyOverdrawMaintenance 0
scalar OsgEarthNet.uav[27] utilizationCountMissions 22
scalar OsgEarthNet.uav[27] utilizationCountManeuversMission 216
scalar OsgEarthNet.uav[27] utilizationCountManeuversMaintenance 44
scalar OsgEarthNet.uav[27] utilizationCountChargeState 22
scalar OsgEarthNet.uav[27] utilizationCountOverdrawnAfterMission 0
scalar OsgEarthNet.uav[27] utilizationCountIdleState 23
scalar OsgEarthNet.uav[27] utilizationFail 0
scalar OsgEarthNet.uav[27] simulationTime 259200
scalar OsgEarthNet.uav[28] utilizationSecMission 30241.902770969
scalar OsgEarthNet.uav[28] utilizationSecMaintenance 11014.286278031
scalar OsgEarthNet.uav[28] utilizationSecCharge 157600
scalar OsgEarthNet.uav[28] utilizationSecIdle 60343.809951
scalar OsgEarthNet.uav[28] utilizationEnergyMission 141208.21561432
scalar OsgEarthNet.uav[28] utilizationEnergyMaintenance 52795.658180237
scalar OsgEarthNet.uav[28] utilizationEnergyCharge 193922.00219727
scalar OsgEarthNet.uav[28] utilizationEnergyOverdrawMission 0
scalar OsgEarthNet.uav[28] utilizationEnergyOverdrawMaintenance 0
scalar OsgEarthNet.uav[28] utilizationCountMissions 45
scalar OsgEarthNet.uav[28] utilizationCountManeuversMission 494
scalar OsgEarthNet.uav[28] utilizationCountManeuversMaintenance 90
scalar OsgEarthNet.uav[28] utilizationCountChargeState 45
scalar OsgEarthNet.uav[28] utilizationCountOverdrawnAfterMission 0
scalar OsgEarthNet.uav[28] utilizationCountIdleState 46
scalar OsgEarthNet.uav[28] utilizationFail 0
scalar OsgEarthNet.uav[28] simulationTime 259200
scalar OsgEarthNet.uav[29] utilizationSecMission 836.77707522227
scalar OsgEarthNet.uav[29] utilizationSecMaintenance 217.0347828456
scalar OsgEarthNet.uav[29] utilizationSecCharge 3910
scalar OsgEarthNet.uav[29] utilizationSecIdle 254236.18714193
scalar OsgEarthNet.uav[29] utilizationEnergyMission 3853.7319030762
scalar OsgEarthNet.uav[29] utilizationEnergyMaintenance 1124.2285270691
scalar OsgEarthNet.uav[29] utilizationEnergyCharge 4977.9584960938
scalar OsgEarthNet.uav[29] utilizationEnergyOverdrawMission 0
scalar OsgEarthNet.uav[29] utilizationEnergyOverdrawMaintenance 0
scalar OsgEarthNet.uav[29] utilizationCountMissions 1
scalar OsgEarthNet.uav[29] utilizationCountManeuversMission 13
scalar OsgEarthNet.uav[29] utilizationCountManeuversMaintenance 2
scalar OsgEarthNet.uav[29] utilizationCountChargeState 1
scalar OsgEarthNet.uav[29] utilizationCountOverdrawnAfterMission 0
scalar OsgEarthNet.uav[29] utilizationCountIdleState 2
scalar OsgEarthNet.uav[29] utilizationFail 0
scalar OsgEarthNet.uav[29] simulationTime 259200
scalar OsgEarthNet.uav[30] utilizationSecMission 760.62515258028
scalar OsgEarthNet.uav[30] utilizationSecMaintenance 245.74410321072
scalar OsgEarthNet.uav[30] utilizationSecCharge 3640
scalar OsgEarthNet.uav[30] utilizationSecIdle 254553.62974421
scalar OsgEarthNet.uav[30] utilizationEnergyMission 3340.4341583252
scalar OsgEarthNet.uav[30] utilizationEnergyMaintenance 1234.7107963562
scalar OsgEarthNet.uav[30] utilizationEnergyCharge 4575.1479492188
scalar OsgEarthNet.uav[30] utilizationEnergyOverdrawMission 0
scalar OsgEarthNet.uav[30] utilizationEnergyOverdrawMaintenance 0
scalar OsgEarthNet.uav[30] utilizationCountMissions 1
scalar OsgEarthNet.uav[30] utilizationCountManeuversMission 12
scalar OsgEarthNet.uav[30] utilizationCountManeuversMaintenance 2
scalar OsgEarthNet.uav[30] utilizationCountChargeState 1
scalar OsgEarthNet.uav[30] utilizationCountOverdrawnAfterMission 0
scalar OsgEarthNet.uav[30] utilizationCountIdleState 2
scalar OsgEarthNet.uav[30] utilizationFail 0
scalar OsgEarthNet.uav[30] simulationTime 259200
scalar OsgEarthNet.uav[31] utilizationSecMission 26071.530100423
scalar OsgEarthNet.uav[31] utilizationSecMaintenance 12874.975274812
scalar OsgEarthNet.uav[31] utilizationSecCharge 147738.78792573
scalar OsgEarthNet.uav[31] utilizationSecIdle 72514.705699036
scalar OsgEarthNet.uav[31] utilizationEnergyMission 120530.56375122
scalar OsgEarthNet.uav[31] utilizationEnergyMaintenance 60350.226539612
scalar OsgEarthNet.uav[31] utilizationEnergyCharge 178414.79931641
scalar OsgEarthNet.uav[31] utilizationEnergyOverdrawMission 0
scalar OsgEarthNet.uav[31] utilizationEnergyOverdrawMaintenance 0
scalar OsgEarthNet.uav[31] utilizationCountMissions 45
scalar OsgEarthNet.uav[31] utilizationCountManeuversMission 438
scalar OsgEarthNet.uav[31] utilizationCountManeuversMaintenance 90
scalar OsgEarthNet.uav[31] utilizationCountChargeState 45
scalar OsgEarthNet.uav[31] utilizationCountOverdrawnAfterMission 0
scalar OsgEarthNet.uav[31] utilizationCountIdleState 45
scalar OsgEarthNet.uav[31] utilizationFail 0
scalar OsgEarthNet.uav[31] simulationTime 259200
scalar OsgEarthNet.uav[32] utilizationSecMission 28456.456509073
scalar OsgEarthNet.uav[32] utilizationSecMaintenance 10736.944113436
scalar OsgEarthNet.uav[32] utilizationSecCharge 145929.94506817
scalar OsgEarthNet.uav[32] utilizationSecIdle 74076.653309323
scalar OsgEarthNet.uav[32] utilizationEnergyMission 130610.01961517
scalar OsgEarthNet.uav[32] utilizationEnergyMaintenance 50077.147819519
scalar OsgEarthNet.uav[32] utilizationEnergyCharge 180306.1262207
scalar OsgEarthNet.uav[32] utilizationEnergyOverdrawMission 0
scalar OsgEarthNet.uav[32] utilizationEnergyOverdrawMaintenance 0
scalar OsgEarthNet.uav[32] utilizationCountMissions 42
scalar OsgEarthNet.uav[32] utilizationCountManeuversMission 462
scalar OsgEarthNet.uav[32] utilizationCountManeuversMaintenance 84
scalar OsgEarthNet.uav[32] utilizationCountChargeState 42
scalar OsgEarthNet.uav[32] utilizationCountOverdrawnAfterMission 0
scalar OsgEarthNet.uav[32] utilizationCountIdleState 42
scalar OsgEarthNet.uav[32] utilizationFail 0
scalar OsgEarthNet.uav[32] simulationTime 259200
scalar OsgEarthNet.uav[33] utilizationSecMission 760.62515258028
scalar OsgEarthNet.uav[33] utilizationSecMaintenance 245.74410321072
scalar OsgEarthNet.uav[33] utilizationSecCharge 3720
scalar OsgEarthNet.uav[33] utilizationSecIdle 254473.62974421
scalar OsgEarthNet.uav[33] utilizationEnergyMission 3738.637588501
scalar OsgEarthNet.uav[33] utilizationEnergyMaintenance 954.6834526062
scalar OsgEarthNet.uav[33] utilizationEnergyCharge 4693.3159179688
scalar OsgEarthNet.uav[33] utilizationEnergyOverdrawMission 0
scalar OsgEarthNet.uav[33] utilizationEnergyOverdrawMaintenance 0
scalar OsgEarthNet.uav[33] utilizationCountMissions 1
scalar OsgEarthNet.uav[33] utilizationCountManeuversMission 12
scalar OsgEarthNet.uav[33] utilizationCountManeuversMaintenance 2
scalar OsgEarthNet.uav[33] utilizationCountChargeState 1
scalar OsgEarthNet.uav[33] utilizationCountOverdrawnAfterMission 0
scalar OsgEarthNet.uav[33] utilizationCountIdleState 2
scalar OsgEarthNet.uav[33] utilizationFail 0
scalar OsgEarthNet.uav[33] simulationTime 259200
scalar OsgEarthNet.uav[34] utilizationSecMission 682.94783150361
scalar OsgEarthNet.uav[34] utilizationSecMaintenance 228.1606024445
scalar OsgEarthNet.uav[34] utilizationSecCharge 3480
scalar OsgEarthNet.uav[34] utilizationSecIdle 254808.89056605
scalar OsgEarthNet.uav[34] utilizationEnergyMission 3232.2274780273
scalar OsgEarthNet.uav[34] utilizationEnergyMaintenance 1109.3894271851
scalar OsgEarthNet.uav[34] utilizationEnergyCharge 4341.6166992188
scalar OsgEarthNet.uav[34] utilizationEnergyOverdrawMission 0
scalar OsgEarthNet.uav[34] utilizationEnergyOverdrawMaintenance 0
scalar OsgEarthNet.uav[34] utilizationCountMissions 1
scalar OsgEarthNet.uav[34] utilizationCountManeuversMission 12
scalar OsgEarthNet.uav[34] utilizationCountManeuversMaintenance 2
scalar OsgEarthNet.uav[34] utilizationCountChargeState 1
scalar OsgEarthNet.uav[34] utilizationCountOverdrawnAfterMission 0
scalar OsgEarthNet.uav[34] utilizationCountIdleState 2
scalar OsgEarthNet.uav[34] utilizationFail 0
scalar OsgEarthNet.uav[34] simulationTime 259200
scalar OsgEarthNet.uav[35] utilizationSecMission 694.00169469977
scalar OsgEarthNet.uav[35] utilizationSecMaintenance 223.34597234416
scalar OsgEarthNet.uav[35] utilizationSecCharge 3350
scalar OsgEarthNet.uav[35] utilizationSecIdle 254932.65133296
scalar OsgEarthNet.uav[35] utilizationEnergyMission 2946.0737075806
scalar OsgEarthNet.uav[35] utilizationEnergyMaintenance 1009.3826713562
scalar OsgEarthNet.uav[35] utilizationEnergyCharge 4056.3176269531
scalar OsgEarthNet.uav[35] utilizationEnergyOverdrawMission 0
scalar OsgEarthNet.uav[35] utilizationEnergyOverdrawMaintenance 0
scalar OsgEarthNet.uav[35] utilizationCountMissions 1
scalar OsgEarthNet.uav[35] utilizationCountManeuversMission 13
scalar OsgEarthNet.uav[35] utilizationCountManeuversMaintenance 2
scalar OsgEarthNet.uav[35] utilizationCountChargeState 1
scalar OsgEarthNet.uav[35] utilizationCountOverdrawnAfterMission 0
scalar OsgEarthNet.uav[35] utilizationCountIdleState 2
scalar OsgEarthNet.uav[35] utilizationFail 0
scalar OsgEarthNet.uav[35] simulationTime 259200
scalar OsgEarthNet.uav[36] utilizationSecMission 760.62515258028
scalar OsgEarthNet.uav[36] utilizationSecMaintenance 245.74410321072
scalar OsgEarthNet.uav[36] utilizationSecCharge 3600
scalar OsgEarthNet.uav[36] utilizationSecIdle 254593.62974421
scalar OsgEarthNet.uav[36] utilizationEnergyMission 3293.1989974976
scalar OsgEarthNet.uav[36] utilizationEnergyMaintenance 1199.6861076355
scalar OsgEarthNet.uav[36] utilizationEnergyCharge 4492.8837890625
scalar OsgEarthNet.uav[36] utilizationEnergyOverdrawMission 0
scalar OsgEarthNet.uav[36] utilizationEnergyOverdrawMaintenance 0
scalar OsgEarthNet.uav[36] utilizationCountMissions 1
scalar OsgEarthNet.uav[36] utilizationCountManeuversMission 12
scalar OsgEarthNet.uav[36] utilizationCountManeuversMaintenance 2
scalar OsgEarthNet.uav[36] utilizationCountChargeState 1
scalar OsgEarthNet.uav[36] utilizationCountOverdrawnAfterMission 0
scalar OsgEarthNet.uav[36] utilizationCountIdleState 2
scalar OsgEarthNet.uav[36] utilizationFail 0
scalar OsgEarthNet.uav[36] simulationTime 259200
scalar OsgEarthNet.uav[37] utilizationSecMission 23321.419375012
scalar OsgEarthNet.uav[37] utilizationSecMaintenance 10803.310656412
scalar OsgEarthNet.uav[37] utilizationSecCharge 128163.98280148
scalar OsgEarthNet.uav[37] utilizationSecIdle 96911.286167094
scalar OsgEarthNet.uav[37] utilizationEnergyMission 108025.75827789
scalar OsgEarthNet.uav[37] utilizationEnergyMaintenance 50701.066379547
scalar OsgEarthNet.uav[37] utilizationEnergyCharge 154753.03723145
scalar OsgEarthNet.uav[37] utilizationEnergyOverdrawMission 0
scalar OsgEarthNet.uav[37] utilizationEnergyOverdrawMaintenance 0
scalar OsgEarthNet.uav[37] utilizationCountMissions 39
scalar OsgEarthNet.uav[37] utilizationCountManeuversMission 387
scalar OsgEarthNet.uav[37] utilizationCountManeuversMaintenance 78
scalar OsgEarthNet.uav[37] utilizationCountChargeState 39
scalar OsgEarthNet.uav[37] utilizationCountOverdrawnAfterMission 0
scalar OsgEarthNet.uav[37] utilizationCountIdleState 39
scalar OsgEarthNet.uav[37] utilizationFail 0
scalar OsgEarthNet.uav[37] simulationTime 259200
scalar OsgEarthNet.uav[38] utilizationSecMission 694.00169469977
scalar OsgEarthNet.uav[38] utilizationSecMaintenance 223.34597234416
scalar OsgEarthNet.uav[38] utilizationSecCharge 3610
scalar OsgEarthNet.uav[38] utilizationSecIdle 254672.65133296
scalar OsgEarthNet.uav[38] utilizationEnergyMission 3388.0457687378
scalar OsgEarthNet.uav[38] utilizationEnergyMaintenance 1130.9986991882
scalar OsgEarthNet.uav[38] utilizationEnergyCharge 4511.4404296875
scalar OsgEarthNet.uav[38] utilizationEnergyOverdrawMission 0
scalar OsgEarthNet.uav[38] utilizationEnergyOverdrawMaintenance 0
scalar OsgEarthNet.uav[38] utilizationCountMissions 1
scalar OsgEarthNet.uav[38] utilizationCountManeuversMission 13
scalar OsgEarthNet.uav[38] utilizationCountManeuversMaintenance 2
scalar OsgEarthNet.uav[38] utilizationCountChargeState 1
scalar OsgEarthNet.uav[38] utilizationCountOverdrawnAfterMission 0
scalar OsgEarthNet.uav[38] utilizationCountIdleState 2
scalar OsgEarthNet.uav[38] utilizationFail 0
scalar OsgEarthNet.uav[38] simulationTime 259200
scalar OsgEarthNet.uav[39] utilizationSecMission 760.62515258028
scalar OsgEarthNet.uav[39] utilizationSecMaintenance 245.74410321072
scalar OsgEarthNet.uav[39] utilizationSecCharge 3760
scalar OsgEarthNet.uav[39] utilizationSecIdle 254433.62974421
scalar OsgEarthNet.uav[39] utilizationEnergyMission 3685.2419281006
scalar OsgEarthNet.uav[39] utilizationEnergyMaintenance 1089.7574272156
scalar OsgEarthNet.uav[39] utilizationEnergyCharge 4774.998046875
scalar OsgEarthNet.uav[39] utilizationEnergyOverdrawMission 0
scalar OsgEarthNet.uav[39] utilizationEnergyOverdrawMaintenance 0
scalar OsgEarthNet.uav[39] utilizationCountMissions 1
scalar OsgEarthNet.uav[39] utilizationCountManeuversMission 12
scalar OsgEarthNet.uav[39] utilizationCountManeuversMaintenance 2
scalar OsgEarthNet.uav[39] utilizationCountChargeState 1
scalar OsgEarthNet.uav[39] utilizationCountOverdrawnAfterMission 0
scalar OsgEarthNet.uav[39] utilizationCountIdleState 2
scalar OsgEarthNet.uav[39] utilizationFail 0
scalar OsgEarthNet.uav[39] simulationTime 259200
scalar OsgEarthNet.uav[40] utilizationSecMission 179.21601502944
scalar OsgEarthNet.uav[40] utilizationSecMaintenance 354.43405905663
scalar OsgEarthNet.uav[40] utilizationSecCharge 2480
scalar OsgEarthNet.uav[40] utilizationSecIdle 256186.34892591
scalar OsgEarthNet.uav[40] utilizationEnergyMission 808.82626342773
scalar OsgEarthNet.uav[40] utilizationEnergyMaintenance 1774.5664291382
scalar OsgEarthNet.uav[40] utilizationEnergyCharge 2583.3981933594
scalar OsgEarthNet.uav[40] utilizationEnergyOverdrawMission 0
scalar OsgEarthNet.uav[40] utilizationEnergyOverdrawMaintenance 0
scalar OsgEarthNet.uav[40] utilizationCountMissions 1
scalar OsgEarthNet.uav[40] utilizationCountManeuversMission 3
scalar OsgEarthNet.uav[40] utilizationCountManeuversMaintenance 2
scalar OsgEarthNet.uav[40] utilizationCountChargeState 1
scalar OsgEarthNet.uav[40] utilizationCountOverdrawnAfterMission 0
scalar OsgEarthNet.uav[40] utilizationCountIdleState 2
scalar OsgEarthNet.uav[40] utilizationFail 0
scalar OsgEarthNet.uav[40] simulationTime 259200
scalar OsgEarthNet.uav[41] utilizationSecMission 1619.5625203744
scalar OsgEarthNet.uav[41] utilizationSecMaintenance 946.12847203074
scalar OsgEarthNet.uav[41] utilizationSecCharge 10070
scalar OsgEarthNet.uav[41] utilizationSecIdle 246564.30800759
scalar OsgEarthNet.uav[41] utilizationEnergyMission 7557.7543182373
scalar OsgEarthNet.uav[41] utilizationEnergyMaintenance 4618.8589935303
scalar OsgEarthNet.uav[41] utilizationEnergyCharge 12176.615234375
scalar OsgEarthNet.uav[41] utilizationEnergyOverdrawMission 0
scalar OsgEarthNet.uav[41] utilizationEnergyOverdrawMaintenance 0
scalar OsgEarthNet.uav[41] utilizationCountMissions 3
scalar OsgEarthNet.uav[41] utilizationCountManeuversMission 25
scalar OsgEarthNet.uav[41] utilizationCountManeuversMaintenance 6
scalar OsgEarthNet.uav[41] utilizationCountChargeState 3
scalar OsgEarthNet.uav[41] utilizationCountOverdrawnAfterMission 0
scalar OsgEarthNet.uav[41] utilizationCountIdleState 4
scalar OsgEarthNet.uav[41] utilizationFail 0
scalar OsgEarthNet.uav[41] simulationTime 259200
scalar OsgEarthNet.uav[42] utilizationSecMission 1623.6680332273
scalar OsgEarthNet.uav[42] utilizationSecMaintenance 396.87027355037
scalar OsgEarthNet.uav[42] utilizationSecCharge 7440
scalar OsgEarthNet.uav[42] utilizationSecIdle 249739.46069322
scalar OsgEarthNet.uav[42] utilizationEnergyMission 7630.4319839478
scalar OsgEarthNet.uav[42] utilizationEnergyMaintenance 1944.8857650757
scalar OsgEarthNet.uav[42] utilizationEnergyCharge 9301.1796875
scalar OsgEarthNet.uav[42] utilizationEnergyOverdrawMission 0
scalar OsgEarthNet.uav[42] utilizationEnergyOverdrawMaintenance 0
scalar OsgEarthNet.uav[42] utilizationCountMissions 2
scalar OsgEarthNet.uav[42] utilizationCountManeuversMission 28
scalar OsgEarthNet.uav[42] utilizationCountManeuversMaintenance 4
scalar OsgEarthNet.uav[42] utilizationCountChargeState 2
scalar OsgEarthNet.uav[42] utilizationCountOverdrawnAfterMission 0
scalar OsgEarthNet.uav[42] utilizationCountIdleState 3
scalar OsgEarthNet.uav[42] utilizationFail 0
scalar OsgEarthNet.uav[42] simulationTime 259200
scalar OsgEarthNet.uav[43] utilizationSecMission 4118.179708021
scalar OsgEarthNet.uav[43] utilizationSecMaintenance 1103.8751207852
scalar OsgEarthNet.uav[43] utilizationSecCharge 19180
scalar OsgEarthNet.uav[43] utilizationSecIdle 234797.94417119
scalar OsgEarthNet.uav[43] utilizationEnergyMission 19144.147979736
scalar OsgEarthNet.uav[43] utilizationEnergyMaintenance 5281.8878440857
scalar OsgEarthNet.uav[43] utilizationEnergyCharge 24523.282226562
scalar OsgEarthNet.uav[43] utilizationEnergyOverdrawMission 0
scalar OsgEarthNet.uav[43] utilizationEnergyOverdrawMaintenance 0
scalar OsgEarthNet.uav[43] utilizationCountMissions 5
scalar OsgEarthNet.uav[43] utilizationCountManeuversMission 65
scalar OsgEarthNet.uav[43] utilizationCountManeuversMaintenance 10
scalar OsgEarthNet.uav[43] utilizationCountChargeState 5
scalar OsgEarthNet.uav[43] utilizationCountOverdrawnAfterMission 0
scalar OsgEarthNet.uav[43] utilizationCountIdleState 6
scalar OsgEarthNet.uav[43] utilizationFail 0
scalar OsgEarthNet.uav[43] simulationTime 259200
scalar OsgEarthNet.uav[44] utilizationSecMission 26513.411677466
scalar OsgEarthNet.uav[44] utilizationSecMaintenance 13807.286090996
scalar OsgEarthNet.uav[44] utilizationSecCharge 154141.98514971
scalar OsgEarthNet.uav[44] utilizationSecIdle 64737.316081831
scalar OsgEarthNet.uav[44] utilizationEnergyMission 121400.01718521
scalar OsgEarthNet.uav[44] utilizationEnergyMaintenance 65069.014881134
scalar OsgEarthNet.uav[44] utilizationEnergyCharge 186823.70678711
scalar OsgEarthNet.uav[44] utilizationEnergyOverdrawMission 0
scalar OsgEarthNet.uav[44] utilizationEnergyOverdrawMaintenance 0
scalar OsgEarthNet.uav[44] utilizationCountMissions 46
scalar OsgEarthNet.uav[44] utilizationCountManeuversMission 446
scalar OsgEarthNet.uav[44] utilizationCountManeuversMaintenance 92
scalar OsgEarthNet.uav[44] utilizationCountChargeState 46
scalar OsgEarthNet.uav[44] utilizationCountOverdrawnAfterMission 0
scalar OsgEarthNet.uav[44] utilizationCountIdleState 46
scalar OsgEarthNet.uav[44] utilizationFail 0
scalar OsgEarthNet.uav[44] simulationTime 259200
scalar OsgEarthNet.uav[45] utilizationSecMission 32124.893767042
scalar OsgEarthNet.uav[45] utilizationSecMaintenance 11740.279329671
scalar OsgEarthNet.uav[45] utilizationSecCharge 162422.82590329
scalar OsgEarthNet.uav[45] utilizationSecIdle 52912
scalar OsgEarthNet.uav[45] utilizationEnergyMission 148098.15571415
scalar OsgEarthNet.uav[45] utilizationEnergyMaintenance 53663.197612762
scalar OsgEarthNet.uav[45] utilizationEnergyCharge 201182.72875977
scalar OsgEarthNet.uav[45] utilizationEnergyOverdrawMission 0
scalar OsgEarthNet.uav[45] utilizationEnergyOverdrawMaintenance 0
scalar OsgEarthNet.uav[45] utilizationCountMissions 46
scalar OsgEarthNet.uav[45] utilizationCountManeuversMission 523
scalar OsgEarthNet.uav[45] utilizationCountManeuversMaintenance 91
scalar OsgEarthNet.uav[45] utilizationCountChargeState 46
scalar OsgEarthNet.uav[45] utilizationCountOverdrawnAfterMission 0
scalar OsgEarthNet.uav[45] utilizationCountIdleState 46
scalar OsgEarthNet.uav[45] utilizationFail 0
scalar OsgEarthNet.uav[45] simulationTime 259200
scalar OsgEarthNet.uav[46] utilizationSecMission 22265.286319736
scalar OsgEarthNet.uav[46] utilizationSecMaintenance 10266.034983956
scalar OsgEarthNet.uav[46] utilizationSecCharge 122340
scalar OsgEarthNet.uav[46] utilizationSecIdle 104328.67769631
scalar OsgEarthNet.uav[46] utilizationEnergyMission 102824.25614361
scalar OsgEarthNet.uav[46] utilizationEnergyMaintenance 48741.132720947
scalar OsgEarthNet.uav[46] utilizationEnergyCharge 148362.67895508
scalar OsgEarthNet.uav[46] utilizationEnergyOverdrawMission 0
scalar OsgEarthNet.uav[46] utilizationEnergyOverdrawMaintenance 0
scalar OsgEarthNet.uav[46] utilizationCountMissions 36
scalar OsgEarthNet.uav[46] utilizationCountManeuversMission 357
scalar OsgEarthNet.uav[46] utilizationCountManeuversMaintenance 73
scalar OsgEarthNet.uav[46] utilizationCountChargeState 36
scalar OsgEarthNet.uav[46] utilizationCountOverdrawnAfterMission 0
scalar OsgEarthNet.uav[46] utilizationCountIdleState 37
scalar OsgEarthNet.uav[46] utilizationFail 0
scalar OsgEarthNet.uav[46] simulationTime 259200
scalar OsgEarthNet.uav[47] utilizationSecMission 8896.338542335
scalar OsgEarthNet.uav[47] utilizationSecMaintenance 4813.7973889293
scalar OsgEarthNet.uav[47] utilizationSecCharge 52010
scalar OsgEarthNet.uav[47] utilizationSecIdle 193479.86306874
scalar OsgEarthNet.uav[47] utilizationEnergyMission 41188.238292694
scalar OsgEarthNet.uav[47] utilizationEnergyMaintenance 22625.580078125
scalar OsgEarthNet.uav[47] utilizationEnergyCharge 63727.158935547
scalar OsgEarthNet.uav[47] utilizationEnergyOverdrawMission 0
scalar OsgEarthNet.uav[47] utilizationEnergyOverdrawMaintenance 0
scalar OsgEarthNet.uav[47] utilizationCountMissions 15
scalar OsgEarthNet.uav[47] utilizationCountManeuversMission 144
scalar OsgEarthNet.uav[47] utilizationCountManeuversMaintenance 30
scalar OsgEarthNet.uav[47] utilizationCountChargeState 15
scalar OsgEarthNet.uav[47] utilizationCountOverdrawnAfterMission 0
scalar OsgEarthNet.uav[47] utilizationCountIdleState 16
scalar OsgEarthNet.uav[47] utilizationFail 0
scalar OsgEarthNet.uav[47] simulationTime 259200
scalar OsgEarthNet.uav[48] utilizationSecMission 33839.824864755
scalar OsgEarthNet.uav[48] utilizationSecMaintenance 10578.812303715
scalar OsgEarthNet.uav[48] utilizationSecCharge 165550
scalar OsgEarthNet.uav[48] utilizationSecIdle 49231.36183153
scalar OsgEarthNet.uav[48] utilizationEnergyMission 156806.81830285
scalar OsgEarthNet.uav[48] utilizationEnergyMaintenance 48598.265113831
scalar OsgEarthNet.uav[48] utilizationEnergyCharge 205737.578125
scalar OsgEarthNet.uav[48] utilizationEnergyOverdrawMission 0
scalar OsgEarthNet.uav[48] utilizationEnergyOverdrawMaintenance 0
scalar OsgEarthNet.uav[48] utilizationCountMissions 46
scalar OsgEarthNet.uav[48] utilizationCountManeuversMission 536
scalar OsgEarthNet.uav[48] utilizationCountManeuversMaintenance 91
scalar OsgEarthNet.uav[48] utilizationCountChargeState 46
scalar OsgEarthNet.uav[48] utilizationCountOverdrawnAfterMission 0
scalar OsgEarthNet.uav[48] utilizationCountIdleState 47
scalar OsgEarthNet.uav[48] utilizationFail 0
scalar OsgEarthNet.uav[48] simulationTime 259200
scalar OsgEarthNet.uav[49] utilizationSecMission 684.4732299383
scalar OsgEarthNet.uav[49] utilizationSecMaintenance 298.56834692969
scalar OsgEarthNet.uav[49] utilizationSecCharge 3750
scalar OsgEarthNet.uav[49] utilizationSecIdle 254466.95742313
scalar OsgEarthNet.uav[49] utilizationEnergyMission 3325.1857452393
scalar OsgEarthNet.uav[49] utilizationEnergyMaintenance 1372.324546814
scalar OsgEarthNet.uav[49] utilizationEnergyCharge 4697.5073242188
scalar OsgEarthNet.uav[49] utilizationEnergyOverdrawMission 0
scalar OsgEarthNet.uav[49] utilizationEnergyOverdrawMaintenance 0
scalar OsgEarthNet.uav[49] utilizationCountMissions 1
scalar OsgEarthNet.uav[49] utilizationCountManeuversMission 11
scalar OsgEarthNet.uav[49] utilizationCountManeuversMaintenance 2
scalar OsgEarthNet.uav[49] utilizationCountChargeState 1
scalar OsgEarthNet.uav[49] utilizationCountOverdrawnAfterMission 0
scalar OsgEarthNet.uav[49] utilizationCountIdleState 2
scalar OsgEarthNet.uav[49] utilizationFail 0
scalar OsgEarthNet.uav[49] simulationTime 259200
scalar OsgEarthNet.uav[50] utilizationSecMission 760.62515258028
scalar OsgEarthNet.uav[50] utilizationSecMaintenance 245.74410321072
scalar OsgEarthNet.uav[50] utilizationSecCharge 3740
scalar OsgEarthNet.uav[50] utilizationSecIdle 254453.62974421
scalar OsgEarthNet.uav[50] utilizationEnergyMission 3594.1772079468
scalar OsgEarthNet.uav[50] utilizationEnergyMaintenance 1149.384349823
scalar OsgEarthNet.uav[50] utilizationEnergyCharge 4743.5576171875
scalar OsgEarthNet.uav[50] utilizationEnergyOverdrawMission 0
scalar OsgEarthNet.uav[50] utilizationEnergyOverdrawMaintenance 0
scalar OsgEarthNet.uav[50] utilizationCountMissions 1
scalar OsgEarthNet.uav[50] utilizationCountManeuversMission 12
scalar OsgEarthNet.uav[50] utilizationCountManeuversMaintenance 2
scalar OsgEarthNet.uav[50] utilizationCountChargeState 1
scalar OsgEarthNet.uav[50] utilizationCountOverdrawnAfterMission 0
scalar OsgEarthNet.uav[50] utilizationCountIdleState 2
scalar OsgEarthNet.uav[50] utilizationFail 0
scalar OsgEarthNet.uav[50] simulationTime 259200
scalar OsgEarthNet.uav[51] utilizationSecMission 15887.300217689
scalar OsgEarthNet.uav[51] utilizationSecMaintenance 8130.0048122469
scalar OsgEarthNet.uav[51] utilizationSecCharge 94640
scalar OsgEarthNet.uav[51] utilizationSecIdle 140542.69397006
scalar OsgEarthNet.uav[51] utilizationEnergyMission 74404.558738708
scalar OsgEarthNet.uav[51] utilizationEnergyMaintenance 38792.584114075
scalar OsgEarthNet.uav[51] utilizationEnergyCharge 113083.54541016
scalar OsgEarthNet.uav[51] utilizationEnergyOverdrawMission 0
scalar OsgEarthNet.uav[51] utilizationEnergyOverdrawMaintenance 0
scalar OsgEarthNet.uav[51] utilizationCountMissions 29
scalar OsgEarthNet.uav[51] utilizationCountManeuversMission 256
scalar OsgEarthNet.uav[51] utilizationCountManeuversMaintenance 58
scalar OsgEarthNet.uav[51] utilizationCountChargeState 29
scalar OsgEarthNet.uav[51] utilizationCountOverdrawnAfterMission 0
scalar OsgEarthNet.uav[51] utilizationCountIdleState 30
scalar OsgEarthNet.uav[51] utilizationFail 0
scalar OsgEarthNet.uav[51] simulationTime 259200
scalar OsgEarthNet.uav[52] utilizationSecMission 887.1741082606
scalar OsgEarthNet.uav[52] utilizationSecMaintenance 171.13387461676
scalar OsgEarthNet.uav[52] utilizationSecCharge 3770
scalar OsgEarthNet.uav[52] utilizationSecIdle 254371.69101712
scalar OsgEarthNet.uav[52] utilizationEnergyMission 4031.5612030029
scalar OsgEarthNet.uav[52] utilizationEnergyMaintenance 752.97576141357
scalar OsgEarthNet.uav[52] utilizationEnergyCharge 4767.2075195312
scalar OsgEarthNet.uav[52] utilizationEnergyOverdrawMission 0
scalar OsgEarthNet.uav[52] utilizationEnergyOverdrawMaintenance 0
scalar OsgEarthNet.uav[52] utilizationCountMissions 1
scalar OsgEarthNet.uav[52] utilizationCountManeuversMission 14
scalar OsgEarthNet.uav[52] utilizationCountManeuversMaintenance 2
scalar OsgEarthNet.uav[52] utilizationCountChargeState 1
scalar OsgEarthNet.uav[52] utilizationCountOverdrawnAfterMission 0
scalar OsgEarthNet.uav[52] utilizationCountIdleState 2
scalar OsgEarthNet.uav[52] utilizationFail 0
scalar OsgEarthNet.uav[52] simulationTime 259200
scalar OsgEarthNet.uav[53] utilizationSecMission 26775.300408558
scalar OsgEarthNet.uav[53] utilizationSecMaintenance 11668.343884757
scalar OsgEarthNet.uav[53] utilizationSecCharge 144210
scalar OsgEarthNet.uav[53] utilizationSecIdle 76546.354706685
scalar OsgEarthNet.uav[53] utilizationEnergyMission 123577.27819061
scalar OsgEarthNet.uav[53] utilizationEnergyMaintenance 54275.627178192
scalar OsgEarthNet.uav[53] utilizationEnergyCharge 177399.60058594
scalar OsgEarthNet.uav[53] utilizationEnergyOverdrawMission 0
scalar OsgEarthNet.uav[53] utilizationEnergyOverdrawMaintenance 0
scalar OsgEarthNet.uav[53] utilizationCountMissions 41
scalar OsgEarthNet.uav[53] utilizationCountManeuversMission 435
scalar OsgEarthNet.uav[53] utilizationCountManeuversMaintenance 82
scalar OsgEarthNet.uav[53] utilizationCountChargeState 41
scalar OsgEarthNet.uav[53] utilizationCountOverdrawnAfterMission 0
scalar OsgEarthNet.uav[53] utilizationCountIdleState 42
scalar OsgEarthNet.uav[53] utilizationFail 0
scalar OsgEarthNet.uav[53] simulationTime 259200
scalar OsgEarthNet.uav[54] utilizationSecMission 28663.808983404
scalar OsgEarthNet.uav[54] utilizationSecMaintenance 14020.624032136
scalar OsgEarthNet.uav[54] utilizationSecCharge 164380
scalar OsgEarthNet.uav[54] utilizationSecIdle 52135.56598446
scalar OsgEarthNet.uav[54] utilizationEnergyMission 132335.6944046
scalar OsgEarthNet.uav[54] utilizationEnergyMaintenance 66112.294364929
scalar OsgEarthNet.uav[54] utilizationEnergyCharge 198280.75830078
scalar OsgEarthNet.uav[54] utilizationEnergyOverdrawMission 0
scalar OsgEarthNet.uav[54] utilizationEnergyOverdrawMaintenance 0
scalar OsgEarthNet.uav[54] utilizationCountMissions 49
scalar OsgEarthNet.uav[54] utilizationCountManeuversMission 489
scalar OsgEarthNet.uav[54] utilizationCountManeuversMaintenance 97
scalar OsgEarthNet.uav[54] utilizationCountChargeState 49
scalar OsgEarthNet.uav[54] utilizationCountOverdrawnAfterMission 0
scalar OsgEarthNet.uav[54] utilizationCountIdleState 50
scalar OsgEarthNet.uav[54] utilizationFail 0
scalar OsgEarthNet.uav[54] simulationTime 259200
scalar OsgEarthNet.uav[55] utilizationSecMission 21227.007312989
scalar OsgEarthNet.uav[55] utilizationSecMaintenance 8112.0872181591
scalar OsgEarthNet.uav[55] utilizationSecCharge 108110
scalar OsgEarthNet.uav[55] utilizationSecIdle 121750.90446885
scalar OsgEarthNet.uav[55] utilizationEnergyMission 97822.395921487
scalar OsgEarthNet.uav[55] utilizationEnergyMaintenance 38054.403594971
scalar OsgEarthNet.uav[55] utilizationEnergyCharge 132536.74560547
scalar OsgEarthNet.uav[55] utilizationEnergyOverdrawMission 0
scalar OsgEarthNet.uav[55] utilizationEnergyOverdrawMaintenance 0
scalar OsgEarthNet.uav[55] utilizationCountMissions 31
scalar OsgEarthNet.uav[55] utilizationCountManeuversMission 349
scalar OsgEarthNet.uav[55] utilizationCountManeuversMaintenance 63
scalar OsgEarthNet.uav[55] utilizationCountChargeState 31
scalar OsgEarthNet.uav[55] utilizationCountOverdrawnAfterMission 0
scalar OsgEarthNet.uav[55] utilizationCountIdleState 32
scalar OsgEarthNet.uav[55] utilizationFail 0
scalar OsgEarthNet.uav[55] simulationTime 259200
scalar OsgEarthNet.uav[56] utilizationSecMission 570.98871244881
scalar OsgEarthNet.uav[56] utilizationSecMaintenance 276.2282017063
scalar OsgEarthNet.uav[56] utilizationSecCharge 3390
scalar OsgEarthNet.uav[56] utilizationSecIdle 254962.78208584
scalar OsgEarthNet.uav[56] utilizationEnergyMission 2773.0273895264
scalar OsgEarthNet.uav[56] utilizationEnergyMaintenance 1350.705821991
scalar OsgEarthNet.uav[56] utilizationEnergyCharge 4123.7319335938
scalar OsgEarthNet.uav[56] utilizationEnergyOverdrawMission 0
scalar OsgEarthNet.uav[56] utilizationEnergyOverdrawMaintenance 0
scalar OsgEarthNet.uav[56] utilizationCountMissions 1
scalar OsgEarthNet.uav[56] utilizationCountManeuversMission 8
scalar OsgEarthNet.uav[56] utilizationCountManeuversMaintenance 2
scalar OsgEarthNet.uav[56] utilizationCountChargeState 1
scalar OsgEarthNet.uav[56] utilizationCountOverdrawnAfterMission 0
scalar OsgEarthNet.uav[56] utilizationCountIdleState 2
scalar OsgEarthNet.uav[56] utilizationFail 0
scalar OsgEarthNet.uav[56] simulationTime 259200
scalar OsgEarthNet.uav[57] utilizationSecMission 27929.599943071
scalar OsgEarthNet.uav[57] utilizationSecMaintenance 12920.293517044
scalar OsgEarthNet.uav[57] utilizationSecCharge 155120
scalar OsgEarthNet.uav[57] utilizationSecIdle 63230.105539885
scalar OsgEarthNet.uav[57] utilizationEnergyMission 128577.57218933
scalar OsgEarthNet.uav[57] utilizationEnergyMaintenance 61055.521747589
scalar OsgEarthNet.uav[57] utilizationEnergyCharge 189700.26391602
scalar OsgEarthNet.uav[57] utilizationEnergyOverdrawMission 0
scalar OsgEarthNet.uav[57] utilizationEnergyOverdrawMaintenance 0
scalar OsgEarthNet.uav[57] utilizationCountMissions 45
scalar OsgEarthNet.uav[57] utilizationCountManeuversMission 457
scalar OsgEarthNet.uav[57] utilizationCountManeuversMaintenance 90
scalar OsgEarthNet.uav[57] utilizationCountChargeState 45
scalar OsgEarthNet.uav[57] utilizationCountOverdrawnAfterMission 0
scalar OsgEarthNet.uav[57] utilizationCountIdleState 46
scalar OsgEarthNet.uav[57] utilizationFail 0
scalar OsgEarthNet.uav[57] simulationTime 259200
scalar OsgEarthNet.uav[58] utilizationSecMission 694.00169469977
scalar OsgEarthNet.uav[58] utilizationSecMaintenance 223.34597234416
scalar OsgEarthNet.uav[58] utilizationSecCharge 3260
scalar OsgEarthNet.uav[58] utilizationSecIdle 255022.65133296
scalar OsgEarthNet.uav[58] utilizationEnergyMission 2919.0406799316
scalar OsgEarthNet.uav[58] utilizationEnergyMaintenance 905.85905075073
scalar OsgEarthNet.uav[58] utilizationEnergyCharge 3885.0324707031
scalar OsgEarthNet.uav[58] utilizationEnergyOverdrawMission 0
scalar OsgEarthNet.uav[58] utilizationEnergyOverdrawMaintenance 0
scalar OsgEarthNet.uav[58] utilizationCountMissions 1
scalar OsgEarthNet.uav[58] utilizationCountManeuversMission 13
scalar OsgEarthNet.uav[58] utilizationCountManeuversMaintenance 2
scalar OsgEarthNet.uav[58] utilizationCountChargeState 1
scalar OsgEarthNet.uav[58] utilizationCountOverdrawnAfterMission 0
scalar OsgEarthNet.uav[58] utilizationCountIdleState 2
scalar OsgEarthNet.uav[58] utilizationFail 0
scalar OsgEarthNet.uav[58] simulationTime 259200
scalar OsgEarthNet.uav[59] utilizationSecMission 486.07928439727
scalar OsgEarthNet.uav[59] utilizationSecMaintenance 388.64752970246
scalar OsgEarthNet.uav[59] utilizationSecCharge 3590
scalar OsgEarthNet.uav[59] utilizationSecIdle 254735.2721859
scalar OsgEarthNet.uav[59] utilizationEnergyMission 2472.3184814453
scalar OsgEarthNet.uav[59] utilizationEnergyMaintenance 1897.9103317261
scalar OsgEarthNet.uav[59] utilizationEnergyCharge 4501.923828125
scalar OsgEarthNet.uav[59] utilizationEnergyOverdrawMission 0
scalar OsgEarthNet.uav[59] utilizationEnergyOverdrawMaintenance 0
scalar OsgEarthNet.uav[59] utilizationCountMissions 1
scalar OsgEarthNet.uav[59] utilizationCountManeuversMission 8
scalar OsgEarthNet.uav[59] utilizationCountManeuversMaintenance 2
scalar OsgEarthNet.uav[59] utilizationCountChargeState 1
scalar OsgEarthNet.uav[59] utilizationCountOverdrawnAfterMission 0
scalar OsgEarthNet.uav[59] utilizationCountIdleState 2
scalar OsgEarthNet.uav[59] utilizationFail 0
scalar OsgEarthNet.uav[59] simulationTime 259200
scalar OsgEarthNet.uav[60] utilizationSecMission 20924.104653361
scalar OsgEarthNet.uav[60] utilizationSecMaintenance 9366.8912867803
scalar OsgEarthNet.uav[60] utilizationSecCharge 116210
scalar OsgEarthNet.uav[60] utilizationSecIdle 112699.00305986
scalar OsgEarthNet.uav[60] utilizationEnergyMission 96056.16481781
scalar OsgEarthNet.uav[60] utilizationEnergyMaintenance 44668.066558838
scalar OsgEarthNet.uav[60] utilizationEnergyCharge 141415.42919922
scalar OsgEarthNet.uav[60] utilizationEnergyOverdrawMission 0
scalar OsgEarthNet.uav[60] utilizationEnergyOverdrawMaintenance 0
scalar OsgEarthNet.uav[60] utilizationCountMissions 34
scalar OsgEarthNet.uav[60] utilizationCountManeuversMission 339
scalar OsgEarthNet.uav[60] utilizationCountManeuversMaintenance 68
scalar OsgEarthNet.uav[60] utilizationCountChargeState 34
scalar OsgEarthNet.uav[60] utilizationCountOverdrawnAfterMission 0
scalar OsgEarthNet.uav[60] utilizationCountIdleState 35
scalar OsgEarthNet.uav[60] utilizationFail 0
scalar OsgEarthNet.uav[60] simulationTime 259200
scalar OsgEarthNet.uav[61] utilizationSecMission 28488.772982242
scalar OsgEarthNet.uav[61] utilizationSecMaintenance 14016.876690664
scalar OsgEarthNet.uav[61] utilizationSecCharge 161769.73743758
scalar OsgEarthNet.uav[61] utilizationSecIdle 54924.611889516
scalar OsgEarthNet.uav[61] utilizationEnergyMission 131708.66845703
scalar OsgEarthNet.uav[61] utilizationEnergyMaintenance 66516.276447296
scalar OsgEarthNet.uav[61] utilizationEnergyCharge 195678.0690918
scalar OsgEarthNet.uav[61] utilizationEnergyOverdrawMission 0
scalar OsgEarthNet.uav[61] utilizationEnergyOverdrawMaintenance 0
scalar OsgEarthNet.uav[61] utilizationCountMissions 49
scalar OsgEarthNet.uav[61] utilizationCountManeuversMission 476
scalar OsgEarthNet.uav[61] utilizationCountManeuversMaintenance 98
scalar OsgEarthNet.uav[61] utilizationCountChargeState 49
scalar OsgEarthNet.uav[61] utilizationCountOverdrawnAfterMission 0
scalar OsgEarthNet.uav[61] utilizationCountIdleState 49
scalar OsgEarthNet.uav[61] utilizationFail 0
scalar OsgEarthNet.uav[61] simulationTime 259200
scalar OsgEarthNet.uav[62] utilizationSecMission 25698.854369259
scalar OsgEarthNet.uav[62] utilizationSecMaintenance 11512.425008614
scalar OsgEarthNet.uav[62] utilizationSecCharge 144180
scalar OsgEarthNet.uav[62] utilizationSecIdle 77808.719622127
scalar OsgEarthNet.uav[62] utilizationEnergyMission 119992.03507233
scalar OsgEarthNet.uav[62] utilizationEnergyMaintenance 54371.731365204
scalar OsgEarthNet.uav[62] utilizationEnergyCharge 174209.29736328
scalar OsgEarthNet.uav[62] utilizationEnergyOverdrawMission 0
scalar OsgEarthNet.uav[62] utilizationEnergyOverdrawMaintenance 0
scalar OsgEarthNet.uav[62] utilizationCountMissions 43
scalar OsgEarthNet.uav[62] utilizationCountManeuversMission 403
scalar OsgEarthNet.uav[62] utilizationCountManeuversMaintenance 86
scalar OsgEarthNet.uav[62] utilizationCountChargeState 43
scalar OsgEarthNet.uav[62] utilizationCountOverdrawnAfterMission 0
scalar OsgEarthNet.uav[62] utilizationCountIdleState 44
scalar OsgEarthNet.uav[62] utilizationFail 0
scalar OsgEarthNet.uav[62] simulationTime 259200
scalar OsgEarthNet.uav[63] utilizationSecMission 31046.937825358
scalar OsgEarthNet.uav[63] utilizationSecMaintenance 13256.7509891
scalar OsgEarthNet.uav[63] utilizationSecCharge 168474.31018554
scalar OsgEarthNet.uav[63] utilizationSecIdle 46422
scalar OsgEarthNet.uav[63] utilizationEnergyMission 146032.41466522
scalar OsgEarthNet.uav[63] utilizationEnergyMaintenance 61450.260215759
scalar OsgEarthNet.uav[63] utilizationEnergyCharge 207109.1574707
scalar OsgEarthNet.uav[63] utilizationEnergyOverdrawMission 0
scalar OsgEarthNet.uav[63] utilizationEnergyOverdrawMaintenance 0
scalar OsgEarthNet.uav[63] utilizationCountMissions 49
scalar OsgEarthNet.uav[63] utilizationCountManeuversMission 494
scalar OsgEarthNet.uav[63] utilizationCountManeuversMaintenance 97
scalar OsgEarthNet.uav[63] utilizationCountChargeState 49
scalar OsgEarthNet.uav[63] utilizationCountOverdrawnAfterMission 0
scalar OsgEarthNet.uav[63] utilizationCountIdleState 49
scalar OsgEarthNet.uav[63] utilizationFail 0
scalar OsgEarthNet.uav[63] simulationTime 259200
scalar OsgEarthNet.uav[64] utilizationSecMission 533.25626237336
scalar OsgEarthNet.uav[64] utilizationSecMaintenance 451.14699917938
scalar OsgEarthNet.uav[64] utilizationSecCharge 3620
scalar OsgEarthNet.uav[64] utilizationSecIdle 254595.59573845
scalar OsgEarthNet.uav[64] utilizationEnergyMission 2506.4666900635
scalar OsgEarthNet.uav[64] utilizationEnergyMaintenance 2021.3522911072
scalar OsgEarthNet.uav[64] utilizationEnergyCharge 4521.318359375
scalar OsgEarthNet.uav[64] utilizationEnergyOverdrawMission 0
scalar OsgEarthNet.uav[64] utilizationEnergyOverdrawMaintenance 0
scalar OsgEarthNet.uav[64] utilizationCountMissions 1
scalar OsgEarthNet.uav[64] utilizationCountManeuversMission 8
scalar OsgEarthNet.uav[64] utilizationCountManeuversMaintenance 2
scalar OsgEarthNet.uav[64] utilizationCountChargeState 1
scalar OsgEarthNet.uav[64] utilizationCountOverdrawnAfterMission 0
scalar OsgEarthNet.uav[64] utilizationCountIdleState 2
scalar OsgEarthNet.uav[64] utilizationFail 0
scalar OsgEarthNet.uav[64] simulationTime 259200
scalar OsgEarthNet.uav[65] utilizationSecMission 27340.371770415
scalar OsgEarthNet.uav[65] utilizationSecMaintenance 11106.118612489
scalar OsgEarthNet.uav[65] utilizationSecCharge 143836.64957092
scalar OsgEarthNet.uav[65] utilizationSecIdle 76916.859046175
[...]
scalar OsgEarthNet.uav[82] utilizationEnergyMission 3991.8328399658
scalar OsgEarthNet.uav[82] utilizationEnergyMaintenance 825.61381149292
scalar OsgEarthNet.uav[82] utilizationEnergyCharge 4669.529296875
scalar OsgEarthNet.uav[82] utilizationEnergyOverdrawMission 0
scalar OsgEarthNet.uav[82] utilizationEnergyOverdrawMaintenance 0
scalar OsgEarthNet.uav[82] utilizationCountMissions 1
scalar OsgEarthNet.uav[82] utilizationCountManeuversMission 14
scalar OsgEarthNet.uav[82] utilizationCountManeuversMaintenance 2
scalar OsgEarthNet.uav[82] utilizationCountChargeState 1
scalar OsgEarthNet.uav[82] utilizationCountOverdrawnAfterMission 0
scalar OsgEarthNet.uav[82] utilizationCountIdleState 2
scalar OsgEarthNet.uav[82] utilizationFail 0
scalar OsgEarthNet.uav[82] simulationTime 259200
scalar OsgEarthNet.uav[83] utilizationSecMission 684.4732299383
scalar OsgEarthNet.uav[83] utilizationSecMaintenance 298.56834692969
scalar OsgEarthNet.uav[83] utilizationSecCharge 3780
scalar OsgEarthNet.uav[83] utilizationSecIdle 254436.95742313
scalar OsgEarthNet.uav[83] utilizationEnergyMission 3224.668548584
scalar OsgEarthNet.uav[83] utilizationEnergyMaintenance 1512.7760238647
scalar OsgEarthNet.uav[83] utilizationEnergyCharge 4737.4428710938
scalar OsgEarthNet.uav[83] utilizationEnergyOverdrawMission 0
scalar OsgEarthNet.uav[83] utilizationEnergyOverdrawMaintenance 0
scalar OsgEarthNet.uav[83] utilizationCountMissions 1
scalar OsgEarthNet.uav[83] utilizationCountManeuversMission 11
scalar OsgEarthNet.uav[83] utilizationCountManeuversMaintenance 2
scalar OsgEarthNet.uav[83] utilizationCountChargeState 1
scalar OsgEarthNet.uav[83] utilizationCountOverdrawnAfterMission 0
scalar OsgEarthNet.uav[83] utilizationCountIdleState 2
scalar OsgEarthNet.uav[83] utilizationFail 0
scalar OsgEarthNet.uav[83] simulationTime 259200
scalar OsgEarthNet.uav[84] utilizationSecMission 24762.980597486
scalar OsgEarthNet.uav[84] utilizationSecMaintenance 11264.479685979
scalar OsgEarthNet.uav[84] utilizationSecCharge 137380
scalar OsgEarthNet.uav[84] utilizationSecIdle 85792.538716535
scalar OsgEarthNet.uav[84] utilizationEnergyMission 113897.69524384
scalar OsgEarthNet.uav[84] utilizationEnergyMaintenance 53811.319091797
scalar OsgEarthNet.uav[84] utilizationEnergyCharge 167464.65258789
scalar OsgEarthNet.uav[84] utilizationEnergyOverdrawMission 0
scalar OsgEarthNet.uav[84] utilizationEnergyOverdrawMaintenance 0
scalar OsgEarthNet.uav[84] utilizationCountMissions 40
scalar OsgEarthNet.uav[84] utilizationCountManeuversMission 436
scalar OsgEarthNet.uav[84] utilizationCountManeuversMaintenance 80
scalar OsgEarthNet.uav[84] utilizationCountChargeState 40
scalar OsgEarthNet.uav[84] utilizationCountOverdrawnAfterMission 0
scalar OsgEarthNet.uav[84] utilizationCountIdleState 41
scalar OsgEarthNet.uav[84] utilizationFail 0
scalar OsgEarthNet.uav[84] simulationTime 259200
scalar OsgEarthNet.uav[85] utilizationSecMission 26695.684439052
scalar OsgEarthNet.uav[85] utilizationSecMaintenance 11950.838340685
scalar OsgEarthNet.uav[85] utilizationSecCharge 143880.57714722
scalar OsgEarthNet.uav[85] utilizationSecIdle 76672.899073046
scalar OsgEarthNet.uav[85] utilizationEnergyMission 123039.76634598
scalar OsgEarthNet.uav[85] utilizationEnergyMaintenance 56220.517196655
scalar OsgEarthNet.uav[85] utilizationEnergyCharge 177221.61083984
scalar OsgEarthNet.uav[85] utilizationEnergyOverdrawMission 0
scalar OsgEarthNet.uav[85] utilizationEnergyOverdrawMaintenance 0
scalar OsgEarthNet.uav[85] utilizationCountMissions 42
scalar OsgEarthNet.uav[85] utilizationCountManeuversMission 446
scalar OsgEarthNet.uav[85] utilizationCountManeuversMaintenance 84
scalar OsgEarthNet.uav[85] utilizationCountChargeState 42
scalar OsgEarthNet.uav[85] utilizationCountOverdrawnAfterMission 0
scalar OsgEarthNet.uav[85] utilizationCountIdleState 42
scalar OsgEarthNet.uav[85] utilizationFail 0
scalar OsgEarthNet.uav[85] simulationTime 259200
scalar OsgEarthNet.uav[86] utilizationSecMission 179.21601502944
scalar OsgEarthNet.uav[86] utilizationSecMaintenance 364.43405905663
scalar OsgEarthNet.uav[86] utilizationSecCharge 2520
scalar OsgEarthNet.uav[86] utilizationSecIdle 256136.34892591
scalar OsgEarthNet.uav[86] utilizationEnergyMission 793.89637756348
scalar OsgEarthNet.uav[86] utilizationEnergyMaintenance 1772.5995826721
scalar OsgEarthNet.uav[86] utilizationEnergyCharge 2566.4934082031
scalar OsgEarthNet.uav[86] utilizationEnergyOverdrawMission 0
scalar OsgEarthNet.uav[86] utilizationEnergyOverdrawMaintenance 0
scalar OsgEarthNet.uav[86] utilizationCountMissions 1
scalar OsgEarthNet.uav[86] utilizationCountManeuversMission 3
scalar OsgEarthNet.uav[86] utilizationCountManeuversMaintenance 2
scalar OsgEarthNet.uav[86] utilizationCountChargeState 1
scalar OsgEarthNet.uav[86] utilizationCountOverdrawnAfterMission 0
scalar OsgEarthNet.uav[86] utilizationCountIdleState 2
scalar OsgEarthNet.uav[86] utilizationFail 0
scalar OsgEarthNet.uav[86] simulationTime 259200
scalar OsgEarthNet.uav[87] utilizationSecMission 28011.154546228
scalar OsgEarthNet.uav[87] utilizationSecMaintenance 13250.840110896
scalar OsgEarthNet.uav[87] utilizationSecCharge 158666.00283615
scalar OsgEarthNet.uav[87] utilizationSecIdle 59272.001506722
scalar OsgEarthNet.uav[87] utilizationEnergyMission 130361.63993835
scalar OsgEarthNet.uav[87] utilizationEnergyMaintenance 63549.706817627
scalar OsgEarthNet.uav[87] utilizationEnergyCharge 193558.68457031
scalar OsgEarthNet.uav[87] utilizationEnergyOverdrawMission 0
scalar OsgEarthNet.uav[87] utilizationEnergyOverdrawMaintenance 0
scalar OsgEarthNet.uav[87] utilizationCountMissions 47
scalar OsgEarthNet.uav[87] utilizationCountManeuversMission 471
scalar OsgEarthNet.uav[87] utilizationCountManeuversMaintenance 94
scalar OsgEarthNet.uav[87] utilizationCountChargeState 47
scalar OsgEarthNet.uav[87] utilizationCountOverdrawnAfterMission 0
scalar OsgEarthNet.uav[87] utilizationCountIdleState 47
scalar OsgEarthNet.uav[87] utilizationFail 0
scalar OsgEarthNet.uav[87] simulationTime 259200
scalar OsgEarthNet.uav[88] utilizationSecMission 28583.338719205
scalar OsgEarthNet.uav[88] utilizationSecMaintenance 13663.121290184
scalar OsgEarthNet.uav[88] utilizationSecCharge 160054.64261547
scalar OsgEarthNet.uav[88] utilizationSecIdle 56898.896375144
scalar OsgEarthNet.uav[88] utilizationEnergyMission 133788.90075684
scalar OsgEarthNet.uav[88] utilizationEnergyMaintenance 63929.156620026
scalar OsgEarthNet.uav[88] utilizationEnergyCharge 194053.90344238
scalar OsgEarthNet.uav[88] utilizationEnergyOverdrawMission 0
scalar OsgEarthNet.uav[88] utilizationEnergyOverdrawMaintenance 0
scalar OsgEarthNet.uav[88] utilizationCountMissions 48
scalar OsgEarthNet.uav[88] utilizationCountManeuversMission 474
scalar OsgEarthNet.uav[88] utilizationCountManeuversMaintenance 96
scalar OsgEarthNet.uav[88] utilizationCountChargeState 48
scalar OsgEarthNet.uav[88] utilizationCountOverdrawnAfterMission 0
scalar OsgEarthNet.uav[88] utilizationCountIdleState 48
scalar OsgEarthNet.uav[88] utilizationFail 0
scalar OsgEarthNet.uav[88] simulationTime 259200
scalar OsgEarthNet.uav[89] utilizationSecMission 15108.908032576
scalar OsgEarthNet.uav[89] utilizationSecMaintenance 6473.474254312
scalar OsgEarthNet.uav[89] utilizationSecCharge 77966.013948056
scalar OsgEarthNet.uav[89] utilizationSecIdle 159651.60276506
scalar OsgEarthNet.uav[89] utilizationEnergyMission 70285.385765076
scalar OsgEarthNet.uav[89] utilizationEnergyMaintenance 29857.371952057
scalar OsgEarthNet.uav[89] utilizationEnergyCharge 96486.498840332
scalar OsgEarthNet.uav[89] utilizationEnergyOverdrawMission 0
scalar OsgEarthNet.uav[89] utilizationEnergyOverdrawMaintenance 0
scalar OsgEarthNet.uav[89] utilizationCountMissions 23
scalar OsgEarthNet.uav[89] utilizationCountManeuversMission 234
scalar OsgEarthNet.uav[89] utilizationCountManeuversMaintenance 46
scalar OsgEarthNet.uav[89] utilizationCountChargeState 23
scalar OsgEarthNet.uav[89] utilizationCountOverdrawnAfterMission 0
scalar OsgEarthNet.uav[89] utilizationCountIdleState 23
scalar OsgEarthNet.uav[89] utilizationFail 0
scalar OsgEarthNet.uav[89] simulationTime 259200
scalar OsgEarthNet.uav[90] utilizationSecMission 29933.081805979
scalar OsgEarthNet.uav[90] utilizationSecMaintenance 10941.626116247
scalar OsgEarthNet.uav[90] utilizationSecCharge 152869.74416852
scalar OsgEarthNet.uav[90] utilizationSecIdle 65455.546909258
scalar OsgEarthNet.uav[90] utilizationEnergyMission 137759.56398773
scalar OsgEarthNet.uav[90] utilizationEnergyMaintenance 51203.122768402
scalar OsgEarthNet.uav[90] utilizationEnergyCharge 189679.78344727
scalar OsgEarthNet.uav[90] utilizationEnergyOverdrawMission 0
scalar OsgEarthNet.uav[90] utilizationEnergyOverdrawMaintenance 0
scalar OsgEarthNet.uav[90] utilizationCountMissions 43
scalar OsgEarthNet.uav[90] utilizationCountManeuversMission 477
scalar OsgEarthNet.uav[90] utilizationCountManeuversMaintenance 86
scalar OsgEarthNet.uav[90] utilizationCountChargeState 43
scalar OsgEarthNet.uav[90] utilizationCountOverdrawnAfterMission 0
scalar OsgEarthNet.uav[90] utilizationCountIdleState 43
scalar OsgEarthNet.uav[90] utilizationFail 0
scalar OsgEarthNet.uav[90] simulationTime 259200
scalar OsgEarthNet.uav[91] utilizationSecMission 21335.270790939
scalar OsgEarthNet.uav[91] utilizationSecMaintenance 11917.540771033
scalar OsgEarthNet.uav[91] utilizationSecCharge 128420
scalar OsgEarthNet.uav[91] utilizationSecIdle 97527.187438028
scalar OsgEarthNet.uav[91] utilizationEnergyMission 98366.263404846
scalar OsgEarthNet.uav[91] utilizationEnergyMaintenance 55132.915126801
scalar OsgEarthNet.uav[91] utilizationEnergyCharge 153707.70239258
scalar OsgEarthNet.uav[91] utilizationEnergyOverdrawMission 0
scalar OsgEarthNet.uav[91] utilizationEnergyOverdrawMaintenance 0
scalar OsgEarthNet.uav[91] utilizationCountMissions 39
scalar OsgEarthNet.uav[91] utilizationCountManeuversMission 356
scalar OsgEarthNet.uav[91] utilizationCountManeuversMaintenance 78
scalar OsgEarthNet.uav[91] utilizationCountChargeState 39
scalar OsgEarthNet.uav[91] utilizationCountOverdrawnAfterMission 0
scalar OsgEarthNet.uav[91] utilizationCountIdleState 40
scalar OsgEarthNet.uav[91] utilizationFail 0
scalar OsgEarthNet.uav[91] simulationTime 259200
scalar OsgEarthNet.uav[92] utilizationSecMission 694.00169469977
scalar OsgEarthNet.uav[92] utilizationSecMaintenance 223.34597234416
scalar OsgEarthNet.uav[92] utilizationSecCharge 3410
scalar OsgEarthNet.uav[92] utilizationSecIdle 254872.65133296
scalar OsgEarthNet.uav[92] utilizationEnergyMission 3216.0540466309
scalar OsgEarthNet.uav[92] utilizationEnergyMaintenance 876.30912399292
scalar OsgEarthNet.uav[92] utilizationEnergyCharge 4153.6879882812
scalar OsgEarthNet.uav[92] utilizationEnergyOverdrawMission 0
scalar OsgEarthNet.uav[92] utilizationEnergyOverdrawMaintenance 0
scalar OsgEarthNet.uav[92] utilizationCountMissions 1
scalar OsgEarthNet.uav[92] utilizationCountManeuversMission 13
scalar OsgEarthNet.uav[92] utilizationCountManeuversMaintenance 2
scalar OsgEarthNet.uav[92] utilizationCountChargeState 1
scalar OsgEarthNet.uav[92] utilizationCountOverdrawnAfterMission 0
scalar OsgEarthNet.uav[92] utilizationCountIdleState 2
scalar OsgEarthNet.uav[92] utilizationFail 0
scalar OsgEarthNet.uav[92] simulationTime 259200
scalar OsgEarthNet.uav[93] utilizationSecMission 735.14326557473
scalar OsgEarthNet.uav[93] utilizationSecMaintenance 350.53687742834
scalar OsgEarthNet.uav[93] utilizationSecCharge 3920
scalar OsgEarthNet.uav[93] utilizationSecIdle 254194.318857
scalar OsgEarthNet.uav[93] utilizationEnergyMission 3478.014465332
scalar OsgEarthNet.uav[93] utilizationEnergyMaintenance 1580.5528488159
scalar OsgEarthNet.uav[93] utilizationEnergyCharge 5027.8081054688
scalar OsgEarthNet.uav[93] utilizationEnergyOverdrawMission 0
scalar OsgEarthNet.uav[93] utilizationEnergyOverdrawMaintenance 0
scalar OsgEarthNet.uav[93] utilizationCountMissions 1
scalar OsgEarthNet.uav[93] utilizationCountManeuversMission 11
scalar OsgEarthNet.uav[93] utilizationCountManeuversMaintenance 2
scalar OsgEarthNet.uav[93] utilizationCountChargeState 1
scalar OsgEarthNet.uav[93] utilizationCountOverdrawnAfterMission 0
scalar OsgEarthNet.uav[93] utilizationCountIdleState 2
scalar OsgEarthNet.uav[93] utilizationFail 0
scalar OsgEarthNet.uav[93] simulationTime 259200
scalar OsgEarthNet.uav[94] utilizationSecMission 23937.342134569
scalar OsgEarthNet.uav[94] utilizationSecMaintenance 9336.2269561255
scalar OsgEarthNet.uav[94] utilizationSecCharge 126348.0620462
scalar OsgEarthNet.uav[94] utilizationSecIdle 99578.367863104
scalar OsgEarthNet.uav[94] utilizationEnergyMission 111378.15291214
scalar OsgEarthNet.uav[94] utilizationEnergyMaintenance 43914.144287109
scalar OsgEarthNet.uav[94] utilizationEnergyCharge 155326.93017578
scalar OsgEarthNet.uav[94] utilizationEnergyOverdrawMission 0
scalar OsgEarthNet.uav[94] utilizationEnergyOverdrawMaintenance 0
scalar OsgEarthNet.uav[94] utilizationCountMissions 36
scalar OsgEarthNet.uav[94] utilizationCountManeuversMission 398
scalar OsgEarthNet.uav[94] utilizationCountManeuversMaintenance 72
scalar OsgEarthNet.uav[94] utilizationCountChargeState 36
scalar OsgEarthNet.uav[94] utilizationCountOverdrawnAfterMission 0
scalar OsgEarthNet.uav[94] utilizationCountIdleState 36
scalar OsgEarthNet.uav[94] utilizationFail 0
scalar OsgEarthNet.uav[94] simulationTime 259200
scalar OsgEarthNet.uav[95] utilizationSecMission 3230.1510982159
scalar OsgEarthNet.uav[95] utilizationSecMaintenance 2437.8060747129
scalar OsgEarthNet.uav[95] utilizationSecCharge 20774.359833491
scalar OsgEarthNet.uav[95] utilizationSecIdle 232757.68199358
scalar OsgEarthNet.uav[95] utilizationEnergyMission 14832.398521423
scalar OsgEarthNet.uav[95] utilizationEnergyMaintenance 11659.82232666
scalar OsgEarthNet.uav[95] utilizationEnergyCharge 25511.667480469
scalar OsgEarthNet.uav[95] utilizationEnergyOverdrawMission 0
scalar OsgEarthNet.uav[95] utilizationEnergyOverdrawMaintenance 0
scalar OsgEarthNet.uav[95] utilizationCountMissions 7
scalar OsgEarthNet.uav[95] utilizationCountManeuversMission 50
scalar OsgEarthNet.uav[95] utilizationCountManeuversMaintenance 14
scalar OsgEarthNet.uav[95] utilizationCountChargeState 7
scalar OsgEarthNet.uav[95] utilizationCountOverdrawnAfterMission 0
scalar OsgEarthNet.uav[95] utilizationCountIdleState 7
scalar OsgEarthNet.uav[95] utilizationFail 0
scalar OsgEarthNet.uav[95] simulationTime 259200
scalar OsgEarthNet.uav[96] utilizationSecMission 2450.4401407065
scalar OsgEarthNet.uav[96] utilizationSecMaintenance 1426.8904982107
scalar OsgEarthNet.uav[96] utilizationSecCharge 14570
scalar OsgEarthNet.uav[96] utilizationSecIdle 240752.66836108
scalar OsgEarthNet.uav[96] utilizationEnergyMission 11637.639362335
scalar OsgEarthNet.uav[96] utilizationEnergyMaintenance 6535.9117584229
scalar OsgEarthNet.uav[96] utilizationEnergyCharge 18135.798095703
scalar OsgEarthNet.uav[96] utilizationEnergyOverdrawMission 0
scalar OsgEarthNet.uav[96] utilizationEnergyOverdrawMaintenance 0
scalar OsgEarthNet.uav[96] utilizationCountMissions 4
scalar OsgEarthNet.uav[96] utilizationCountManeuversMission 41
scalar OsgEarthNet.uav[96] utilizationCountManeuversMaintenance 8
scalar OsgEarthNet.uav[96] utilizationCountChargeState 4
scalar OsgEarthNet.uav[96] utilizationCountOverdrawnAfterMission 0
scalar OsgEarthNet.uav[96] utilizationCountIdleState 5
scalar OsgEarthNet.uav[96] utilizationFail 0
scalar OsgEarthNet.uav[96] simulationTime 259200
scalar OsgEarthNet.uav[97] utilizationSecMission 7415.3644555652
scalar OsgEarthNet.uav[97] utilizationSecMaintenance 4331.9332090979
scalar OsgEarthNet.uav[97] utilizationSecCharge 46000
scalar OsgEarthNet.uav[97] utilizationSecIdle 201452.70133534
scalar OsgEarthNet.uav[97] utilizationEnergyMission 34259.177001953
scalar OsgEarthNet.uav[97] utilizationEnergyMaintenance 20953.106647491
scalar OsgEarthNet.uav[97] utilizationEnergyCharge 54995.355957031
scalar OsgEarthNet.uav[97] utilizationEnergyOverdrawMission 0
scalar OsgEarthNet.uav[97] utilizationEnergyOverdrawMaintenance 0
scalar OsgEarthNet.uav[97] utilizationCountMissions 14
scalar OsgEarthNet.uav[97] utilizationCountManeuversMission 123
scalar OsgEarthNet.uav[97] utilizationCountManeuversMaintenance 28
scalar OsgEarthNet.uav[97] utilizationCountChargeState 14
scalar OsgEarthNet.uav[97] utilizationCountOverdrawnAfterMission 0
scalar OsgEarthNet.uav[97] utilizationCountIdleState 15
scalar OsgEarthNet.uav[97] utilizationFail 0
scalar OsgEarthNet.uav[97] simulationTime 259200
scalar OsgEarthNet.uav[98] utilizationSecMission 20833.627767424
scalar OsgEarthNet.uav[98] utilizationSecMaintenance 10094.475629123
scalar OsgEarthNet.uav[98] utilizationSecCharge 116074.83082043
scalar OsgEarthNet.uav[98] utilizationSecIdle 112197.06478303
scalar OsgEarthNet.uav[98] utilizationEnergyMission 96806.356601715
scalar OsgEarthNet.uav[98] utilizationEnergyMaintenance 46942.917076111
scalar OsgEarthNet.uav[98] utilizationEnergyCharge 141010.65246582
scalar OsgEarthNet.uav[98] utilizationEnergyOverdrawMission 0
scalar OsgEarthNet.uav[98] utilizationEnergyOverdrawMaintenance 0
scalar OsgEarthNet.uav[98] utilizationCountMissions 35
scalar OsgEarthNet.uav[98] utilizationCountManeuversMission 348
scalar OsgEarthNet.uav[98] utilizationCountManeuversMaintenance 70
scalar OsgEarthNet.uav[98] utilizationCountChargeState 35
scalar OsgEarthNet.uav[98] utilizationCountOverdrawnAfterMission 0
scalar OsgEarthNet.uav[98] utilizationCountIdleState 35
scalar OsgEarthNet.uav[98] utilizationFail 0
scalar OsgEarthNet.uav[98] simulationTime 259200
scalar OsgEarthNet.uav[99] utilizationSecMission 5132.5221594917
scalar OsgEarthNet.uav[99] utilizationSecMaintenance 2545.2643145218
scalar OsgEarthNet.uav[99] utilizationSecCharge 29610
scalar OsgEarthNet.uav[99] utilizationSecIdle 221912.21252599
scalar OsgEarthNet.uav[99] utilizationEnergyMission 23791.949821472
scalar OsgEarthNet.uav[99] utilizationEnergyMaintenance 11758.163475037
scalar OsgEarthNet.uav[99] utilizationEnergyCharge 35468.333251953
scalar OsgEarthNet.uav[99] utilizationEnergyOverdrawMission 0
scalar OsgEarthNet.uav[99] utilizationEnergyOverdrawMaintenance 0
scalar OsgEarthNet.uav[99] utilizationCountMissions 9
scalar OsgEarthNet.uav[99] utilizationCountManeuversMission 83
scalar OsgEarthNet.uav[99] utilizationCountManeuversMaintenance 18
scalar OsgEarthNet.uav[99] utilizationCountChargeState 9
scalar OsgEarthNet.uav[99] utilizationCountOverdrawnAfterMission 0
scalar OsgEarthNet.uav[99] utilizationCountIdleState 10
scalar OsgEarthNet.uav[99] utilizationFail 0
scalar OsgEarthNet.uav[99] simulationTime 259200
scalar OsgEarthNet.cs[0] usedPower 280443.77111058
scalar OsgEarthNet.cs[0] chargedPower 280443.77111058
scalar OsgEarthNet.cs[0] chargedMobileNodes 60
scalar OsgEarthNet.cs[0] reservations 61
scalar OsgEarthNet.cs[1] usedPower 729774.37410671
scalar OsgEarthNet.cs[1] chargedPower 729774.37410671
scalar OsgEarthNet.cs[1] chargedMobileNodes 272
scalar OsgEarthNet.cs[1] reservations 275
scalar OsgEarthNet.cs[2] usedPower 3079009.5812373
scalar OsgEarthNet.cs[2] chargedPower 3079009.5812373
scalar OsgEarthNet.cs[2] chargedMobileNodes 678
scalar OsgEarthNet.cs[2] reservations 688
scalar OsgEarthNet.cs[3] usedPower 1142860.2449421
scalar OsgEarthNet.cs[3] chargedPower 1142860.2449421
scalar OsgEarthNet.cs[3] chargedMobileNodes 257
scalar OsgEarthNet.cs[3] reservations 262
scalar OsgEarthNet.cs[4] usedPower 1079251.2495221
scalar OsgEarthNet.cs[4] chargedPower 1079251.2495221
scalar OsgEarthNet.cs[4] chargedMobileNodes 240
scalar OsgEarthNet.cs[4] reservations 244
scalar OsgEarthNet.cs[5] usedPower 744458.18618601
scalar OsgEarthNet.cs[5] chargedPower 744458.18618601
scalar OsgEarthNet.cs[5] chargedMobileNodes 162
scalar OsgEarthNet.cs[5] reservations 162
scalar OsgEarthNet.cs[6] usedPower 1463583.923444
scalar OsgEarthNet.cs[6] chargedPower 1463583.923444
scalar OsgEarthNet.cs[6] chargedMobileNodes 344
scalar OsgEarthNet.cs[6] reservations 349

