version 2
run Szenario_Hotel_Gabelbach-61-20180709-15:20:46-53388
attr configname Szenario_Hotel_Gabelbach
attr datetime 20180709-15:20:46
attr experiment Szenario_Hotel_Gabelbach
attr inifile omnetpp.ini
attr iterationvars "$replM=2, $biWeight=0.7"
attr iterationvarsf replM=2,biWeight=0.7-
attr measurement "$replM=2, $biWeight=0.7"
attr network OsgEarthNet
attr processid 53388
attr repetition 1
attr replication #1
attr resultdir results
attr runnumber 61
attr seedset 61
itervar biWeight 0.7
itervar replM 2
param *.osgEarthScene.scene "\"Szenario_Hotel_Gabelbach.earth\""
param *.playgroundLatitude 50.6830269
param *.playgroundLongitude 10.8538055
param *.playgroundWidth 3500m
param *.playgroundHeight 3500m
param *.numUAVs 100
param *.cs[0].posX 3537m
param *.cs[0].posY 965m
param *.cs[0].posZ 538m
param *.cs[1].posX 312m
param *.cs[1].posY 1262m
param *.cs[1].posZ 539m
param *.cs[2].posX 2185m
param *.cs[2].posY 3026m
param *.cs[2].posZ 777m
param *.cs[3].posX 10m
param *.cs[3].posY 2200m
param *.cs[3].posZ 560m
param *.cs[4].posX 750m
param *.cs[4].posY 200m
param *.cs[4].posZ 540m
param *.cs[5].posX 2450m
param *.cs[5].posY 180m
param *.cs[5].posZ 524m
param *.cs[6].posX 3140m
param *.cs[6].posY 1790m
param *.cs[6].posZ 606m
param *.numCSs 7
param *.uav[*].replacementMethod 2
param *.uav[*].weightedSumWeight 0.7
param *.*.timeStep 10s
param *.uav[*].commandPreviewCommandCount 20
param *.missionControl.missionFiles "\"missions\\\\Szenario_WB_Hotel_Gabelbach_Mission_Hotel.waypoints,missions\\\\Szenario_WB_Hotel_Gabelbach_Mission_Kickelhahn.waypoints,missions\\\\Szenario_WB_Hotel_Gabelbach_Mission_Ilmenau_Sportplatz.waypoints,missions\\\\Szenario_WB_Hotel_Gabelbach_Mission_Manebach_Mitte.waypoints,missions\\\\Szenario_WB_Hotel_Gabelbach_Mission_Manebach_Sued.waypoints\""
param *.missionControl.missionFiles "\"missions\\\\Szenario_WB_Hotel_Gabelbach_Mission_Hotel.waypoints,missions\\\\Szenario_WB_Hotel_Gabelbach_Mission_Kickelhahn.waypoints,missions\\\\Szenario_WB_Hotel_Gabelbach_Mission_Ilmenau_Sportplatz.waypoints,missions\\\\Szenario_WB_Hotel_Gabelbach_Mission_Manebach_Mitte.waypoints,missions\\\\Szenario_WB_Hotel_Gabelbach_Mission_Manebach_Sued.waypoints,missions\\\\Szenario_WB_Hotel_Gabelbach_Hover_HoheSchlaufe.waypoints,missions\\\\Szenario_WB_Hotel_Gabelbach_Hover_Kickelhahn.waypoints,missions\\\\Szenario_WB_Hotel_Gabelbach_Hover_Gabelbachskopf.waypoints,missions\\\\Szenario_WB_Hotel_Gabelbach_Hover_Dachskopf.waypoints\""
param *.uav[0].startX 3537m
param *.uav[0].startY 965m
param *.uav[0].startZ 539m
param *.uav[1].startX 312m
param *.uav[1].startY 1262m
param *.uav[1].startZ 540m
param *.uav[2].startX 2185m
param *.uav[2].startY 3026m
param *.uav[2].startZ 778m
param *.uav[3].startX 3537m
param *.uav[3].startY 965m
param *.uav[3].startZ 539m
param *.uav[4].startX 312m
param *.uav[4].startY 1262m
param *.uav[4].startZ 540m
param *.uav[5].startX 2185m
param *.uav[5].startY 3026m
param *.uav[5].startZ 778m
param *.uav[6].startX 3537m
param *.uav[6].startY 965m
param *.uav[6].startZ 539m
param *.uav[7].startX 312m
param *.uav[7].startY 1262m
param *.uav[7].startZ 540m
param *.uav[8].startX 2185m
param *.uav[8].startY 3026m
param *.uav[8].startZ 778m
param *.uav[9].startX 3537m
param *.uav[9].startY 965m
param *.uav[9].startZ 539m
param *.uav[10].startX 3537m
param *.uav[10].startY 965m
param *.uav[10].startZ 539m
param *.uav[11].startX 312m
param *.uav[11].startY 1262m
param *.uav[11].startZ 540m
param *.uav[12].startX 2185m
param *.uav[12].startY 3026m
param *.uav[12].startZ 778m
param *.uav[13].startX 3537m
param *.uav[13].startY 965m
param *.uav[13].startZ 539m
param *.uav[14].startX 312m
param *.uav[14].startY 1262m
param *.uav[14].startZ 540m
param *.uav[15].startX 2185m
param *.uav[15].startY 3026m
param *.uav[15].startZ 778m
param *.uav[16].startX 3537m
param *.uav[16].startY 965m
param *.uav[16].startZ 539m
param *.uav[17].startX 312m
param *.uav[17].startY 1262m
param *.uav[17].startZ 540m
param *.uav[18].startX 2185m
param *.uav[18].startY 3026m
param *.uav[18].startZ 778m
param *.uav[19].startX 3537m
param *.uav[19].startY 965m
param *.uav[19].startZ 539m
param *.uav[20].startX 3537m
param *.uav[20].startY 965m
param *.uav[20].startZ 539m
param *.uav[21].startX 312m
param *.uav[21].startY 1262m
param *.uav[21].startZ 540m
param *.uav[22].startX 2185m
param *.uav[22].startY 3026m
param *.uav[22].startZ 778m
param *.uav[23].startX 3537m
param *.uav[23].startY 965m
param *.uav[23].startZ 539m
param *.uav[24].startX 312m
param *.uav[24].startY 1262m
param *.uav[24].startZ 540m
param *.uav[25].startX 2185m
param *.uav[25].startY 3026m
param *.uav[25].startZ 778m
param *.uav[26].startX 3537m
param *.uav[26].startY 965m
param *.uav[26].startZ 539m
param *.uav[27].startX 312m
param *.uav[27].startY 1262m
param *.uav[27].startZ 540m
param *.uav[28].startX 2185m
param *.uav[28].startY 3026m
param *.uav[28].startZ 778m
param *.uav[29].startX 3537m
param *.uav[29].startY 965m
param *.uav[29].startZ 539m
param *.uav[30].startX 3537m
param *.uav[30].startY 965m
param *.uav[30].startZ 539m
param *.uav[31].startX 312m
param *.uav[31].startY 1262m
param *.uav[31].startZ 540m
param *.uav[32].startX 2185m
param *.uav[32].startY 3026m
param *.uav[32].startZ 778m
param *.uav[33].startX 3537m
param *.uav[33].startY 965m
param *.uav[33].startZ 539m
param *.uav[34].startX 312m
param *.uav[34].startY 1262m
param *.uav[34].startZ 540m
param *.uav[35].startX 2185m
param *.uav[35].startY 3026m
param *.uav[35].startZ 778m
param *.uav[36].startX 3537m
param *.uav[36].startY 965m
param *.uav[36].startZ 539m
param *.uav[37].startX 312m
param *.uav[37].startY 1262m
param *.uav[37].startZ 540m
param *.uav[38].startX 2185m
param *.uav[38].startY 3026m
param *.uav[38].startZ 778m
param *.uav[39].startX 3537m
param *.uav[39].startY 965m
param *.uav[39].startZ 539m
param *.uav[40].startX 3537m
param *.uav[40].startY 965m
param *.uav[40].startZ 539m
param *.uav[41].startX 312m
param *.uav[41].startY 1262m
param *.uav[41].startZ 540m
param *.uav[42].startX 2185m
param *.uav[42].startY 3026m
param *.uav[42].startZ 778m
param *.uav[43].startX 3537m
param *.uav[43].startY 965m
param *.uav[43].startZ 539m
param *.uav[44].startX 312m
param *.uav[44].startY 1262m
param *.uav[44].startZ 540m
param *.uav[45].startX 2185m
param *.uav[45].startY 3026m
param *.uav[45].startZ 778m
param *.uav[46].startX 3537m
param *.uav[46].startY 965m
param *.uav[46].startZ 539m
param *.uav[47].startX 312m
param *.uav[47].startY 1262m
param *.uav[47].startZ 540m
param *.uav[48].startX 2185m
param *.uav[48].startY 3026m
param *.uav[48].startZ 778m
param *.uav[49].startX 3537m
param *.uav[49].startY 965m
param *.uav[49].startZ 539m
param *.uav[50].startX 3537m
param *.uav[50].startY 965m
param *.uav[50].startZ 539m
param *.uav[51].startX 312m
param *.uav[51].startY 1262m
param *.uav[51].startZ 540m
param *.uav[52].startX 2185m
param *.uav[52].startY 3026m
param *.uav[52].startZ 778m
param *.uav[53].startX 3537m
param *.uav[53].startY 965m
param *.uav[53].startZ 539m
param *.uav[54].startX 312m
param *.uav[54].startY 1262m
param *.uav[54].startZ 540m
param *.uav[55].startX 2185m
param *.uav[55].startY 3026m
param *.uav[55].startZ 778m
param *.uav[56].startX 3537m
param *.uav[56].startY 965m
param *.uav[56].startZ 539m
param *.uav[57].startX 312m
param *.uav[57].startY 1262m
param *.uav[57].startZ 540m
param *.uav[58].startX 2185m
param *.uav[58].startY 3026m
param *.uav[58].startZ 778m
param *.uav[59].startX 3537m
param *.uav[59].startY 965m
param *.uav[59].startZ 539m
param *.uav[60].startX 3537m
param *.uav[60].startY 965m
param *.uav[60].startZ 539m
param *.uav[61].startX 312m
param *.uav[61].startY 1262m
param *.uav[61].startZ 540m
param *.uav[62].startX 2185m
param *.uav[62].startY 3026m
param *.uav[62].startZ 778m
param *.uav[63].startX 3537m
param *.uav[63].startY 965m
param *.uav[63].startZ 539m
param *.uav[64].startX 312m
param *.uav[64].startY 1262m
param *.uav[64].startZ 540m
param *.uav[65].startX 2185m
param *.uav[65].startY 3026m
param *.uav[65].startZ 778m
param *.uav[66].startX 3537m
param *.uav[66].startY 965m
param *.uav[66].startZ 539m
param *.uav[67].startX 312m
param *.uav[67].startY 1262m
param *.uav[67].startZ 540m
param *.uav[68].startX 2185m
param *.uav[68].startY 3026m
param *.uav[68].startZ 778m
param *.uav[69].startX 3537m
param *.uav[69].startY 965m
param *.uav[69].startZ 539m
param *.uav[70].startX 3537m
param *.uav[70].startY 965m
param *.uav[70].startZ 539m
param *.uav[71].startX 312m
param *.uav[71].startY 1262m
param *.uav[71].startZ 540m
param *.uav[72].startX 2185m
param *.uav[72].startY 3026m
param *.uav[72].startZ 778m
param *.uav[73].startX 3537m
param *.uav[73].startY 965m
param *.uav[73].startZ 539m
param *.uav[74].startX 312m
param *.uav[74].startY 1262m
param *.uav[74].startZ 540m
param *.uav[75].startX 2185m
param *.uav[75].startY 3026m
param *.uav[75].startZ 778m
param *.uav[76].startX 3537m
param *.uav[76].startY 965m
param *.uav[76].startZ 539m
param *.uav[77].startX 312m
param *.uav[77].startY 1262m
param *.uav[77].startZ 540m
param *.uav[78].startX 2185m
param *.uav[78].startY 3026m
param *.uav[78].startZ 778m
param *.uav[79].startX 3537m
param *.uav[79].startY 965m
param *.uav[79].startZ 539m
param *.uav[80].startX 3537m
param *.uav[80].startY 965m
param *.uav[80].startZ 539m
param *.uav[81].startX 312m
param *.uav[81].startY 1262m
param *.uav[81].startZ 540m
param *.uav[82].startX 2185m
param *.uav[82].startY 3026m
param *.uav[82].startZ 778m
param *.uav[83].startX 3537m
param *.uav[83].startY 965m
param *.uav[83].startZ 539m
param *.uav[84].startX 312m
param *.uav[84].startY 1262m
param *.uav[84].startZ 540m
param *.uav[85].startX 2185m
param *.uav[85].startY 3026m
param *.uav[85].startZ 778m
param *.uav[86].startX 3537m
param *.uav[86].startY 965m
param *.uav[86].startZ 539m
param *.uav[87].startX 312m
param *.uav[87].startY 1262m
param *.uav[87].startZ 540m
param *.uav[88].startX 2185m
param *.uav[88].startY 3026m
param *.uav[88].startZ 778m
param *.uav[89].startX 3537m
param *.uav[89].startY 965m
param *.uav[89].startZ 539m
param *.uav[90].startX 3537m
param *.uav[90].startY 965m
param *.uav[90].startZ 539m
param *.uav[91].startX 312m
param *.uav[91].startY 1262m
param *.uav[91].startZ 540m
param *.uav[92].startX 2185m
param *.uav[92].startY 3026m
param *.uav[92].startZ 778m
param *.uav[93].startX 3537m
param *.uav[93].startY 965m
param *.uav[93].startZ 539m
param *.uav[94].startX 312m
param *.uav[94].startY 1262m
param *.uav[94].startZ 540m
param *.uav[95].startX 2185m
param *.uav[95].startY 3026m
param *.uav[95].startZ 778m
param *.uav[96].startX 3537m
param *.uav[96].startY 965m
param *.uav[96].startZ 539m
param *.uav[97].startX 312m
param *.uav[97].startY 1262m
param *.uav[97].startZ 540m
param *.uav[98].startX 2185m
param *.uav[98].startY 3026m
param *.uav[98].startZ 778m
param *.uav[99].startX 3537m
param *.uav[99].startY 965m
param *.uav[99].startZ 539m
param *.osgEarthScene.scene "\"boston.earth\""
param *.playgroundLatitude 42.3558
param *.playgroundLongitude -71.0677
param *.playgroundWidth 400m
param *.playgroundHeight 200m
param *.channelController.connectionColor "\"#0000FF40\""
param *.channelController.showConnections false
param *.uav[*].modelURL "\"quadrocopter.small.obj.15.scale.0,0,90.rot\""
param *.uav[*].labelColor "\"#FF7C00CC\""
param *.uav[*].label2Color "\"#FF7C00EE\""
param *.uav[*].batteryCapacity 5200mAh
param *.uav[*].batteryRemaining uav[index].batteryCapacity
param *.uav[*].predictionQuantile 0.95
param *.uav[*].replacementMethod 2
param *.uav[*].weightedSumWeight 0.5
param *.cs[*].modelURL "\"chargingstation_v1.osgt.2.scale.0,0,0.rot.0,0,-15e-1.trans\""
param *.cs[*].spotsWaiting 999
param *.cs[*].spotsCharging 999
param *.cs[*].chargeEffectivenessPercentage 100
param *.cs[*].nonLinearPhaseStartPercentage 85
param *.cs[*].chargeCurrent 6.0A
param *.cs[*].prioritizeFastCharge true
param *.missionControl.replacementSearchMethod 0
param *.*.timeStep 9s

scalar OsgEarthNet.uav[0] utilizationSecMission 760.62515258028
scalar OsgEarthNet.uav[0] utilizationSecMaintenance 291.95923480269
scalar OsgEarthNet.uav[0] utilizationSecCharge 3760
scalar OsgEarthNet.uav[0] utilizationSecIdle 254387.41461262
scalar OsgEarthNet.uav[0] utilizationEnergyMission 3329.2485961914
scalar OsgEarthNet.uav[0] utilizationEnergyMaintenance 1409.3880233765
scalar OsgEarthNet.uav[0] utilizationEnergyCharge 4738.6357421875
scalar OsgEarthNet.uav[0] utilizationEnergyOverdrawMission 0
scalar OsgEarthNet.uav[0] utilizationEnergyOverdrawMaintenance 0
scalar OsgEarthNet.uav[0] utilizationCountMissions 1
scalar OsgEarthNet.uav[0] utilizationCountManeuversMission 12
scalar OsgEarthNet.uav[0] utilizationCountManeuversMaintenance 2
scalar OsgEarthNet.uav[0] utilizationCountChargeState 1
scalar OsgEarthNet.uav[0] utilizationCountOverdrawnAfterMission 0
scalar OsgEarthNet.uav[0] utilizationCountIdleState 2
scalar OsgEarthNet.uav[0] utilizationFail 0
scalar OsgEarthNet.uav[0] simulationTime 259200
scalar OsgEarthNet.uav[1] utilizationSecMission 29464.190707856
scalar OsgEarthNet.uav[1] utilizationSecMaintenance 13424.648010092
scalar OsgEarthNet.uav[1] utilizationSecCharge 159200
scalar OsgEarthNet.uav[1] utilizationSecIdle 57111.160282052
scalar OsgEarthNet.uav[1] utilizationEnergyMission 135325.78193665
scalar OsgEarthNet.uav[1] utilizationEnergyMaintenance 63687.815811157
scalar OsgEarthNet.uav[1] utilizationEnergyCharge 199082.06738281
scalar OsgEarthNet.uav[1] utilizationEnergyOverdrawMission 0
scalar OsgEarthNet.uav[1] utilizationEnergyOverdrawMaintenance 0
scalar OsgEarthNet.uav[1] utilizationCountMissions 43
scalar OsgEarthNet.uav[1] utilizationCountManeuversMission 487
scalar OsgEarthNet.uav[1] utilizationCountManeuversMaintenance 86
scalar OsgEarthNet.uav[1] utilizationCountChargeState 43
scalar OsgEarthNet.uav[1] utilizationCountOverdrawnAfterMission 0
scalar OsgEarthNet.uav[1] utilizationCountIdleState 44
scalar OsgEarthNet.uav[1] utilizationFail 0
scalar OsgEarthNet.uav[1] simulationTime 259200
scalar OsgEarthNet.uav[2] utilizationSecMission 32366.658124692
scalar OsgEarthNet.uav[2] utilizationSecMaintenance 11939.286919222
scalar OsgEarthNet.uav[2] utilizationSecCharge 163672.05395609
scalar OsgEarthNet.uav[2] utilizationSecIdle 51222
scalar OsgEarthNet.uav[2] utilizationEnergyMission 150586.31600561
scalar OsgEarthNet.uav[2] utilizationEnergyMaintenance 56045.242965698
scalar OsgEarthNet.uav[2] utilizationEnergyCharge 206229.54199219
scalar OsgEarthNet.uav[2] utilizationEnergyOverdrawMission 0
scalar OsgEarthNet.uav[2] utilizationEnergyOverdrawMaintenance 0
scalar OsgEarthNet.uav[2] utilizationCountMissions 44
scalar OsgEarthNet.uav[2] utilizationCountManeuversMission 520
scalar OsgEarthNet.uav[2] utilizationCountManeuversMaintenance 87
scalar OsgEarthNet.uav[2] utilizationCountChargeState 44
scalar OsgEarthNet.uav[2] utilizationCountOverdrawnAfterMission 0
scalar OsgEarthNet.uav[2] utilizationCountIdleState 44
scalar OsgEarthNet.uav[2] utilizationFail 0
scalar OsgEarthNet.uav[2] simulationTime 259200
scalar OsgEarthNet.uav[3] utilizationSecMission 684.4732299383
scalar OsgEarthNet.uav[3] utilizationSecMaintenance 298.56834692969
scalar OsgEarthNet.uav[3] utilizationSecCharge 3700
scalar OsgEarthNet.uav[3] utilizationSecIdle 254516.95742313
scalar OsgEarthNet.uav[3] utilizationEnergyMission 3228.8472976685
scalar OsgEarthNet.uav[3] utilizationEnergyMaintenance 1386.6513290405
scalar OsgEarthNet.uav[3] utilizationEnergyCharge 4615.5009765625
scalar OsgEarthNet.uav[3] utilizationEnergyOverdrawMission 0
scalar OsgEarthNet.uav[3] utilizationEnergyOverdrawMaintenance 0
scalar OsgEarthNet.uav[3] utilizationCountMissions 1
scalar OsgEarthNet.uav[3] utilizationCountManeuversMission 11
scalar OsgEarthNet.uav[3] utilizationCountManeuversMaintenance 2
scalar OsgEarthNet.uav[3] utilizationCountChargeState 1
scalar OsgEarthNet.uav[3] utilizationCountOverdrawnAfterMission 0
scalar OsgEarthNet.uav[3] utilizationCountIdleState 2
scalar OsgEarthNet.uav[3] utilizationFail 0
scalar OsgEarthNet.uav[3] simulationTime 259200
scalar OsgEarthNet.uav[4] utilizationSecMission 26722.035995516
scalar OsgEarthNet.uav[4] utilizationSecMaintenance 13503.375443797
scalar OsgEarthNet.uav[4] utilizationSecCharge 149078.46161242
scalar OsgEarthNet.uav[4] utilizationSecIdle 69896.125948265
scalar OsgEarthNet.uav[4] utilizationEnergyMission 123064.71360397
scalar OsgEarthNet.uav[4] utilizationEnergyMaintenance 63979.83007431
scalar OsgEarthNet.uav[4] utilizationEnergyCharge 186916.17773438
scalar OsgEarthNet.uav[4] utilizationEnergyOverdrawMission 0
scalar OsgEarthNet.uav[4] utilizationEnergyOverdrawMaintenance 0
scalar OsgEarthNet.uav[4] utilizationCountMissions 40
scalar OsgEarthNet.uav[4] utilizationCountManeuversMission 440
scalar OsgEarthNet.uav[4] utilizationCountManeuversMaintenance 80
scalar OsgEarthNet.uav[4] utilizationCountChargeState 40
scalar OsgEarthNet.uav[4] utilizationCountOverdrawnAfterMission 0
scalar OsgEarthNet.uav[4] utilizationCountIdleState 40
scalar OsgEarthNet.uav[4] utilizationFail 0
scalar OsgEarthNet.uav[4] simulationTime 259200
scalar OsgEarthNet.uav[5] utilizationSecMission 29566.689160182
scalar OsgEarthNet.uav[5] utilizationSecMaintenance 12686.723155978
scalar OsgEarthNet.uav[5] utilizationSecCharge 155840.34484822
scalar OsgEarthNet.uav[5] utilizationSecIdle 61106.241835621
scalar OsgEarthNet.uav[5] utilizationEnergyMission 136957.31346893
scalar OsgEarthNet.uav[5] utilizationEnergyMaintenance 59823.084709167
scalar OsgEarthNet.uav[5] utilizationEnergyCharge 196435.83642578
scalar OsgEarthNet.uav[5] utilizationEnergyOverdrawMission 0
scalar OsgEarthNet.uav[5] utilizationEnergyOverdrawMaintenance 0
scalar OsgEarthNet.uav[5] utilizationCountMissions 42
scalar OsgEarthNet.uav[5] utilizationCountManeuversMission 464
scalar OsgEarthNet.uav[5] utilizationCountManeuversMaintenance 84
scalar OsgEarthNet.uav[5] utilizationCountChargeState 42
scalar OsgEarthNet.uav[5] utilizationCountOverdrawnAfterMission 0
scalar OsgEarthNet.uav[5] utilizationCountIdleState 42
scalar OsgEarthNet.uav[5] utilizationFail 0
scalar OsgEarthNet.uav[5] simulationTime 259200
scalar OsgEarthNet.uav[6] utilizationSecMission 760.62515258028
scalar OsgEarthNet.uav[6] utilizationSecMaintenance 291.95923480269
scalar OsgEarthNet.uav[6] utilizationSecCharge 3930
scalar OsgEarthNet.uav[6] utilizationSecIdle 254217.41461262
scalar OsgEarthNet.uav[6] utilizationEnergyMission 3647.6298599243
scalar OsgEarthNet.uav[6] utilizationEnergyMaintenance 1358.4127120972
scalar OsgEarthNet.uav[6] utilizationEnergyCharge 5006.0419921875
scalar OsgEarthNet.uav[6] utilizationEnergyOverdrawMission 0
scalar OsgEarthNet.uav[6] utilizationEnergyOverdrawMaintenance 0
scalar OsgEarthNet.uav[6] utilizationCountMissions 1
scalar OsgEarthNet.uav[6] utilizationCountManeuversMission 12
scalar OsgEarthNet.uav[6] utilizationCountManeuversMaintenance 2
scalar OsgEarthNet.uav[6] utilizationCountChargeState 1
scalar OsgEarthNet.uav[6] utilizationCountOverdrawnAfterMission 0
scalar OsgEarthNet.uav[6] utilizationCountIdleState 2
scalar OsgEarthNet.uav[6] utilizationFail 0
scalar OsgEarthNet.uav[6] simulationTime 259200
scalar OsgEarthNet.uav[7] utilizationSecMission 18567.277766191
scalar OsgEarthNet.uav[7] utilizationSecMaintenance 7645.0195285571
scalar OsgEarthNet.uav[7] utilizationSecCharge 96970
scalar OsgEarthNet.uav[7] utilizationSecIdle 136017.70170525
scalar OsgEarthNet.uav[7] utilizationEnergyMission 85832.892341614
scalar OsgEarthNet.uav[7] utilizationEnergyMaintenance 36232.091953278
scalar OsgEarthNet.uav[7] utilizationEnergyCharge 121656.42138672
scalar OsgEarthNet.uav[7] utilizationEnergyOverdrawMission 0
scalar OsgEarthNet.uav[7] utilizationEnergyOverdrawMaintenance 0
scalar OsgEarthNet.uav[7] utilizationCountMissions 26
scalar OsgEarthNet.uav[7] utilizationCountManeuversMission 289
scalar OsgEarthNet.uav[7] utilizationCountManeuversMaintenance 52
scalar OsgEarthNet.uav[7] utilizationCountChargeState 26
scalar OsgEarthNet.uav[7] utilizationCountOverdrawnAfterMission 0
scalar OsgEarthNet.uav[7] utilizationCountIdleState 27
scalar OsgEarthNet.uav[7] utilizationFail 0
scalar OsgEarthNet.uav[7] simulationTime 259200
scalar OsgEarthNet.uav[8] utilizationSecMission 26071.924411489
scalar OsgEarthNet.uav[8] utilizationSecMaintenance 11521.154591652
scalar OsgEarthNet.uav[8] utilizationSecCharge 138360
scalar OsgEarthNet.uav[8] utilizationSecIdle 83246.919996859
scalar OsgEarthNet.uav[8] utilizationEnergyMission 121854.24319077
scalar OsgEarthNet.uav[8] utilizationEnergyMaintenance 53021.692287445
scalar OsgEarthNet.uav[8] utilizationEnergyCharge 173616.82568359
scalar OsgEarthNet.uav[8] utilizationEnergyOverdrawMission 0
scalar OsgEarthNet.uav[8] utilizationEnergyOverdrawMaintenance 0
scalar OsgEarthNet.uav[8] utilizationCountMissions 37
scalar OsgEarthNet.uav[8] utilizationCountManeuversMission 427
scalar OsgEarthNet.uav[8] utilizationCountManeuversMaintenance 74
scalar OsgEarthNet.uav[8] utilizationCountChargeState 37
scalar OsgEarthNet.uav[8] utilizationCountOverdrawnAfterMission 0
scalar OsgEarthNet.uav[8] utilizationCountIdleState 38
scalar OsgEarthNet.uav[8] utilizationFail 0
scalar OsgEarthNet.uav[8] simulationTime 259200
scalar OsgEarthNet.uav[9] utilizationSecMission 750.20472747826
scalar OsgEarthNet.uav[9] utilizationSecMaintenance 335.16822070369
scalar OsgEarthNet.uav[9] utilizationSecCharge 3880
scalar OsgEarthNet.uav[9] utilizationSecIdle 254234.62605182
scalar OsgEarthNet.uav[9] utilizationEnergyMission 3243.8086547852
scalar OsgEarthNet.uav[9] utilizationEnergyMaintenance 1692.5760002136
scalar OsgEarthNet.uav[9] utilizationEnergyCharge 4936.3828125
scalar OsgEarthNet.uav[9] utilizationEnergyOverdrawMission 0
scalar OsgEarthNet.uav[9] utilizationEnergyOverdrawMaintenance 0
scalar OsgEarthNet.uav[9] utilizationCountMissions 1
scalar OsgEarthNet.uav[9] utilizationCountManeuversMission 11
scalar OsgEarthNet.uav[9] utilizationCountManeuversMaintenance 2
scalar OsgEarthNet.uav[9] utilizationCountChargeState 1
scalar OsgEarthNet.uav[9] utilizationCountOverdrawnAfterMission 0
scalar OsgEarthNet.uav[9] utilizationCountIdleState 2
scalar OsgEarthNet.uav[9] utilizationFail 0
scalar OsgEarthNet.uav[9] simulationTime 259200
scalar OsgEarthNet.uav[10] utilizationSecMission 836.77707522227
scalar OsgEarthNet.uav[10] utilizationSecMaintenance 217.0347828456
scalar OsgEarthNet.uav[10] utilizationSecCharge 3910
scalar OsgEarthNet.uav[10] utilizationSecIdle 254236.18714193
scalar OsgEarthNet.uav[10] utilizationEnergyMission 3814.2460632324
scalar OsgEarthNet.uav[10] utilizationEnergyMaintenance 1151.4573478699
scalar OsgEarthNet.uav[10] utilizationEnergyCharge 4965.7036132812
scalar OsgEarthNet.uav[10] utilizationEnergyOverdrawMission 0
scalar OsgEarthNet.uav[10] utilizationEnergyOverdrawMaintenance 0
scalar OsgEarthNet.uav[10] utilizationCountMissions 1
scalar OsgEarthNet.uav[10] utilizationCountManeuversMission 13
scalar OsgEarthNet.uav[10] utilizationCountManeuversMaintenance 2
scalar OsgEarthNet.uav[10] utilizationCountChargeState 1
scalar OsgEarthNet.uav[10] utilizationCountOverdrawnAfterMission 0
scalar OsgEarthNet.uav[10] utilizationCountIdleState 2
scalar OsgEarthNet.uav[10] utilizationFail 0
scalar OsgEarthNet.uav[10] simulationTime 259200
scalar OsgEarthNet.uav[11] utilizationSecMission 28093.435655681
scalar OsgEarthNet.uav[11] utilizationSecMaintenance 14246.690603232
scalar OsgEarthNet.uav[11] utilizationSecCharge 152084.71569516
scalar OsgEarthNet.uav[11] utilizationSecIdle 64775.15704593
scalar OsgEarthNet.uav[11] utilizationEnergyMission 129117.80188751
scalar OsgEarthNet.uav[11] utilizationEnergyMaintenance 65311.157928467
scalar OsgEarthNet.uav[11] utilizationEnergyCharge 190526.2354126
scalar OsgEarthNet.uav[11] utilizationEnergyOverdrawMission 0
scalar OsgEarthNet.uav[11] utilizationEnergyOverdrawMaintenance 0
scalar OsgEarthNet.uav[11] utilizationCountMissions 42
scalar OsgEarthNet.uav[11] utilizationCountManeuversMission 463
scalar OsgEarthNet.uav[11] utilizationCountManeuversMaintenance 84
scalar OsgEarthNet.uav[11] utilizationCountChargeState 42
scalar OsgEarthNet.uav[11] utilizationCountOverdrawnAfterMission 0
scalar OsgEarthNet.uav[11] utilizationCountIdleState 42
scalar OsgEarthNet.uav[11] utilizationFail 0
scalar OsgEarthNet.uav[11] simulationTime 259200
scalar OsgEarthNet.uav[12] utilizationSecMission 694.00169469977
scalar OsgEarthNet.uav[12] utilizationSecMaintenance 338.49695459722
scalar OsgEarthNet.uav[12] utilizationSecCharge 3900
scalar OsgEarthNet.uav[12] utilizationSecIdle 254267.5003507
scalar OsgEarthNet.uav[12] utilizationEnergyMission 3250.4680023193
scalar OsgEarthNet.uav[12] utilizationEnergyMaintenance 1692.7747917175
scalar OsgEarthNet.uav[12] utilizationEnergyCharge 4943.248046875
scalar OsgEarthNet.uav[12] utilizationEnergyOverdrawMission 0
scalar OsgEarthNet.uav[12] utilizationEnergyOverdrawMaintenance 0
scalar OsgEarthNet.uav[12] utilizationCountMissions 1
scalar OsgEarthNet.uav[12] utilizationCountManeuversMission 13
scalar OsgEarthNet.uav[12] utilizationCountManeuversMaintenance 2
scalar OsgEarthNet.uav[12] utilizationCountChargeState 1
scalar OsgEarthNet.uav[12] utilizationCountOverdrawnAfterMission 0
scalar OsgEarthNet.uav[12] utilizationCountIdleState 2
scalar OsgEarthNet.uav[12] utilizationFail 0
scalar OsgEarthNet.uav[12] simulationTime 259200
scalar OsgEarthNet.uav[13] utilizationSecMission 750.20472747826
scalar OsgEarthNet.uav[13] utilizationSecMaintenance 261.68051383311
scalar OsgEarthNet.uav[13] utilizationSecCharge 3820
scalar OsgEarthNet.uav[13] utilizationSecIdle 254368.11375869
scalar OsgEarthNet.uav[13] utilizationEnergyMission 3454.9620666504
scalar OsgEarthNet.uav[13] utilizationEnergyMaintenance 1348.1823234558
scalar OsgEarthNet.uav[13] utilizationEnergyCharge 4803.146484375
scalar OsgEarthNet.uav[13] utilizationEnergyOverdrawMission 0
scalar OsgEarthNet.uav[13] utilizationEnergyOverdrawMaintenance 0
scalar OsgEarthNet.uav[13] utilizationCountMissions 1
scalar OsgEarthNet.uav[13] utilizationCountManeuversMission 11
scalar OsgEarthNet.uav[13] utilizationCountManeuversMaintenance 2
scalar OsgEarthNet.uav[13] utilizationCountChargeState 1
scalar OsgEarthNet.uav[13] utilizationCountOverdrawnAfterMission 0
scalar OsgEarthNet.uav[13] utilizationCountIdleState 2
scalar OsgEarthNet.uav[13] utilizationFail 0
scalar OsgEarthNet.uav[13] simulationTime 259200
scalar OsgEarthNet.uav[14] utilizationSecMission 29122.784912181
scalar OsgEarthNet.uav[14] utilizationSecMaintenance 14447.46482103
scalar OsgEarthNet.uav[14] utilizationSecCharge 160031.25289654
scalar OsgEarthNet.uav[14] utilizationSecIdle 55598.496370249
scalar OsgEarthNet.uav[14] utilizationEnergyMission 133591.60847092
scalar OsgEarthNet.uav[14] utilizationEnergyMaintenance 68036.402957916
scalar OsgEarthNet.uav[14] utilizationEnergyCharge 200854.70117188
scalar OsgEarthNet.uav[14] utilizationEnergyOverdrawMission 0
scalar OsgEarthNet.uav[14] utilizationEnergyOverdrawMaintenance 0
scalar OsgEarthNet.uav[14] utilizationCountMissions 43
scalar OsgEarthNet.uav[14] utilizationCountManeuversMission 487
scalar OsgEarthNet.uav[14] utilizationCountManeuversMaintenance 86
scalar OsgEarthNet.uav[14] utilizationCountChargeState 43
scalar OsgEarthNet.uav[14] utilizationCountOverdrawnAfterMission 0
scalar OsgEarthNet.uav[14] utilizationCountIdleState 43
scalar OsgEarthNet.uav[14] utilizationFail 0
scalar OsgEarthNet.uav[14] simulationTime 259200
scalar OsgEarthNet.uav[15] utilizationSecMission 29266.409586818
scalar OsgEarthNet.uav[15] utilizationSecMaintenance 13074.134178966
scalar OsgEarthNet.uav[15] utilizationSecCharge 153972.80192489
scalar OsgEarthNet.uav[15] utilizationSecIdle 62886.653309323
scalar OsgEarthNet.uav[15] utilizationEnergyMission 135819.03209686
scalar OsgEarthNet.uav[15] utilizationEnergyMaintenance 61033.396888733
scalar OsgEarthNet.uav[15] utilizationEnergyCharge 193344.90283203
scalar OsgEarthNet.uav[15] utilizationEnergyOverdrawMission 0
scalar OsgEarthNet.uav[15] utilizationEnergyOverdrawMaintenance 0
scalar OsgEarthNet.uav[15] utilizationCountMissions 42
scalar OsgEarthNet.uav[15] utilizationCountManeuversMission 473
scalar OsgEarthNet.uav[15] utilizationCountManeuversMaintenance 84
scalar OsgEarthNet.uav[15] utilizationCountChargeState 42
scalar OsgEarthNet.uav[15] utilizationCountOverdrawnAfterMission 0
scalar OsgEarthNet.uav[15] utilizationCountIdleState 42
scalar OsgEarthNet.uav[15] utilizationFail 0
scalar OsgEarthNet.uav[15] simulationTime 259200
scalar OsgEarthNet.uav[16] utilizationSecMission 684.4732299383
scalar OsgEarthNet.uav[16] utilizationSecMaintenance 298.56834692969
scalar OsgEarthNet.uav[16] utilizationSecCharge 3750
scalar OsgEarthNet.uav[16] utilizationSecIdle 254466.95742313
scalar OsgEarthNet.uav[16] utilizationEnergyMission 3258.05418396
scalar OsgEarthNet.uav[16] utilizationEnergyMaintenance 1437.8640670776
scalar OsgEarthNet.uav[16] utilizationEnergyCharge 4695.9140625
scalar OsgEarthNet.uav[16] utilizationEnergyOverdrawMission 0
scalar OsgEarthNet.uav[16] utilizationEnergyOverdrawMaintenance 0
scalar OsgEarthNet.uav[16] utilizationCountMissions 1
scalar OsgEarthNet.uav[16] utilizationCountManeuversMission 11
scalar OsgEarthNet.uav[16] utilizationCountManeuversMaintenance 2
scalar OsgEarthNet.uav[16] utilizationCountChargeState 1
scalar OsgEarthNet.uav[16] utilizationCountOverdrawnAfterMission 0
scalar OsgEarthNet.uav[16] utilizationCountIdleState 2
scalar OsgEarthNet.uav[16] utilizationFail 0
scalar OsgEarthNet.uav[16] simulationTime 259200
scalar OsgEarthNet.uav[17] utilizationSecMission 28558.342741589
scalar OsgEarthNet.uav[17] utilizationSecMaintenance 14803.225034434
scalar OsgEarthNet.uav[17] utilizationSecCharge 160460
scalar OsgEarthNet.uav[17] utilizationSecIdle 55378.431223977
scalar OsgEarthNet.uav[17] utilizationEnergyMission 132302.01515961
scalar OsgEarthNet.uav[17] utilizationEnergyMaintenance 69186.054000854
scalar OsgEarthNet.uav[17] utilizationEnergyCharge 201534.77392578
scalar OsgEarthNet.uav[17] utilizationEnergyOverdrawMission 0
scalar OsgEarthNet.uav[17] utilizationEnergyOverdrawMaintenance 0
scalar OsgEarthNet.uav[17] utilizationCountMissions 43
scalar OsgEarthNet.uav[17] utilizationCountManeuversMission 477
scalar OsgEarthNet.uav[17] utilizationCountManeuversMaintenance 86
scalar OsgEarthNet.uav[17] utilizationCountChargeState 43
scalar OsgEarthNet.uav[17] utilizationCountOverdrawnAfterMission 0
scalar OsgEarthNet.uav[17] utilizationCountIdleState 44
scalar OsgEarthNet.uav[17] utilizationFail 0
scalar OsgEarthNet.uav[17] simulationTime 259200
scalar OsgEarthNet.uav[18] utilizationSecMission 30110.235324498
scalar OsgEarthNet.uav[18] utilizationSecMaintenance 14565.615733364
scalar OsgEarthNet.uav[18] utilizationSecCharge 164760
scalar OsgEarthNet.uav[18] utilizationSecIdle 49764.147942138
scalar OsgEarthNet.uav[18] utilizationEnergyMission 139442.76519012
scalar OsgEarthNet.uav[18] utilizationEnergyMaintenance 66891.08889389
scalar OsgEarthNet.uav[18] utilizationEnergyCharge 206657.70019531
scalar OsgEarthNet.uav[18] utilizationEnergyOverdrawMission 0
scalar OsgEarthNet.uav[18] utilizationEnergyOverdrawMaintenance 0
scalar OsgEarthNet.uav[18] utilizationCountMissions 44
scalar OsgEarthNet.uav[18] utilizationCountManeuversMission 497
scalar OsgEarthNet.uav[18] utilizationCountManeuversMaintenance 88
scalar OsgEarthNet.uav[18] utilizationCountChargeState 44
scalar OsgEarthNet.uav[18] utilizationCountOverdrawnAfterMission 0
scalar OsgEarthNet.uav[18] utilizationCountIdleState 45
scalar OsgEarthNet.uav[18] utilizationFail 0
scalar OsgEarthNet.uav[18] simulationTime 259200
scalar OsgEarthNet.uav[19] utilizationSecMission 684.4732299383
scalar OsgEarthNet.uav[19] utilizationSecMaintenance 298.56834692969
scalar OsgEarthNet.uav[19] utilizationSecCharge 3780
scalar OsgEarthNet.uav[19] utilizationSecIdle 254436.95742313
scalar OsgEarthNet.uav[19] utilizationEnergyMission 3254.5840530396
scalar OsgEarthNet.uav[19] utilizationEnergyMaintenance 1507.4409408569
scalar OsgEarthNet.uav[19] utilizationEnergyCharge 4762.0278320312
scalar OsgEarthNet.uav[19] utilizationEnergyOverdrawMission 0
scalar OsgEarthNet.uav[19] utilizationEnergyOverdrawMaintenance 0
scalar OsgEarthNet.uav[19] utilizationCountMissions 1
scalar OsgEarthNet.uav[19] utilizationCountManeuversMission 11
scalar OsgEarthNet.uav[19] utilizationCountManeuversMaintenance 2
scalar OsgEarthNet.uav[19] utilizationCountChargeState 1
scalar OsgEarthNet.uav[19] utilizationCountOverdrawnAfterMission 0
scalar OsgEarthNet.uav[19] utilizationCountIdleState 2
scalar OsgEarthNet.uav[19] utilizationFail 0
scalar OsgEarthNet.uav[19] simulationTime 259200
scalar OsgEarthNet.uav[20] utilizationSecMission 664.13705230755
scalar OsgEarthNet.uav[20] utilizationSecMaintenance 395.66948748195
scalar OsgEarthNet.uav[20] utilizationSecCharge 3830
scalar OsgEarthNet.uav[20] utilizationSecIdle 254310.19246021
scalar OsgEarthNet.uav[20] utilizationEnergyMission 3162.504486084
scalar OsgEarthNet.uav[20] utilizationEnergyMaintenance 1886.3874168396
scalar OsgEarthNet.uav[20] utilizationEnergyCharge 4803.9814453125
scalar OsgEarthNet.uav[20] utilizationEnergyOverdrawMission 0
scalar OsgEarthNet.uav[20] utilizationEnergyOverdrawMaintenance 0
scalar OsgEarthNet.uav[20] utilizationCountMissions 1
scalar OsgEarthNet.uav[20] utilizationCountManeuversMission 10
scalar OsgEarthNet.uav[20] utilizationCountManeuversMaintenance 2
scalar OsgEarthNet.uav[20] utilizationCountChargeState 1
scalar OsgEarthNet.uav[20] utilizationCountOverdrawnAfterMission 0
scalar OsgEarthNet.uav[20] utilizationCountIdleState 2
scalar OsgEarthNet.uav[20] utilizationFail 0
scalar OsgEarthNet.uav[20] simulationTime 259200
scalar OsgEarthNet.uav[21] utilizationSecMission 28779.783269938
scalar OsgEarthNet.uav[21] utilizationSecMaintenance 14264.956279549
scalar OsgEarthNet.uav[21] utilizationSecCharge 157306.80318008
scalar OsgEarthNet.uav[21] utilizationSecIdle 58848.456270436
scalar OsgEarthNet.uav[21] utilizationEnergyMission 133042.34648895
scalar OsgEarthNet.uav[21] utilizationEnergyMaintenance 66366.309116364
scalar OsgEarthNet.uav[21] utilizationEnergyCharge 197382.38793945
scalar OsgEarthNet.uav[21] utilizationEnergyOverdrawMission 0
scalar OsgEarthNet.uav[21] utilizationEnergyOverdrawMaintenance 0
scalar OsgEarthNet.uav[21] utilizationCountMissions 43
scalar OsgEarthNet.uav[21] utilizationCountManeuversMission 457
scalar OsgEarthNet.uav[21] utilizationCountManeuversMaintenance 86
scalar OsgEarthNet.uav[21] utilizationCountChargeState 43
scalar OsgEarthNet.uav[21] utilizationCountOverdrawnAfterMission 0
scalar OsgEarthNet.uav[21] utilizationCountIdleState 43
scalar OsgEarthNet.uav[21] utilizationFail 0
scalar OsgEarthNet.uav[21] simulationTime 259200
scalar OsgEarthNet.uav[22] utilizationSecMission 621.17604176187
scalar OsgEarthNet.uav[22] utilizationSecMaintenance 313.76167006775
scalar OsgEarthNet.uav[22] utilizationSecCharge 3670
scalar OsgEarthNet.uav[22] utilizationSecIdle 254595.06128817
scalar OsgEarthNet.uav[22] utilizationEnergyMission 3048.0762176514
scalar OsgEarthNet.uav[22] utilizationEnergyMaintenance 1492.1018791199
scalar OsgEarthNet.uav[22] utilizationEnergyCharge 4540.1806640625
scalar OsgEarthNet.uav[22] utilizationEnergyOverdrawMission 0
scalar OsgEarthNet.uav[22] utilizationEnergyOverdrawMaintenance 0
scalar OsgEarthNet.uav[22] utilizationCountMissions 1
scalar OsgEarthNet.uav[22] utilizationCountManeuversMission 12
scalar OsgEarthNet.uav[22] utilizationCountManeuversMaintenance 2
scalar OsgEarthNet.uav[22] utilizationCountChargeState 1
scalar OsgEarthNet.uav[22] utilizationCountOverdrawnAfterMission 0
scalar OsgEarthNet.uav[22] utilizationCountIdleState 2
scalar OsgEarthNet.uav[22] utilizationFail 0
scalar OsgEarthNet.uav[22] simulationTime 259200
scalar OsgEarthNet.uav[23] utilizationSecMission 581.19640448947
scalar OsgEarthNet.uav[23] utilizationSecMaintenance 393.71026136566
scalar OsgEarthNet.uav[23] utilizationSecCharge 3730
scalar OsgEarthNet.uav[23] utilizationSecIdle 254495.09233414
scalar OsgEarthNet.uav[23] utilizationEnergyMission 2608.6853942871
scalar OsgEarthNet.uav[23] utilizationEnergyMaintenance 1832.3734664917
scalar OsgEarthNet.uav[23] utilizationEnergyCharge 4637.9536132812
scalar OsgEarthNet.uav[23] utilizationEnergyOverdrawMission 0
scalar OsgEarthNet.uav[23] utilizationEnergyOverdrawMaintenance 0
scalar OsgEarthNet.uav[23] utilizationCountMissions 1
scalar OsgEarthNet.uav[23] utilizationCountManeuversMission 9
scalar OsgEarthNet.uav[23] utilizationCountManeuversMaintenance 2
scalar OsgEarthNet.uav[23] utilizationCountChargeState 1
scalar OsgEarthNet.uav[23] utilizationCountOverdrawnAfterMission 0
scalar OsgEarthNet.uav[23] utilizationCountIdleState 2
scalar OsgEarthNet.uav[23] utilizationFail 0
scalar OsgEarthNet.uav[23] simulationTime 259200
scalar OsgEarthNet.uav[24] utilizationSecMission 28380.671324685
scalar OsgEarthNet.uav[24] utilizationSecMaintenance 12813.034253288
scalar OsgEarthNet.uav[24] utilizationSecCharge 149492.62722803
scalar OsgEarthNet.uav[24] utilizationSecIdle 68513.666193998
scalar OsgEarthNet.uav[24] utilizationEnergyMission 131061.95890808
scalar OsgEarthNet.uav[24] utilizationEnergyMaintenance 60513.233360291
scalar OsgEarthNet.uav[24] utilizationEnergyCharge 187589.52294922
scalar OsgEarthNet.uav[24] utilizationEnergyOverdrawMission 0
scalar OsgEarthNet.uav[24] utilizationEnergyOverdrawMaintenance 0
scalar OsgEarthNet.uav[24] utilizationCountMissions 41
scalar OsgEarthNet.uav[24] utilizationCountManeuversMission 471
scalar OsgEarthNet.uav[24] utilizationCountManeuversMaintenance 82
scalar OsgEarthNet.uav[24] utilizationCountChargeState 41
scalar OsgEarthNet.uav[24] utilizationCountOverdrawnAfterMission 0
scalar OsgEarthNet.uav[24] utilizationCountIdleState 41
scalar OsgEarthNet.uav[24] utilizationFail 0
scalar OsgEarthNet.uav[24] simulationTime 259200
scalar OsgEarthNet.uav[25] utilizationSecMission 844.68187799363
scalar OsgEarthNet.uav[25] utilizationSecMaintenance 168.94893785192
scalar OsgEarthNet.uav[25] utilizationSecCharge 3940
scalar OsgEarthNet.uav[25] utilizationSecIdle 254246.36818415
scalar OsgEarthNet.uav[25] utilizationEnergyMission 4102.25440979
scalar OsgEarthNet.uav[25] utilizationEnergyMaintenance 815.85606002808
scalar OsgEarthNet.uav[25] utilizationEnergyCharge 5005.0825195312
scalar OsgEarthNet.uav[25] utilizationEnergyOverdrawMission 0
scalar OsgEarthNet.uav[25] utilizationEnergyOverdrawMaintenance 0
scalar OsgEarthNet.uav[25] utilizationCountMissions 1
scalar OsgEarthNet.uav[25] utilizationCountManeuversMission 13
scalar OsgEarthNet.uav[25] utilizationCountManeuversMaintenance 2
scalar OsgEarthNet.uav[25] utilizationCountChargeState 1
scalar OsgEarthNet.uav[25] utilizationCountOverdrawnAfterMission 0
scalar OsgEarthNet.uav[25] utilizationCountIdleState 2
scalar OsgEarthNet.uav[25] utilizationFail 0
scalar OsgEarthNet.uav[25] simulationTime 259200
scalar OsgEarthNet.uav[26] utilizationSecMission 406.05775011247
scalar OsgEarthNet.uav[26] utilizationSecMaintenance 549.95104348165
scalar OsgEarthNet.uav[26] utilizationSecCharge 3580
scalar OsgEarthNet.uav[26] utilizationSecIdle 254663.99020641
scalar OsgEarthNet.uav[26] utilizationEnergyMission 2034.1569976807
scalar OsgEarthNet.uav[26] utilizationEnergyMaintenance 2402.1806869507
scalar OsgEarthNet.uav[26] utilizationEnergyCharge 4436.3383789062
scalar OsgEarthNet.uav[26] utilizationEnergyOverdrawMission 0
scalar OsgEarthNet.uav[26] utilizationEnergyOverdrawMaintenance 0
scalar OsgEarthNet.uav[26] utilizationCountMissions 1
scalar OsgEarthNet.uav[26] utilizationCountManeuversMission 6
scalar OsgEarthNet.uav[26] utilizationCountManeuversMaintenance 2
scalar OsgEarthNet.uav[26] utilizationCountChargeState 1
scalar OsgEarthNet.uav[26] utilizationCountOverdrawnAfterMission 0
scalar OsgEarthNet.uav[26] utilizationCountIdleState 2
scalar OsgEarthNet.uav[26] utilizationFail 0
scalar OsgEarthNet.uav[26] simulationTime 259200
scalar OsgEarthNet.uav[27] utilizationSecMission 23704.224041166
scalar OsgEarthNet.uav[27] utilizationSecMaintenance 12159.620977423
scalar OsgEarthNet.uav[27] utilizationSecCharge 133100
scalar OsgEarthNet.uav[27] utilizationSecIdle 90236.153981411
scalar OsgEarthNet.uav[27] utilizationEnergyMission 110156.953125
scalar OsgEarthNet.uav[27] utilizationEnergyMaintenance 56629.669692993
scalar OsgEarthNet.uav[27] utilizationEnergyCharge 166441.73095703
scalar OsgEarthNet.uav[27] utilizationEnergyOverdrawMission 0
scalar OsgEarthNet.uav[27] utilizationEnergyOverdrawMaintenance 0
scalar OsgEarthNet.uav[27] utilizationCountMissions 36
scalar OsgEarthNet.uav[27] utilizationCountManeuversMission 394
scalar OsgEarthNet.uav[27] utilizationCountManeuversMaintenance 72
scalar OsgEarthNet.uav[27] utilizationCountChargeState 36
scalar OsgEarthNet.uav[27] utilizationCountOverdrawnAfterMission 0
scalar OsgEarthNet.uav[27] utilizationCountIdleState 37
scalar OsgEarthNet.uav[27] utilizationFail 0
scalar OsgEarthNet.uav[27] simulationTime 259200
scalar OsgEarthNet.uav[28] utilizationSecMission 750.20472747826
scalar OsgEarthNet.uav[28] utilizationSecMaintenance 280.95484451848
scalar OsgEarthNet.uav[28] utilizationSecCharge 3770
scalar OsgEarthNet.uav[28] utilizationSecIdle 254398.839428
scalar OsgEarthNet.uav[28] utilizationEnergyMission 3298.6999359131
scalar OsgEarthNet.uav[28] utilizationEnergyMaintenance 1449.2926139832
scalar OsgEarthNet.uav[28] utilizationEnergyCharge 4747.9868164062
scalar OsgEarthNet.uav[28] utilizationEnergyOverdrawMission 0
scalar OsgEarthNet.uav[28] utilizationEnergyOverdrawMaintenance 0
scalar OsgEarthNet.uav[28] utilizationCountMissions 1
scalar OsgEarthNet.uav[28] utilizationCountManeuversMission 11
scalar OsgEarthNet.uav[28] utilizationCountManeuversMaintenance 2
scalar OsgEarthNet.uav[28] utilizationCountChargeState 1
scalar OsgEarthNet.uav[28] utilizationCountOverdrawnAfterMission 0
scalar OsgEarthNet.uav[28] utilizationCountIdleState 2
scalar OsgEarthNet.uav[28] utilizationFail 0
scalar OsgEarthNet.uav[28] simulationTime 259200
scalar OsgEarthNet.uav[29] utilizationSecMission 836.77707522227
scalar OsgEarthNet.uav[29] utilizationSecMaintenance 217.0347828456
scalar OsgEarthNet.uav[29] utilizationSecCharge 3900
scalar OsgEarthNet.uav[29] utilizationSecIdle 254246.18714193
scalar OsgEarthNet.uav[29] utilizationEnergyMission 3907.4724121094
scalar OsgEarthNet.uav[29] utilizationEnergyMaintenance 1100.0866203308
scalar OsgEarthNet.uav[29] utilizationEnergyCharge 5007.5615234375
scalar OsgEarthNet.uav[29] utilizationEnergyOverdrawMission 0
scalar OsgEarthNet.uav[29] utilizationEnergyOverdrawMaintenance 0
scalar OsgEarthNet.uav[29] utilizationCountMissions 1
scalar OsgEarthNet.uav[29] utilizationCountManeuversMission 13
scalar OsgEarthNet.uav[29] utilizationCountManeuversMaintenance 2
scalar OsgEarthNet.uav[29] utilizationCountChargeState 1
scalar OsgEarthNet.uav[29] utilizationCountOverdrawnAfterMission 0
scalar OsgEarthNet.uav[29] utilizationCountIdleState 2
scalar OsgEarthNet.uav[29] utilizationFail 0
scalar OsgEarthNet.uav[29] simulationTime 259200
scalar OsgEarthNet.uav[30] utilizationSecMission 702.6942798579
scalar OsgEarthNet.uav[30] utilizationSecMaintenance 282.29565405678
scalar OsgEarthNet.uav[30] utilizationSecCharge 3680
scalar OsgEarthNet.uav[30] utilizationSecIdle 254535.00906609
scalar OsgEarthNet.uav[30] utilizationEnergyMission 3218.1057434082
scalar OsgEarthNet.uav[30] utilizationEnergyMaintenance 1381.3568840027
scalar OsgEarthNet.uav[30] utilizationEnergyCharge 4599.4580078125
scalar OsgEarthNet.uav[30] utilizationEnergyOverdrawMission 0
scalar OsgEarthNet.uav[30] utilizationEnergyOverdrawMaintenance 0
scalar OsgEarthNet.uav[30] utilizationCountMissions 1
scalar OsgEarthNet.uav[30] utilizationCountManeuversMission 10
scalar OsgEarthNet.uav[30] utilizationCountManeuversMaintenance 2
scalar OsgEarthNet.uav[30] utilizationCountChargeState 1
scalar OsgEarthNet.uav[30] utilizationCountOverdrawnAfterMission 0
scalar OsgEarthNet.uav[30] utilizationCountIdleState 2
scalar OsgEarthNet.uav[30] utilizationFail 0
scalar OsgEarthNet.uav[30] simulationTime 259200
scalar OsgEarthNet.uav[31] utilizationSecMission 30274.384080603
scalar OsgEarthNet.uav[31] utilizationSecMaintenance 13009.05038108
scalar OsgEarthNet.uav[31] utilizationSecCharge 159129.15760504
scalar OsgEarthNet.uav[31] utilizationSecIdle 56787.406933276
scalar OsgEarthNet.uav[31] utilizationEnergyMission 138586.22917938
scalar OsgEarthNet.uav[31] utilizationEnergyMaintenance 60090.923477173
scalar OsgEarthNet.uav[31] utilizationEnergyCharge 198890.95117188
scalar OsgEarthNet.uav[31] utilizationEnergyOverdrawMission 0
scalar OsgEarthNet.uav[31] utilizationEnergyOverdrawMaintenance 0
scalar OsgEarthNet.uav[31] utilizationCountMissions 43
scalar OsgEarthNet.uav[31] utilizationCountManeuversMission 493
scalar OsgEarthNet.uav[31] utilizationCountManeuversMaintenance 86
scalar OsgEarthNet.uav[31] utilizationCountChargeState 43
scalar OsgEarthNet.uav[31] utilizationCountOverdrawnAfterMission 0
scalar OsgEarthNet.uav[31] utilizationCountIdleState 43
scalar OsgEarthNet.uav[31] utilizationFail 0
scalar OsgEarthNet.uav[31] simulationTime 259200
scalar OsgEarthNet.uav[32] utilizationSecMission 2880.7498214996
scalar OsgEarthNet.uav[32] utilizationSecMaintenance 1220.8922205026
scalar OsgEarthNet.uav[32] utilizationSecCharge 14980
scalar OsgEarthNet.uav[32] utilizationSecIdle 240118.356958
scalar OsgEarthNet.uav[32] utilizationEnergyMission 13276.738059998
scalar OsgEarthNet.uav[32] utilizationEnergyMaintenance 5576.1498985291
scalar OsgEarthNet.uav[32] utilizationEnergyCharge 18792.576171875
scalar OsgEarthNet.uav[32] utilizationEnergyOverdrawMission 0
scalar OsgEarthNet.uav[32] utilizationEnergyOverdrawMaintenance 0
scalar OsgEarthNet.uav[32] utilizationCountMissions 4
scalar OsgEarthNet.uav[32] utilizationCountManeuversMission 51
scalar OsgEarthNet.uav[32] utilizationCountManeuversMaintenance 8
scalar OsgEarthNet.uav[32] utilizationCountChargeState 4
scalar OsgEarthNet.uav[32] utilizationCountOverdrawnAfterMission 0
scalar OsgEarthNet.uav[32] utilizationCountIdleState 5
scalar OsgEarthNet.uav[32] utilizationFail 0
scalar OsgEarthNet.uav[32] simulationTime 259200
scalar OsgEarthNet.uav[33] utilizationSecMission 684.4732299383
scalar OsgEarthNet.uav[33] utilizationSecMaintenance 298.56834692969
scalar OsgEarthNet.uav[33] utilizationSecCharge 3760
scalar OsgEarthNet.uav[33] utilizationSecIdle 254456.95742313
scalar OsgEarthNet.uav[33] utilizationEnergyMission 3183.1228866577
scalar OsgEarthNet.uav[33] utilizationEnergyMaintenance 1553.8080368042
scalar OsgEarthNet.uav[33] utilizationEnergyCharge 4736.92578125
scalar OsgEarthNet.uav[33] utilizationEnergyOverdrawMission 0
scalar OsgEarthNet.uav[33] utilizationEnergyOverdrawMaintenance 0
scalar OsgEarthNet.uav[33] utilizationCountMissions 1
scalar OsgEarthNet.uav[33] utilizationCountManeuversMission 11
scalar OsgEarthNet.uav[33] utilizationCountManeuversMaintenance 2
scalar OsgEarthNet.uav[33] utilizationCountChargeState 1
scalar OsgEarthNet.uav[33] utilizationCountOverdrawnAfterMission 0
scalar OsgEarthNet.uav[33] utilizationCountIdleState 2
scalar OsgEarthNet.uav[33] utilizationFail 0
scalar OsgEarthNet.uav[33] simulationTime 259200
scalar OsgEarthNet.uav[34] utilizationSecMission 27891.740635581
scalar OsgEarthNet.uav[34] utilizationSecMaintenance 13979.89054512
scalar OsgEarthNet.uav[34] utilizationSecCharge 152010
scalar OsgEarthNet.uav[34] utilizationSecIdle 65318.367819298
scalar OsgEarthNet.uav[34] utilizationEnergyMission 128931.19712305
scalar OsgEarthNet.uav[34] utilizationEnergyMaintenance 65062.862606049
scalar OsgEarthNet.uav[34] utilizationEnergyCharge 190364.60693359
scalar OsgEarthNet.uav[34] utilizationEnergyOverdrawMission 0
scalar OsgEarthNet.uav[34] utilizationEnergyOverdrawMaintenance 0
scalar OsgEarthNet.uav[34] utilizationCountMissions 41
scalar OsgEarthNet.uav[34] utilizationCountManeuversMission 463
scalar OsgEarthNet.uav[34] utilizationCountManeuversMaintenance 83
scalar OsgEarthNet.uav[34] utilizationCountChargeState 41
scalar OsgEarthNet.uav[34] utilizationCountOverdrawnAfterMission 0
scalar OsgEarthNet.uav[34] utilizationCountIdleState 42
scalar OsgEarthNet.uav[34] utilizationFail 0
scalar OsgEarthNet.uav[34] simulationTime 259200
scalar OsgEarthNet.uav[35] utilizationSecMission 694.00169469977
scalar OsgEarthNet.uav[35] utilizationSecMaintenance 338.49695459722
scalar OsgEarthNet.uav[35] utilizationSecCharge 3770
scalar OsgEarthNet.uav[35] utilizationSecIdle 254397.5003507
scalar OsgEarthNet.uav[35] utilizationEnergyMission 3172.2404174805
scalar OsgEarthNet.uav[35] utilizationEnergyMaintenance 1534.0625724792
scalar OsgEarthNet.uav[35] utilizationEnergyCharge 4706.3017578125
scalar OsgEarthNet.uav[35] utilizationEnergyOverdrawMission 0
scalar OsgEarthNet.uav[35] utilizationEnergyOverdrawMaintenance 0
scalar OsgEarthNet.uav[35] utilizationCountMissions 1
scalar OsgEarthNet.uav[35] utilizationCountManeuversMission 13
scalar OsgEarthNet.uav[35] utilizationCountManeuversMaintenance 2
scalar OsgEarthNet.uav[35] utilizationCountChargeState 1
scalar OsgEarthNet.uav[35] utilizationCountOverdrawnAfterMission 0
scalar OsgEarthNet.uav[35] utilizationCountIdleState 2
scalar OsgEarthNet.uav[35] utilizationFail 0
scalar OsgEarthNet.uav[35] simulationTime 259200
scalar OsgEarthNet.uav[36] utilizationSecMission 30094.940247044
scalar OsgEarthNet.uav[36] utilizationSecMaintenance 14739.035693796
scalar OsgEarthNet.uav[36] utilizationSecCharge 162394.02305916
scalar OsgEarthNet.uav[36] utilizationSecIdle 51972
scalar OsgEarthNet.uav[36] utilizationEnergyMission 138880.27340698
scalar OsgEarthNet.uav[36] utilizationEnergyMaintenance 68283.198955536
scalar OsgEarthNet.uav[36] utilizationEnergyCharge 202712.40893555
scalar OsgEarthNet.uav[36] utilizationEnergyOverdrawMission 0
scalar OsgEarthNet.uav[36] utilizationEnergyOverdrawMaintenance 0
scalar OsgEarthNet.uav[36] utilizationCountMissions 45
scalar OsgEarthNet.uav[36] utilizationCountManeuversMission 486
scalar OsgEarthNet.uav[36] utilizationCountManeuversMaintenance 89
scalar OsgEarthNet.uav[36] utilizationCountChargeState 45
scalar OsgEarthNet.uav[36] utilizationCountOverdrawnAfterMission 0
scalar OsgEarthNet.uav[36] utilizationCountIdleState 45
scalar OsgEarthNet.uav[36] utilizationFail 0
scalar OsgEarthNet.uav[36] simulationTime 259200
scalar OsgEarthNet.uav[37] utilizationSecMission 31618.789196152
scalar OsgEarthNet.uav[37] utilizationSecMaintenance 13699.209803848
scalar OsgEarthNet.uav[37] utilizationSecCharge 166410
scalar OsgEarthNet.uav[37] utilizationSecIdle 47472
scalar OsgEarthNet.uav[37] utilizationEnergyMission 146312.65165805
scalar OsgEarthNet.uav[37] utilizationEnergyMaintenance 64164.316295624
scalar OsgEarthNet.uav[37] utilizationEnergyCharge 208405.50585938
scalar OsgEarthNet.uav[37] utilizationEnergyOverdrawMission 0
scalar OsgEarthNet.uav[37] utilizationEnergyOverdrawMaintenance 0
scalar OsgEarthNet.uav[37] utilizationCountMissions 45
scalar OsgEarthNet.uav[37] utilizationCountManeuversMission 511
scalar OsgEarthNet.uav[37] utilizationCountManeuversMaintenance 90
scalar OsgEarthNet.uav[37] utilizationCountChargeState 45
scalar OsgEarthNet.uav[37] utilizationCountOverdrawnAfterMission 0
scalar OsgEarthNet.uav[37] utilizationCountIdleState 46
scalar OsgEarthNet.uav[37] utilizationFail 0
scalar OsgEarthNet.uav[37] simulationTime 259200
scalar OsgEarthNet.uav[38] utilizationSecMission 24043.347632058
scalar OsgEarthNet.uav[38] utilizationSecMaintenance 10371.195714538
scalar OsgEarthNet.uav[38] utilizationSecCharge 125860
scalar OsgEarthNet.uav[38] utilizationSecIdle 98925.455653403
scalar OsgEarthNet.uav[38] utilizationEnergyMission 110604.66499432
scalar OsgEarthNet.uav[38] utilizationEnergyMaintenance 48583.361499786
scalar OsgEarthNet.uav[38] utilizationEnergyCharge 157347.67626953
scalar OsgEarthNet.uav[38] utilizationEnergyOverdrawMission 0
scalar OsgEarthNet.uav[38] utilizationEnergyOverdrawMaintenance 0
scalar OsgEarthNet.uav[38] utilizationCountMissions 34
scalar OsgEarthNet.uav[38] utilizationCountManeuversMission 392
scalar OsgEarthNet.uav[38] utilizationCountManeuversMaintenance 69
scalar OsgEarthNet.uav[38] utilizationCountChargeState 34
scalar OsgEarthNet.uav[38] utilizationCountOverdrawnAfterMission 0
scalar OsgEarthNet.uav[38] utilizationCountIdleState 35
scalar OsgEarthNet.uav[38] utilizationFail 0
scalar OsgEarthNet.uav[38] simulationTime 259200
scalar OsgEarthNet.uav[39] utilizationSecMission 24141.490417456
scalar OsgEarthNet.uav[39] utilizationSecMaintenance 12200.881464403
scalar OsgEarthNet.uav[39] utilizationSecCharge 131174.86114421
scalar OsgEarthNet.uav[39] utilizationSecIdle 91682.765973934
scalar OsgEarthNet.uav[39] utilizationEnergyMission 111193.72137833
scalar OsgEarthNet.uav[39] utilizationEnergyMaintenance 57001.888561249
scalar OsgEarthNet.uav[39] utilizationEnergyCharge 164872.27722168
scalar OsgEarthNet.uav[39] utilizationEnergyOverdrawMission 0
scalar OsgEarthNet.uav[39] utilizationEnergyOverdrawMaintenance 0
scalar OsgEarthNet.uav[39] utilizationCountMissions 36
scalar OsgEarthNet.uav[39] utilizationCountManeuversMission 391
scalar OsgEarthNet.uav[39] utilizationCountManeuversMaintenance 72
scalar OsgEarthNet.uav[39] utilizationCountChargeState 36
scalar OsgEarthNet.uav[39] utilizationCountOverdrawnAfterMission 0
scalar OsgEarthNet.uav[39] utilizationCountIdleState 36
scalar OsgEarthNet.uav[39] utilizationFail 0
scalar OsgEarthNet.uav[39] simulationTime 259200
scalar OsgEarthNet.uav[40] utilizationSecMission 836.77707522227
scalar OsgEarthNet.uav[40] utilizationSecMaintenance 217.0347828456
scalar OsgEarthNet.uav[40] utilizationSecCharge 3870
scalar OsgEarthNet.uav[40] utilizationSecIdle 254276.18714193
scalar OsgEarthNet.uav[40] utilizationEnergyMission 3924.4885253906
scalar OsgEarthNet.uav[40] utilizationEnergyMaintenance 1009.5841789246
scalar OsgEarthNet.uav[40] utilizationEnergyCharge 4934.0747070312
scalar OsgEarthNet.uav[40] utilizationEnergyOverdrawMission 0
scalar OsgEarthNet.uav[40] utilizationEnergyOverdrawMaintenance 0
scalar OsgEarthNet.uav[40] utilizationCountMissions 1
scalar OsgEarthNet.uav[40] utilizationCountManeuversMission 13
scalar OsgEarthNet.uav[40] utilizationCountManeuversMaintenance 2
scalar OsgEarthNet.uav[40] utilizationCountChargeState 1
scalar OsgEarthNet.uav[40] utilizationCountOverdrawnAfterMission 0
scalar OsgEarthNet.uav[40] utilizationCountIdleState 2
scalar OsgEarthNet.uav[40] utilizationFail 0
scalar OsgEarthNet.uav[40] simulationTime 259200
scalar OsgEarthNet.uav[41] utilizationSecMission 28746.455409262
scalar OsgEarthNet.uav[41] utilizationSecMaintenance 14362.462927752
scalar OsgEarthNet.uav[41] utilizationSecCharge 159916.11923252
scalar OsgEarthNet.uav[41] utilizationSecIdle 56174.961430471
scalar OsgEarthNet.uav[41] utilizationEnergyMission 133055.93453217
scalar OsgEarthNet.uav[41] utilizationEnergyMaintenance 67785.790969849
scalar OsgEarthNet.uav[41] utilizationEnergyCharge 201112.49902344
scalar OsgEarthNet.uav[41] utilizationEnergyOverdrawMission 0
scalar OsgEarthNet.uav[41] utilizationEnergyOverdrawMaintenance 0
scalar OsgEarthNet.uav[41] utilizationCountMissions 43
scalar OsgEarthNet.uav[41] utilizationCountManeuversMission 468
scalar OsgEarthNet.uav[41] utilizationCountManeuversMaintenance 86
scalar OsgEarthNet.uav[41] utilizationCountChargeState 43
scalar OsgEarthNet.uav[41] utilizationCountOverdrawnAfterMission 0
scalar OsgEarthNet.uav[41] utilizationCountIdleState 43
scalar OsgEarthNet.uav[41] utilizationFail 0
scalar OsgEarthNet.uav[41] simulationTime 259200
scalar OsgEarthNet.uav[42] utilizationSecMission 621.17604176187
scalar OsgEarthNet.uav[42] utilizationSecMaintenance 313.76167006775
scalar OsgEarthNet.uav[42] utilizationSecCharge 3580
scalar OsgEarthNet.uav[42] utilizationSecIdle 254685.06128817
scalar OsgEarthNet.uav[42] utilizationEnergyMission 2830.0074615479
scalar OsgEarthNet.uav[42] utilizationEnergyMaintenance 1544.8319206238
scalar OsgEarthNet.uav[42] utilizationEnergyCharge 4374.8393554688
scalar OsgEarthNet.uav[42] utilizationEnergyOverdrawMission 0
scalar OsgEarthNet.uav[42] utilizationEnergyOverdrawMaintenance 0
scalar OsgEarthNet.uav[42] utilizationCountMissions 1
scalar OsgEarthNet.uav[42] utilizationCountManeuversMission 12
scalar OsgEarthNet.uav[42] utilizationCountManeuversMaintenance 2
scalar OsgEarthNet.uav[42] utilizationCountChargeState 1
scalar OsgEarthNet.uav[42] utilizationCountOverdrawnAfterMission 0
scalar OsgEarthNet.uav[42] utilizationCountIdleState 2
scalar OsgEarthNet.uav[42] utilizationFail 0
scalar OsgEarthNet.uav[42] simulationTime 259200
scalar OsgEarthNet.uav[43] utilizationSecMission 750.20472747826
scalar OsgEarthNet.uav[43] utilizationSecMaintenance 335.16822070369
scalar OsgEarthNet.uav[43] utilizationSecCharge 3910
scalar OsgEarthNet.uav[43] utilizationSecIdle 254204.62605182
scalar OsgEarthNet.uav[43] utilizationEnergyMission 3348.7121810913
scalar OsgEarthNet.uav[43] utilizationEnergyMaintenance 1654.1551017761
scalar OsgEarthNet.uav[43] utilizationEnergyCharge 5002.8637695312
scalar OsgEarthNet.uav[43] utilizationEnergyOverdrawMission 0
scalar OsgEarthNet.uav[43] utilizationEnergyOverdrawMaintenance 0
scalar OsgEarthNet.uav[43] utilizationCountMissions 1
scalar OsgEarthNet.uav[43] utilizationCountManeuversMission 11
scalar OsgEarthNet.uav[43] utilizationCountManeuversMaintenance 2
scalar OsgEarthNet.uav[43] utilizationCountChargeState 1
scalar OsgEarthNet.uav[43] utilizationCountOverdrawnAfterMission 0
scalar OsgEarthNet.uav[43] utilizationCountIdleState 2
scalar OsgEarthNet.uav[43] utilizationFail 0
scalar OsgEarthNet.uav[43] simulationTime 259200
scalar OsgEarthNet.uav[44] utilizationSecMission 528.55000878666
scalar OsgEarthNet.uav[44] utilizationSecMaintenance 478.92797493542
scalar OsgEarthNet.uav[44] utilizationSecCharge 3720
scalar OsgEarthNet.uav[44] utilizationSecIdle 254472.52101628
scalar OsgEarthNet.uav[44] utilizationEnergyMission 2622.9694366455
scalar OsgEarthNet.uav[44] utilizationEnergyMaintenance 2062.6526107788
scalar OsgEarthNet.uav[44] utilizationEnergyCharge 4685.6225585938
scalar OsgEarthNet.uav[44] utilizationEnergyOverdrawMission 0
scalar OsgEarthNet.uav[44] utilizationEnergyOverdrawMaintenance 0
scalar OsgEarthNet.uav[44] utilizationCountMissions 1
scalar OsgEarthNet.uav[44] utilizationCountManeuversMission 10
scalar OsgEarthNet.uav[44] utilizationCountManeuversMaintenance 2
scalar OsgEarthNet.uav[44] utilizationCountChargeState 1
scalar OsgEarthNet.uav[44] utilizationCountOverdrawnAfterMission 0
scalar OsgEarthNet.uav[44] utilizationCountIdleState 2
scalar OsgEarthNet.uav[44] utilizationFail 0
scalar OsgEarthNet.uav[44] simulationTime 259200
scalar OsgEarthNet.uav[45] utilizationSecMission 694.00169469977
scalar OsgEarthNet.uav[45] utilizationSecMaintenance 338.49695459722
scalar OsgEarthNet.uav[45] utilizationSecCharge 3770
scalar OsgEarthNet.uav[45] utilizationSecIdle 254397.5003507
scalar OsgEarthNet.uav[45] utilizationEnergyMission 3111.9096069336
scalar OsgEarthNet.uav[45] utilizationEnergyMaintenance 1590.2909660339
scalar OsgEarthNet.uav[45] utilizationEnergyCharge 4702.2036132812
scalar OsgEarthNet.uav[45] utilizationEnergyOverdrawMission 0
scalar OsgEarthNet.uav[45] utilizationEnergyOverdrawMaintenance 0
scalar OsgEarthNet.uav[45] utilizationCountMissions 1
scalar OsgEarthNet.uav[45] utilizationCountManeuversMission 13
scalar OsgEarthNet.uav[45] utilizationCountManeuversMaintenance 2
scalar OsgEarthNet.uav[45] utilizationCountChargeState 1
scalar OsgEarthNet.uav[45] utilizationCountOverdrawnAfterMission 0
scalar OsgEarthNet.uav[45] utilizationCountIdleState 2
scalar OsgEarthNet.uav[45] utilizationFail 0
scalar OsgEarthNet.uav[45] simulationTime 259200
scalar OsgEarthNet.uav[46] utilizationSecMission 836.77707522227
scalar OsgEarthNet.uav[46] utilizationSecMaintenance 217.0347828456
scalar OsgEarthNet.uav[46] utilizationSecCharge 3640
scalar OsgEarthNet.uav[46] utilizationSecIdle 254506.18714193
scalar OsgEarthNet.uav[46] utilizationEnergyMission 3462.2671966553
scalar OsgEarthNet.uav[46] utilizationEnergyMaintenance 1046.3362846375
scalar OsgEarthNet.uav[46] utilizationEnergyCharge 4508.6064453125
scalar OsgEarthNet.uav[46] utilizationEnergyOverdrawMission 0
scalar OsgEarthNet.uav[46] utilizationEnergyOverdrawMaintenance 0
scalar OsgEarthNet.uav[46] utilizationCountMissions 1
scalar OsgEarthNet.uav[46] utilizationCountManeuversMission 13
scalar OsgEarthNet.uav[46] utilizationCountManeuversMaintenance 2
scalar OsgEarthNet.uav[46] utilizationCountChargeState 1
scalar OsgEarthNet.uav[46] utilizationCountOverdrawnAfterMission 0
scalar OsgEarthNet.uav[46] utilizationCountIdleState 2
scalar OsgEarthNet.uav[46] utilizationFail 0
scalar OsgEarthNet.uav[46] simulationTime 259200
scalar OsgEarthNet.uav[47] utilizationSecMission 28000.18230308
scalar OsgEarthNet.uav[47] utilizationSecMaintenance 13090.327699749
scalar OsgEarthNet.uav[47] utilizationSecCharge 150676.80556361
scalar OsgEarthNet.uav[47] utilizationSecIdle 67432.68343356
scalar OsgEarthNet.uav[47] utilizationEnergyMission 128876.51618958
scalar OsgEarthNet.uav[47] utilizationEnergyMaintenance 61469.658714294
scalar OsgEarthNet.uav[47] utilizationEnergyCharge 189650.44555664
scalar OsgEarthNet.uav[47] utilizationEnergyOverdrawMission 0
scalar OsgEarthNet.uav[47] utilizationEnergyOverdrawMaintenance 0
scalar OsgEarthNet.uav[47] utilizationCountMissions 41
scalar OsgEarthNet.uav[47] utilizationCountManeuversMission 463
scalar OsgEarthNet.uav[47] utilizationCountManeuversMaintenance 82
scalar OsgEarthNet.uav[47] utilizationCountChargeState 41
scalar OsgEarthNet.uav[47] utilizationCountOverdrawnAfterMission 0
scalar OsgEarthNet.uav[47] utilizationCountIdleState 41
scalar OsgEarthNet.uav[47] utilizationFail 0
scalar OsgEarthNet.uav[47] simulationTime 259200
scalar OsgEarthNet.uav[48] utilizationSecMission 17215.557508381
scalar OsgEarthNet.uav[48] utilizationSecMaintenance 7394.2665591184
scalar OsgEarthNet.uav[48] utilizationSecCharge 88673.315886326
scalar OsgEarthNet.uav[48] utilizationSecIdle 145916.85904617
scalar OsgEarthNet.uav[48] utilizationEnergyMission 79938.787109375
scalar OsgEarthNet.uav[48] utilizationEnergyMaintenance 34266.128265381
scalar OsgEarthNet.uav[48] utilizationEnergyCharge 112482.5234375
scalar OsgEarthNet.uav[48] utilizationEnergyOverdrawMission 0
scalar OsgEarthNet.uav[48] utilizationEnergyOverdrawMaintenance 0
scalar OsgEarthNet.uav[48] utilizationCountMissions 24
scalar OsgEarthNet.uav[48] utilizationCountManeuversMission 268
scalar OsgEarthNet.uav[48] utilizationCountManeuversMaintenance 48
scalar OsgEarthNet.uav[48] utilizationCountChargeState 24
scalar OsgEarthNet.uav[48] utilizationCountOverdrawnAfterMission 0
scalar OsgEarthNet.uav[48] utilizationCountIdleState 24
scalar OsgEarthNet.uav[48] utilizationFail 0
scalar OsgEarthNet.uav[48] simulationTime 259200
scalar OsgEarthNet.uav[49] utilizationSecMission 836.77707522227
scalar OsgEarthNet.uav[49] utilizationSecMaintenance 217.0347828456
scalar OsgEarthNet.uav[49] utilizationSecCharge 3820
scalar OsgEarthNet.uav[49] utilizationSecIdle 254326.18714193
scalar OsgEarthNet.uav[49] utilizationEnergyMission 3849.8452453613
scalar OsgEarthNet.uav[49] utilizationEnergyMaintenance 991.25761032105
scalar OsgEarthNet.uav[49] utilizationEnergyCharge 4841.103515625
scalar OsgEarthNet.uav[49] utilizationEnergyOverdrawMission 0
scalar OsgEarthNet.uav[49] utilizationEnergyOverdrawMaintenance 0
scalar OsgEarthNet.uav[49] utilizationCountMissions 1
scalar OsgEarthNet.uav[49] utilizationCountManeuversMission 13
scalar OsgEarthNet.uav[49] utilizationCountManeuversMaintenance 2
scalar OsgEarthNet.uav[49] utilizationCountChargeState 1
scalar OsgEarthNet.uav[49] utilizationCountOverdrawnAfterMission 0
scalar OsgEarthNet.uav[49] utilizationCountIdleState 2
scalar OsgEarthNet.uav[49] utilizationFail 0
scalar OsgEarthNet.uav[49] simulationTime 259200
scalar OsgEarthNet.uav[50] utilizationSecMission 557.08549766445
scalar OsgEarthNet.uav[50] utilizationSecMaintenance 423.57904092458
scalar OsgEarthNet.uav[50] utilizationSecCharge 3780
scalar OsgEarthNet.uav[50] utilizationSecIdle 254439.33446141
scalar OsgEarthNet.uav[50] utilizationEnergyMission 2707.190322876
scalar OsgEarthNet.uav[50] utilizationEnergyMaintenance 2061.8875961304
scalar OsgEarthNet.uav[50] utilizationEnergyCharge 4716.8125
scalar OsgEarthNet.uav[50] utilizationEnergyOverdrawMission 0
scalar OsgEarthNet.uav[50] utilizationEnergyOverdrawMaintenance 0
scalar OsgEarthNet.uav[50] utilizationCountMissions 1
scalar OsgEarthNet.uav[50] utilizationCountManeuversMission 9
scalar OsgEarthNet.uav[50] utilizationCountManeuversMaintenance 2
scalar OsgEarthNet.uav[50] utilizationCountChargeState 1
scalar OsgEarthNet.uav[50] utilizationCountOverdrawnAfterMission 0
scalar OsgEarthNet.uav[50] utilizationCountIdleState 2
scalar OsgEarthNet.uav[50] utilizationFail 0
scalar OsgEarthNet.uav[50] simulationTime 259200
scalar OsgEarthNet.uav[51] utilizationSecMission 15105.000593766
scalar OsgEarthNet.uav[51] utilizationSecMaintenance 7645.1548288027
scalar OsgEarthNet.uav[51] utilizationSecCharge 85380
scalar OsgEarthNet.uav[51] utilizationSecIdle 151069.84357743
scalar OsgEarthNet.uav[51] utilizationEnergyMission 69972.196914673
scalar OsgEarthNet.uav[51] utilizationEnergyMaintenance 36543.606216431
scalar OsgEarthNet.uav[51] utilizationEnergyCharge 106736.84423828
scalar OsgEarthNet.uav[51] utilizationEnergyOverdrawMission 0
scalar OsgEarthNet.uav[51] utilizationEnergyOverdrawMaintenance 0
scalar OsgEarthNet.uav[51] utilizationCountMissions 23
scalar OsgEarthNet.uav[51] utilizationCountManeuversMission 265
scalar OsgEarthNet.uav[51] utilizationCountManeuversMaintenance 46
scalar OsgEarthNet.uav[51] utilizationCountChargeState 23
scalar OsgEarthNet.uav[51] utilizationCountOverdrawnAfterMission 0
scalar OsgEarthNet.uav[51] utilizationCountIdleState 24
scalar OsgEarthNet.uav[51] utilizationFail 0
scalar OsgEarthNet.uav[51] simulationTime 259200
scalar OsgEarthNet.uav[52] utilizationSecMission 27030.860554024
scalar OsgEarthNet.uav[52] utilizationSecMaintenance 13134.370364662
scalar OsgEarthNet.uav[52] utilizationSecCharge 148538.32050884
scalar OsgEarthNet.uav[52] utilizationSecIdle 70496.447572472
scalar OsgEarthNet.uav[52] utilizationEnergyMission 125335.35882568
scalar OsgEarthNet.uav[52] utilizationEnergyMaintenance 61600.398269653
scalar OsgEarthNet.uav[52] utilizationEnergyCharge 186855.34521484
scalar OsgEarthNet.uav[52] utilizationEnergyOverdrawMission 0
scalar OsgEarthNet.uav[52] utilizationEnergyOverdrawMaintenance 0
scalar OsgEarthNet.uav[52] utilizationCountMissions 40
scalar OsgEarthNet.uav[52] utilizationCountManeuversMission 439
scalar OsgEarthNet.uav[52] utilizationCountManeuversMaintenance 80
scalar OsgEarthNet.uav[52] utilizationCountChargeState 40
scalar OsgEarthNet.uav[52] utilizationCountOverdrawnAfterMission 0
scalar OsgEarthNet.uav[52] utilizationCountIdleState 40
scalar OsgEarthNet.uav[52] utilizationFail 0
scalar OsgEarthNet.uav[52] simulationTime 259200
scalar OsgEarthNet.uav[53] utilizationSecMission 760.62515258028
scalar OsgEarthNet.uav[53] utilizationSecMaintenance 291.95923480269
scalar OsgEarthNet.uav[53] utilizationSecCharge 3780
scalar OsgEarthNet.uav[53] utilizationSecIdle 254367.41461262
scalar OsgEarthNet.uav[53] utilizationEnergyMission 3408.1541748047
scalar OsgEarthNet.uav[53] utilizationEnergyMaintenance 1381.9540023804
scalar OsgEarthNet.uav[53] utilizationEnergyCharge 4790.1088867188
scalar OsgEarthNet.uav[53] utilizationEnergyOverdrawMission 0
scalar OsgEarthNet.uav[53] utilizationEnergyOverdrawMaintenance 0
scalar OsgEarthNet.uav[53] utilizationCountMissions 1
scalar OsgEarthNet.uav[53] utilizationCountManeuversMission 12
scalar OsgEarthNet.uav[53] utilizationCountManeuversMaintenance 2
scalar OsgEarthNet.uav[53] utilizationCountChargeState 1
scalar OsgEarthNet.uav[53] utilizationCountOverdrawnAfterMission 0
scalar OsgEarthNet.uav[53] utilizationCountIdleState 2
scalar OsgEarthNet.uav[53] utilizationFail 0
scalar OsgEarthNet.uav[53] simulationTime 259200
scalar OsgEarthNet.uav[54] utilizationSecMission 25489.214671165
scalar OsgEarthNet.uav[54] utilizationSecMaintenance 11871.121664863
scalar OsgEarthNet.uav[54] utilizationSecCharge 137880
scalar OsgEarthNet.uav[54] utilizationSecIdle 83959.662663972
scalar OsgEarthNet.uav[54] utilizationEnergyMission 117594.41077805
scalar OsgEarthNet.uav[54] utilizationEnergyMaintenance 55887.5391922
scalar OsgEarthNet.uav[54] utilizationEnergyCharge 173260.30249023
scalar OsgEarthNet.uav[54] utilizationEnergyOverdrawMission 0
scalar OsgEarthNet.uav[54] utilizationEnergyOverdrawMaintenance 0
scalar OsgEarthNet.uav[54] utilizationCountMissions 37
scalar OsgEarthNet.uav[54] utilizationCountManeuversMission 408
scalar OsgEarthNet.uav[54] utilizationCountManeuversMaintenance 74
scalar OsgEarthNet.uav[54] utilizationCountChargeState 37
scalar OsgEarthNet.uav[54] utilizationCountOverdrawnAfterMission 0
scalar OsgEarthNet.uav[54] utilizationCountIdleState 38
scalar OsgEarthNet.uav[54] utilizationFail 0
scalar OsgEarthNet.uav[54] simulationTime 259200
scalar OsgEarthNet.uav[55] utilizationSecMission 887.1741082606
scalar OsgEarthNet.uav[55] utilizationSecMaintenance 181.20511066264
scalar OsgEarthNet.uav[55] utilizationSecCharge 3800
scalar OsgEarthNet.uav[55] utilizationSecIdle 254331.61978108
scalar OsgEarthNet.uav[55] utilizationEnergyMission 3898.8495635986
scalar OsgEarthNet.uav[55] utilizationEnergyMaintenance 885.85227584839
scalar OsgEarthNet.uav[55] utilizationEnergyCharge 4759.03125
scalar OsgEarthNet.uav[55] utilizationEnergyOverdrawMission 0
scalar OsgEarthNet.uav[55] utilizationEnergyOverdrawMaintenance 0
scalar OsgEarthNet.uav[55] utilizationCountMissions 1
scalar OsgEarthNet.uav[55] utilizationCountManeuversMission 14
scalar OsgEarthNet.uav[55] utilizationCountManeuversMaintenance 2
scalar OsgEarthNet.uav[55] utilizationCountChargeState 1
scalar OsgEarthNet.uav[55] utilizationCountOverdrawnAfterMission 0
scalar OsgEarthNet.uav[55] utilizationCountIdleState 2
scalar OsgEarthNet.uav[55] utilizationFail 0
scalar OsgEarthNet.uav[55] simulationTime 259200
scalar OsgEarthNet.uav[56] utilizationSecMission 760.62515258028
scalar OsgEarthNet.uav[56] utilizationSecMaintenance 291.95923480269
scalar OsgEarthNet.uav[56] utilizationSecCharge 3860
scalar OsgEarthNet.uav[56] utilizationSecIdle 254287.41461262
scalar OsgEarthNet.uav[56] utilizationEnergyMission 3480.3166503906
scalar OsgEarthNet.uav[56] utilizationEnergyMaintenance 1412.9759750366
scalar OsgEarthNet.uav[56] utilizationEnergyCharge 4893.2919921875
scalar OsgEarthNet.uav[56] utilizationEnergyOverdrawMission 0
scalar OsgEarthNet.uav[56] utilizationEnergyOverdrawMaintenance 0
scalar OsgEarthNet.uav[56] utilizationCountMissions 1
scalar OsgEarthNet.uav[56] utilizationCountManeuversMission 12
scalar OsgEarthNet.uav[56] utilizationCountManeuversMaintenance 2
scalar OsgEarthNet.uav[56] utilizationCountChargeState 1
scalar OsgEarthNet.uav[56] utilizationCountOverdrawnAfterMission 0
scalar OsgEarthNet.uav[56] utilizationCountIdleState 2
scalar OsgEarthNet.uav[56] utilizationFail 0
scalar OsgEarthNet.uav[56] simulationTime 259200
scalar OsgEarthNet.uav[57] utilizationSecMission 494.14522745751
scalar OsgEarthNet.uav[57] utilizationSecMaintenance 475.67121193677
scalar OsgEarthNet.uav[57] utilizationSecCharge 3780
scalar OsgEarthNet.uav[57] utilizationSecIdle 254450.18256061
scalar OsgEarthNet.uav[57] utilizationEnergyMission 2340.9686737061
scalar OsgEarthNet.uav[57] utilizationEnergyMaintenance 2330.0483512878
scalar OsgEarthNet.uav[57] utilizationEnergyCharge 4737.7075195312
scalar OsgEarthNet.uav[57] utilizationEnergyOverdrawMission 0
scalar OsgEarthNet.uav[57] utilizationEnergyOverdrawMaintenance 0
scalar OsgEarthNet.uav[57] utilizationCountMissions 1
scalar OsgEarthNet.uav[57] utilizationCountManeuversMission 8
scalar OsgEarthNet.uav[57] utilizationCountManeuversMaintenance 2
scalar OsgEarthNet.uav[57] utilizationCountChargeState 1
scalar OsgEarthNet.uav[57] utilizationCountOverdrawnAfterMission 0
scalar OsgEarthNet.uav[57] utilizationCountIdleState 2
scalar OsgEarthNet.uav[57] utilizationFail 0
scalar OsgEarthNet.uav[57] simulationTime 259200
scalar OsgEarthNet.uav[58] utilizationSecMission 8120.6203505386
scalar OsgEarthNet.uav[58] utilizationSecMaintenance 3826.8146561661
scalar OsgEarthNet.uav[58] utilizationSecCharge 44720
scalar OsgEarthNet.uav[58] utilizationSecIdle 202532.5639933
scalar OsgEarthNet.uav[58] utilizationEnergyMission 38412.789611816
scalar OsgEarthNet.uav[58] utilizationEnergyMaintenance 17715.361385345
scalar OsgEarthNet.uav[58] utilizationEnergyCharge 56037.544433594
scalar OsgEarthNet.uav[58] utilizationEnergyOverdrawMission 0
scalar OsgEarthNet.uav[58] utilizationEnergyOverdrawMaintenance 0
scalar OsgEarthNet.uav[58] utilizationCountMissions 12
scalar OsgEarthNet.uav[58] utilizationCountManeuversMission 135
scalar OsgEarthNet.uav[58] utilizationCountManeuversMaintenance 24
scalar OsgEarthNet.uav[58] utilizationCountChargeState 12
scalar OsgEarthNet.uav[58] utilizationCountOverdrawnAfterMission 0
scalar OsgEarthNet.uav[58] utilizationCountIdleState 13
scalar OsgEarthNet.uav[58] utilizationFail 0
scalar OsgEarthNet.uav[58] simulationTime 259200
scalar OsgEarthNet.uav[59] utilizationSecMission 760.62515258028
scalar OsgEarthNet.uav[59] utilizationSecMaintenance 291.95923480269
scalar OsgEarthNet.uav[59] utilizationSecCharge 3800
scalar OsgEarthNet.uav[59] utilizationSecIdle 254347.41461262
scalar OsgEarthNet.uav[59] utilizationEnergyMission 3457.7321777344
scalar OsgEarthNet.uav[59] utilizationEnergyMaintenance 1322.097038269
scalar OsgEarthNet.uav[59] utilizationEnergyCharge 4779.826171875
scalar OsgEarthNet.uav[59] utilizationEnergyOverdrawMission 0
scalar OsgEarthNet.uav[59] utilizationEnergyOverdrawMaintenance 0
scalar OsgEarthNet.uav[59] utilizationCountMissions 1
scalar OsgEarthNet.uav[59] utilizationCountManeuversMission 12
scalar OsgEarthNet.uav[59] utilizationCountManeuversMaintenance 2
scalar OsgEarthNet.uav[59] utilizationCountChargeState 1
scalar OsgEarthNet.uav[59] utilizationCountOverdrawnAfterMission 0
scalar OsgEarthNet.uav[59] utilizationCountIdleState 2
scalar OsgEarthNet.uav[59] utilizationFail 0
scalar OsgEarthNet.uav[59] simulationTime 259200
scalar OsgEarthNet.uav[60] utilizationSecMission 23274.556689134
scalar OsgEarthNet.uav[60] utilizationSecMaintenance 11043.547159344
scalar OsgEarthNet.uav[60] utilizationSecCharge 126110.0982605
scalar OsgEarthNet.uav[60] utilizationSecIdle 98771.796891019
scalar OsgEarthNet.uav[60] utilizationEnergyMission 108552.96591187
scalar OsgEarthNet.uav[60] utilizationEnergyMaintenance 51663.730350494
scalar OsgEarthNet.uav[60] utilizationEnergyCharge 159560.77050781
scalar OsgEarthNet.uav[60] utilizationEnergyOverdrawMission 0
scalar OsgEarthNet.uav[60] utilizationEnergyOverdrawMaintenance 0
scalar OsgEarthNet.uav[60] utilizationCountMissions 34
scalar OsgEarthNet.uav[60] utilizationCountManeuversMission 390
scalar OsgEarthNet.uav[60] utilizationCountManeuversMaintenance 68
scalar OsgEarthNet.uav[60] utilizationCountChargeState 34
scalar OsgEarthNet.uav[60] utilizationCountOverdrawnAfterMission 0
scalar OsgEarthNet.uav[60] utilizationCountIdleState 34
scalar OsgEarthNet.uav[60] utilizationFail 0
scalar OsgEarthNet.uav[60] simulationTime 259200
scalar OsgEarthNet.uav[61] utilizationSecMission 553.12566654921
scalar OsgEarthNet.uav[61] utilizationSecMaintenance 489.82638271256
scalar OsgEarthNet.uav[61] utilizationSecCharge 3790
scalar OsgEarthNet.uav[61] utilizationSecIdle 254367.04695074
scalar OsgEarthNet.uav[61] utilizationEnergyMission 2429.7498092651
scalar OsgEarthNet.uav[61] utilizationEnergyMaintenance 2216.9177970886
scalar OsgEarthNet.uav[61] utilizationEnergyCharge 4766.1875
scalar OsgEarthNet.uav[61] utilizationEnergyOverdrawMission 0
scalar OsgEarthNet.uav[61] utilizationEnergyOverdrawMaintenance 0
scalar OsgEarthNet.uav[61] utilizationCountMissions 1
scalar OsgEarthNet.uav[61] utilizationCountManeuversMission 9
scalar OsgEarthNet.uav[61] utilizationCountManeuversMaintenance 2
scalar OsgEarthNet.uav[61] utilizationCountChargeState 1
scalar OsgEarthNet.uav[61] utilizationCountOverdrawnAfterMission 0
scalar OsgEarthNet.uav[61] utilizationCountIdleState 2
scalar OsgEarthNet.uav[61] utilizationFail 0
scalar OsgEarthNet.uav[61] simulationTime 259200
scalar OsgEarthNet.uav[62] utilizationSecMission 887.1741082606
scalar OsgEarthNet.uav[62] utilizationSecMaintenance 181.20511066264
scalar OsgEarthNet.uav[62] utilizationSecCharge 3820
scalar OsgEarthNet.uav[62] utilizationSecIdle 254311.61978108
scalar OsgEarthNet.uav[62] utilizationEnergyMission 4050.0092926025
scalar OsgEarthNet.uav[62] utilizationEnergyMaintenance 873.55344772339
scalar OsgEarthNet.uav[62] utilizationEnergyCharge 4788.5698242188
scalar OsgEarthNet.uav[62] utilizationEnergyOverdrawMission 0
scalar OsgEarthNet.uav[62] utilizationEnergyOverdrawMaintenance 0
scalar OsgEarthNet.uav[62] utilizationCountMissions 1
scalar OsgEarthNet.uav[62] utilizationCountManeuversMission 14
scalar OsgEarthNet.uav[62] utilizationCountManeuversMaintenance 2
scalar OsgEarthNet.uav[62] utilizationCountChargeState 1
scalar OsgEarthNet.uav[62] utilizationCountOverdrawnAfterMission 0
scalar OsgEarthNet.uav[62] utilizationCountIdleState 2
scalar OsgEarthNet.uav[62] utilizationFail 0
scalar OsgEarthNet.uav[62] simulationTime 259200
scalar OsgEarthNet.uav[63] utilizationSecMission 760.62515258028
scalar OsgEarthNet.uav[63] utilizationSecMaintenance 291.95923480269
scalar OsgEarthNet.uav[63] utilizationSecCharge 3850
scalar OsgEarthNet.uav[63] utilizationSecIdle 254297.41461262
scalar OsgEarthNet.uav[63] utilizationEnergyMission 3379.7881469727
scalar OsgEarthNet.uav[63] utilizationEnergyMaintenance 1528.8517074585
scalar OsgEarthNet.uav[63] utilizationEnergyCharge 4908.6430664062
scalar OsgEarthNet.uav[63] utilizationEnergyOverdrawMission 0
scalar OsgEarthNet.uav[63] utilizationEnergyOverdrawMaintenance 0
scalar OsgEarthNet.uav[63] utilizationCountMissions 1
scalar OsgEarthNet.uav[63] utilizationCountManeuversMission 12
scalar OsgEarthNet.uav[63] utilizationCountManeuversMaintenance 2
scalar OsgEarthNet.uav[63] utilizationCountChargeState 1
scalar OsgEarthNet.uav[63] utilizationCountOverdrawnAfterMission 0
scalar OsgEarthNet.uav[63] utilizationCountIdleState 2
scalar OsgEarthNet.uav[63] utilizationFail 0
scalar OsgEarthNet.uav[63] simulationTime 259200
scalar OsgEarthNet.uav[64] utilizationSecMission 18219.986001261
scalar OsgEarthNet.uav[64] utilizationSecMaintenance 10793.268292471
scalar OsgEarthNet.uav[64] utilizationSecCharge 107432.36608013
scalar OsgEarthNet.uav[64] utilizationSecIdle 122754.37862614
scalar OsgEarthNet.uav[64] utilizationEnergyMission 84394.796806335
scalar OsgEarthNet.uav[64] utilizationEnergyMaintenance 51213.027828217
scalar OsgEarthNet.uav[64] utilizationEnergyCharge 135386.71484375
scalar OsgEarthNet.uav[64] utilizationEnergyOverdrawMission 0
scalar OsgEarthNet.uav[64] utilizationEnergyOverdrawMaintenance 0
scalar OsgEarthNet.uav[64] utilizationCountMissions 29
scalar OsgEarthNet.uav[64] utilizationCountManeuversMission 305
scalar OsgEarthNet.uav[64] utilizationCountManeuversMaintenance 58
scalar OsgEarthNet.uav[64] utilizationCountChargeState 29
scalar OsgEarthNet.uav[64] utilizationCountOverdrawnAfterMission 0
scalar OsgEarthNet.uav[64] utilizationCountIdleState 29
scalar OsgEarthNet.uav[64] utilizationFail 0
scalar OsgEarthNet.uav[64] simulationTime 259200
scalar OsgEarthNet.uav[65] utilizationSecMission 30959.387841521
scalar OsgEarthNet.uav[65] utilizationSecMaintenance 12099.158199762
scalar OsgEarthNet.uav[65] utilizationSecCharge 156490
scalar OsgEarthNet.uav[65] utilizationSecIdle 59651.452958717
[...]
scalar OsgEarthNet.uav[82] utilizationSecIdle 46302
scalar OsgEarthNet.uav[82] utilizationEnergyMission 146082.88692012
scalar OsgEarthNet.uav[82] utilizationEnergyMaintenance 65260.089626312
scalar OsgEarthNet.uav[82] utilizationEnergyCharge 210020.01123047
scalar OsgEarthNet.uav[82] utilizationEnergyOverdrawMission 0
scalar OsgEarthNet.uav[82] utilizationEnergyOverdrawMaintenance 0
scalar OsgEarthNet.uav[82] utilizationCountMissions 45
scalar OsgEarthNet.uav[82] utilizationCountManeuversMission 508
scalar OsgEarthNet.uav[82] utilizationCountManeuversMaintenance 89
scalar OsgEarthNet.uav[82] utilizationCountChargeState 45
scalar OsgEarthNet.uav[82] utilizationCountOverdrawnAfterMission 0
scalar OsgEarthNet.uav[82] utilizationCountIdleState 45
scalar OsgEarthNet.uav[82] utilizationFail 0
scalar OsgEarthNet.uav[82] simulationTime 259200
scalar OsgEarthNet.uav[83] utilizationSecMission 760.62515258028
scalar OsgEarthNet.uav[83] utilizationSecMaintenance 291.95923480269
scalar OsgEarthNet.uav[83] utilizationSecCharge 3870
scalar OsgEarthNet.uav[83] utilizationSecIdle 254277.41461262
scalar OsgEarthNet.uav[83] utilizationEnergyMission 3588.4886169434
scalar OsgEarthNet.uav[83] utilizationEnergyMaintenance 1351.8947372437
scalar OsgEarthNet.uav[83] utilizationEnergyCharge 4940.3862304688
scalar OsgEarthNet.uav[83] utilizationEnergyOverdrawMission 0
scalar OsgEarthNet.uav[83] utilizationEnergyOverdrawMaintenance 0
scalar OsgEarthNet.uav[83] utilizationCountMissions 1
scalar OsgEarthNet.uav[83] utilizationCountManeuversMission 12
scalar OsgEarthNet.uav[83] utilizationCountManeuversMaintenance 2
scalar OsgEarthNet.uav[83] utilizationCountChargeState 1
scalar OsgEarthNet.uav[83] utilizationCountOverdrawnAfterMission 0
scalar OsgEarthNet.uav[83] utilizationCountIdleState 2
scalar OsgEarthNet.uav[83] utilizationFail 0
scalar OsgEarthNet.uav[83] simulationTime 259200
scalar OsgEarthNet.uav[84] utilizationSecMission 24414.173185872
scalar OsgEarthNet.uav[84] utilizationSecMaintenance 12069.339334268
scalar OsgEarthNet.uav[84] utilizationSecCharge 134610
scalar OsgEarthNet.uav[84] utilizationSecIdle 88106.486479859
scalar OsgEarthNet.uav[84] utilizationEnergyMission 113104.60740662
scalar OsgEarthNet.uav[84] utilizationEnergyMaintenance 56903.23160962
scalar OsgEarthNet.uav[84] utilizationEnergyCharge 168941.15234375
scalar OsgEarthNet.uav[84] utilizationEnergyOverdrawMission 0
scalar OsgEarthNet.uav[84] utilizationEnergyOverdrawMaintenance 0
scalar OsgEarthNet.uav[84] utilizationCountMissions 36
scalar OsgEarthNet.uav[84] utilizationCountManeuversMission 397
scalar OsgEarthNet.uav[84] utilizationCountManeuversMaintenance 73
scalar OsgEarthNet.uav[84] utilizationCountChargeState 36
scalar OsgEarthNet.uav[84] utilizationCountOverdrawnAfterMission 0
scalar OsgEarthNet.uav[84] utilizationCountIdleState 37
scalar OsgEarthNet.uav[84] utilizationFail 0
scalar OsgEarthNet.uav[84] simulationTime 259200
scalar OsgEarthNet.uav[85] utilizationSecMission 766.82734763767
scalar OsgEarthNet.uav[85] utilizationSecMaintenance 306.92101052153
scalar OsgEarthNet.uav[85] utilizationSecCharge 3880
scalar OsgEarthNet.uav[85] utilizationSecIdle 254246.25064184
scalar OsgEarthNet.uav[85] utilizationEnergyMission 3514.9614028931
scalar OsgEarthNet.uav[85] utilizationEnergyMaintenance 1400.8734054565
scalar OsgEarthNet.uav[85] utilizationEnergyCharge 4903.5815429688
scalar OsgEarthNet.uav[85] utilizationEnergyOverdrawMission 0
scalar OsgEarthNet.uav[85] utilizationEnergyOverdrawMaintenance 0
scalar OsgEarthNet.uav[85] utilizationCountMissions 1
scalar OsgEarthNet.uav[85] utilizationCountManeuversMission 14
scalar OsgEarthNet.uav[85] utilizationCountManeuversMaintenance 2
scalar OsgEarthNet.uav[85] utilizationCountChargeState 1
scalar OsgEarthNet.uav[85] utilizationCountOverdrawnAfterMission 0
scalar OsgEarthNet.uav[85] utilizationCountIdleState 2
scalar OsgEarthNet.uav[85] utilizationFail 0
scalar OsgEarthNet.uav[85] simulationTime 259200
scalar OsgEarthNet.uav[86] utilizationSecMission 3174.8670503205
scalar OsgEarthNet.uav[86] utilizationSecMaintenance 2032.142818309
scalar OsgEarthNet.uav[86] utilizationSecCharge 19050
scalar OsgEarthNet.uav[86] utilizationSecIdle 234942.98913137
scalar OsgEarthNet.uav[86] utilizationEnergyMission 14990.308235168
scalar OsgEarthNet.uav[86] utilizationEnergyMaintenance 9020.8447341919
scalar OsgEarthNet.uav[86] utilizationEnergyCharge 24011.149414062
scalar OsgEarthNet.uav[86] utilizationEnergyOverdrawMission 0
scalar OsgEarthNet.uav[86] utilizationEnergyOverdrawMaintenance 0
scalar OsgEarthNet.uav[86] utilizationCountMissions 5
scalar OsgEarthNet.uav[86] utilizationCountManeuversMission 54
scalar OsgEarthNet.uav[86] utilizationCountManeuversMaintenance 10
scalar OsgEarthNet.uav[86] utilizationCountChargeState 5
scalar OsgEarthNet.uav[86] utilizationCountOverdrawnAfterMission 0
scalar OsgEarthNet.uav[86] utilizationCountIdleState 6
scalar OsgEarthNet.uav[86] utilizationFail 0
scalar OsgEarthNet.uav[86] simulationTime 259200
scalar OsgEarthNet.uav[87] utilizationSecMission 27401.943965818
scalar OsgEarthNet.uav[87] utilizationSecMaintenance 12682.945902219
scalar OsgEarthNet.uav[87] utilizationSecCharge 148520
scalar OsgEarthNet.uav[87] utilizationSecIdle 70595.109131963
scalar OsgEarthNet.uav[87] utilizationEnergyMission 126787.87553406
scalar OsgEarthNet.uav[87] utilizationEnergyMaintenance 59432.288787842
scalar OsgEarthNet.uav[87] utilizationEnergyCharge 186023.30712891
scalar OsgEarthNet.uav[87] utilizationEnergyOverdrawMission 0
scalar OsgEarthNet.uav[87] utilizationEnergyOverdrawMaintenance 0
scalar OsgEarthNet.uav[87] utilizationCountMissions 40
scalar OsgEarthNet.uav[87] utilizationCountManeuversMission 460
scalar OsgEarthNet.uav[87] utilizationCountManeuversMaintenance 80
scalar OsgEarthNet.uav[87] utilizationCountChargeState 40
scalar OsgEarthNet.uav[87] utilizationCountOverdrawnAfterMission 0
scalar OsgEarthNet.uav[87] utilizationCountIdleState 41
scalar OsgEarthNet.uav[87] utilizationFail 0
scalar OsgEarthNet.uav[87] simulationTime 259200
scalar OsgEarthNet.uav[88] utilizationSecMission 694.00169469977
scalar OsgEarthNet.uav[88] utilizationSecMaintenance 338.49695459722
scalar OsgEarthNet.uav[88] utilizationSecCharge 3840
scalar OsgEarthNet.uav[88] utilizationSecIdle 254327.5003507
scalar OsgEarthNet.uav[88] utilizationEnergyMission 3282.2856903076
scalar OsgEarthNet.uav[88] utilizationEnergyMaintenance 1552.5694084167
scalar OsgEarthNet.uav[88] utilizationEnergyCharge 4834.8583984375
scalar OsgEarthNet.uav[88] utilizationEnergyOverdrawMission 0
scalar OsgEarthNet.uav[88] utilizationEnergyOverdrawMaintenance 0
scalar OsgEarthNet.uav[88] utilizationCountMissions 1
scalar OsgEarthNet.uav[88] utilizationCountManeuversMission 13
scalar OsgEarthNet.uav[88] utilizationCountManeuversMaintenance 2
scalar OsgEarthNet.uav[88] utilizationCountChargeState 1
scalar OsgEarthNet.uav[88] utilizationCountOverdrawnAfterMission 0
scalar OsgEarthNet.uav[88] utilizationCountIdleState 2
scalar OsgEarthNet.uav[88] utilizationFail 0
scalar OsgEarthNet.uav[88] simulationTime 259200
scalar OsgEarthNet.uav[89] utilizationSecMission 760.62515258028
scalar OsgEarthNet.uav[89] utilizationSecMaintenance 223.6438949726
scalar OsgEarthNet.uav[89] utilizationSecCharge 3670
scalar OsgEarthNet.uav[89] utilizationSecIdle 254545.72995245
scalar OsgEarthNet.uav[89] utilizationEnergyMission 3504.9200592041
scalar OsgEarthNet.uav[89] utilizationEnergyMaintenance 1089.2325553894
scalar OsgEarthNet.uav[89] utilizationEnergyCharge 4594.1518554688
scalar OsgEarthNet.uav[89] utilizationEnergyOverdrawMission 0
scalar OsgEarthNet.uav[89] utilizationEnergyOverdrawMaintenance 0
scalar OsgEarthNet.uav[89] utilizationCountMissions 1
scalar OsgEarthNet.uav[89] utilizationCountManeuversMission 12
scalar OsgEarthNet.uav[89] utilizationCountManeuversMaintenance 2
scalar OsgEarthNet.uav[89] utilizationCountChargeState 1
scalar OsgEarthNet.uav[89] utilizationCountOverdrawnAfterMission 0
scalar OsgEarthNet.uav[89] utilizationCountIdleState 2
scalar OsgEarthNet.uav[89] utilizationFail 0
scalar OsgEarthNet.uav[89] simulationTime 259200
scalar OsgEarthNet.uav[90] utilizationSecMission 29241.349015197
scalar OsgEarthNet.uav[90] utilizationSecMaintenance 12806.412133924
scalar OsgEarthNet.uav[90] utilizationSecCharge 154550.09802914
scalar OsgEarthNet.uav[90] utilizationSecIdle 62602.139821739
scalar OsgEarthNet.uav[90] utilizationEnergyMission 134938.87911224
scalar OsgEarthNet.uav[90] utilizationEnergyMaintenance 60799.098911285
scalar OsgEarthNet.uav[90] utilizationEnergyCharge 194467.34326172
scalar OsgEarthNet.uav[90] utilizationEnergyOverdrawMission 0
scalar OsgEarthNet.uav[90] utilizationEnergyOverdrawMaintenance 0
scalar OsgEarthNet.uav[90] utilizationCountMissions 42
scalar OsgEarthNet.uav[90] utilizationCountManeuversMission 463
scalar OsgEarthNet.uav[90] utilizationCountManeuversMaintenance 84
scalar OsgEarthNet.uav[90] utilizationCountChargeState 42
scalar OsgEarthNet.uav[90] utilizationCountOverdrawnAfterMission 0
scalar OsgEarthNet.uav[90] utilizationCountIdleState 42
scalar OsgEarthNet.uav[90] utilizationFail 0
scalar OsgEarthNet.uav[90] simulationTime 259200
scalar OsgEarthNet.uav[91] utilizationSecMission 24541.308767127
scalar OsgEarthNet.uav[91] utilizationSecMaintenance 17331.875373658
scalar OsgEarthNet.uav[91] utilizationSecCharge 152474.31578249
scalar OsgEarthNet.uav[91] utilizationSecIdle 64852.49907672
scalar OsgEarthNet.uav[91] utilizationEnergyMission 112923.12332916
scalar OsgEarthNet.uav[91] utilizationEnergyMaintenance 80622.933616638
scalar OsgEarthNet.uav[91] utilizationEnergyCharge 191062.14990234
scalar OsgEarthNet.uav[91] utilizationEnergyOverdrawMission 0
scalar OsgEarthNet.uav[91] utilizationEnergyOverdrawMaintenance 0
scalar OsgEarthNet.uav[91] utilizationCountMissions 42
scalar OsgEarthNet.uav[91] utilizationCountManeuversMission 413
scalar OsgEarthNet.uav[91] utilizationCountManeuversMaintenance 84
scalar OsgEarthNet.uav[91] utilizationCountChargeState 42
scalar OsgEarthNet.uav[91] utilizationCountOverdrawnAfterMission 0
scalar OsgEarthNet.uav[91] utilizationCountIdleState 42
scalar OsgEarthNet.uav[91] utilizationFail 0
scalar OsgEarthNet.uav[91] simulationTime 259200
scalar OsgEarthNet.uav[92] utilizationSecMission 17513.543918837
scalar OsgEarthNet.uav[92] utilizationSecMaintenance 8087.7572280896
scalar OsgEarthNet.uav[92] utilizationSecCharge 93765.172524045
scalar OsgEarthNet.uav[92] utilizationSecIdle 139833.52532903
scalar OsgEarthNet.uav[92] utilizationEnergyMission 81958.312110901
scalar OsgEarthNet.uav[92] utilizationEnergyMaintenance 38139.602256775
scalar OsgEarthNet.uav[92] utilizationEnergyCharge 117725.09106445
scalar OsgEarthNet.uav[92] utilizationEnergyOverdrawMission 0
scalar OsgEarthNet.uav[92] utilizationEnergyOverdrawMaintenance 0
scalar OsgEarthNet.uav[92] utilizationCountMissions 26
scalar OsgEarthNet.uav[92] utilizationCountManeuversMission 298
scalar OsgEarthNet.uav[92] utilizationCountManeuversMaintenance 52
scalar OsgEarthNet.uav[92] utilizationCountChargeState 26
scalar OsgEarthNet.uav[92] utilizationCountOverdrawnAfterMission 0
scalar OsgEarthNet.uav[92] utilizationCountIdleState 26
scalar OsgEarthNet.uav[92] utilizationFail 0
scalar OsgEarthNet.uav[92] simulationTime 259200
scalar OsgEarthNet.uav[93] utilizationSecMission 702.6942798579
scalar OsgEarthNet.uav[93] utilizationSecMaintenance 282.29565405678
scalar OsgEarthNet.uav[93] utilizationSecCharge 3760
scalar OsgEarthNet.uav[93] utilizationSecIdle 254455.00906609
scalar OsgEarthNet.uav[93] utilizationEnergyMission 3290.9967498779
scalar OsgEarthNet.uav[93] utilizationEnergyMaintenance 1428.8852348328
scalar OsgEarthNet.uav[93] utilizationEnergyCharge 4719.8833007812
scalar OsgEarthNet.uav[93] utilizationEnergyOverdrawMission 0
scalar OsgEarthNet.uav[93] utilizationEnergyOverdrawMaintenance 0
scalar OsgEarthNet.uav[93] utilizationCountMissions 1
scalar OsgEarthNet.uav[93] utilizationCountManeuversMission 10
scalar OsgEarthNet.uav[93] utilizationCountManeuversMaintenance 2
scalar OsgEarthNet.uav[93] utilizationCountChargeState 1
scalar OsgEarthNet.uav[93] utilizationCountOverdrawnAfterMission 0
scalar OsgEarthNet.uav[93] utilizationCountIdleState 2
scalar OsgEarthNet.uav[93] utilizationFail 0
scalar OsgEarthNet.uav[93] simulationTime 259200
scalar OsgEarthNet.uav[94] utilizationSecMission 27327.732242198
scalar OsgEarthNet.uav[94] utilizationSecMaintenance 11901.468163582
scalar OsgEarthNet.uav[94] utilizationSecCharge 143354.4253715
scalar OsgEarthNet.uav[94] utilizationSecIdle 76616.373222719
scalar OsgEarthNet.uav[94] utilizationEnergyMission 126688.1337204
scalar OsgEarthNet.uav[94] utilizationEnergyMaintenance 56149.63942337
scalar OsgEarthNet.uav[94] utilizationEnergyCharge 180309.51318359
scalar OsgEarthNet.uav[94] utilizationEnergyOverdrawMission 0
scalar OsgEarthNet.uav[94] utilizationEnergyOverdrawMaintenance 0
scalar OsgEarthNet.uav[94] utilizationCountMissions 39
scalar OsgEarthNet.uav[94] utilizationCountManeuversMission 446
scalar OsgEarthNet.uav[94] utilizationCountManeuversMaintenance 78
scalar OsgEarthNet.uav[94] utilizationCountChargeState 39
scalar OsgEarthNet.uav[94] utilizationCountOverdrawnAfterMission 0
scalar OsgEarthNet.uav[94] utilizationCountIdleState 39
scalar OsgEarthNet.uav[94] utilizationFail 0
scalar OsgEarthNet.uav[94] simulationTime 259200
scalar OsgEarthNet.uav[95] utilizationSecMission 2340.0731155967
scalar OsgEarthNet.uav[95] utilizationSecMaintenance 663.48875223556
scalar OsgEarthNet.uav[95] utilizationSecCharge 10980
scalar OsgEarthNet.uav[95] utilizationSecIdle 245216.43713217
scalar OsgEarthNet.uav[95] utilizationEnergyMission 10680.666610718
scalar OsgEarthNet.uav[95] utilizationEnergyMaintenance 3094.3353424072
scalar OsgEarthNet.uav[95] utilizationEnergyCharge 13635.495605469
scalar OsgEarthNet.uav[95] utilizationEnergyOverdrawMission 0
scalar OsgEarthNet.uav[95] utilizationEnergyOverdrawMaintenance 0
scalar OsgEarthNet.uav[95] utilizationCountMissions 3
scalar OsgEarthNet.uav[95] utilizationCountManeuversMission 35
scalar OsgEarthNet.uav[95] utilizationCountManeuversMaintenance 6
scalar OsgEarthNet.uav[95] utilizationCountChargeState 3
scalar OsgEarthNet.uav[95] utilizationCountOverdrawnAfterMission 0
scalar OsgEarthNet.uav[95] utilizationCountIdleState 4
scalar OsgEarthNet.uav[95] utilizationFail 0
scalar OsgEarthNet.uav[95] simulationTime 259200
scalar OsgEarthNet.uav[96] utilizationSecMission 8047.6457108583
scalar OsgEarthNet.uav[96] utilizationSecMaintenance 5101.4600736401
scalar OsgEarthNet.uav[96] utilizationSecCharge 48690
scalar OsgEarthNet.uav[96] utilizationSecIdle 197360.8932155
scalar OsgEarthNet.uav[96] utilizationEnergyMission 37227.909500122
scalar OsgEarthNet.uav[96] utilizationEnergyMaintenance 23805.112159729
scalar OsgEarthNet.uav[96] utilizationEnergyCharge 60923.916015625
scalar OsgEarthNet.uav[96] utilizationEnergyOverdrawMission 0
scalar OsgEarthNet.uav[96] utilizationEnergyOverdrawMaintenance 0
scalar OsgEarthNet.uav[96] utilizationCountMissions 13
scalar OsgEarthNet.uav[96] utilizationCountManeuversMission 125
scalar OsgEarthNet.uav[96] utilizationCountManeuversMaintenance 26
scalar OsgEarthNet.uav[96] utilizationCountChargeState 13
scalar OsgEarthNet.uav[96] utilizationCountOverdrawnAfterMission 0
scalar OsgEarthNet.uav[96] utilizationCountIdleState 14
scalar OsgEarthNet.uav[96] utilizationFail 0
scalar OsgEarthNet.uav[96] simulationTime 259200
scalar OsgEarthNet.uav[97] utilizationSecMission 29140.767878551
scalar OsgEarthNet.uav[97] utilizationSecMaintenance 14430.8784994
scalar OsgEarthNet.uav[97] utilizationSecCharge 160430
scalar OsgEarthNet.uav[97] utilizationSecIdle 55198.352622049
scalar OsgEarthNet.uav[97] utilizationEnergyMission 135133.503342
scalar OsgEarthNet.uav[97] utilizationEnergyMaintenance 67631.832035065
scalar OsgEarthNet.uav[97] utilizationEnergyCharge 201447.28320312
scalar OsgEarthNet.uav[97] utilizationEnergyOverdrawMission 0
scalar OsgEarthNet.uav[97] utilizationEnergyOverdrawMaintenance 0
scalar OsgEarthNet.uav[97] utilizationCountMissions 43
scalar OsgEarthNet.uav[97] utilizationCountManeuversMission 490
scalar OsgEarthNet.uav[97] utilizationCountManeuversMaintenance 87
scalar OsgEarthNet.uav[97] utilizationCountChargeState 43
scalar OsgEarthNet.uav[97] utilizationCountOverdrawnAfterMission 0
scalar OsgEarthNet.uav[97] utilizationCountIdleState 44
scalar OsgEarthNet.uav[97] utilizationFail 0
scalar OsgEarthNet.uav[97] simulationTime 259200
scalar OsgEarthNet.uav[98] utilizationSecMission 29517.225375445
scalar OsgEarthNet.uav[98] utilizationSecMaintenance 14083.098491485
scalar OsgEarthNet.uav[98] utilizationSecCharge 159473.6390343
scalar OsgEarthNet.uav[98] utilizationSecIdle 56126.036098769
scalar OsgEarthNet.uav[98] utilizationEnergyMission 135298.12081146
scalar OsgEarthNet.uav[98] utilizationEnergyMaintenance 66193.037555695
scalar OsgEarthNet.uav[98] utilizationEnergyCharge 201199.65429688
scalar OsgEarthNet.uav[98] utilizationEnergyOverdrawMission 0
scalar OsgEarthNet.uav[98] utilizationEnergyOverdrawMaintenance 0
scalar OsgEarthNet.uav[98] utilizationCountMissions 43
scalar OsgEarthNet.uav[98] utilizationCountManeuversMission 476
scalar OsgEarthNet.uav[98] utilizationCountManeuversMaintenance 86
scalar OsgEarthNet.uav[98] utilizationCountChargeState 43
scalar OsgEarthNet.uav[98] utilizationCountOverdrawnAfterMission 0
scalar OsgEarthNet.uav[98] utilizationCountIdleState 43
scalar OsgEarthNet.uav[98] utilizationFail 0
scalar OsgEarthNet.uav[98] simulationTime 259200
scalar OsgEarthNet.uav[99] utilizationSecMission 33335.722565448
scalar OsgEarthNet.uav[99] utilizationSecMaintenance 11072.276434552
scalar OsgEarthNet.uav[99] utilizationSecCharge 161760
scalar OsgEarthNet.uav[99] utilizationSecIdle 53032
scalar OsgEarthNet.uav[99] utilizationEnergyMission 154612.21281433
scalar OsgEarthNet.uav[99] utilizationEnergyMaintenance 52322.692848434
scalar OsgEarthNet.uav[99] utilizationEnergyCharge 203250.77490234
scalar OsgEarthNet.uav[99] utilizationEnergyOverdrawMission 0
scalar OsgEarthNet.uav[99] utilizationEnergyOverdrawMaintenance 0
scalar OsgEarthNet.uav[99] utilizationCountMissions 44
scalar OsgEarthNet.uav[99] utilizationCountManeuversMission 535
scalar OsgEarthNet.uav[99] utilizationCountManeuversMaintenance 87
scalar OsgEarthNet.uav[99] utilizationCountChargeState 43
scalar OsgEarthNet.uav[99] utilizationCountOverdrawnAfterMission 0
scalar OsgEarthNet.uav[99] utilizationCountIdleState 44
scalar OsgEarthNet.uav[99] utilizationFail 0
scalar OsgEarthNet.uav[99] simulationTime 259200
scalar OsgEarthNet.cs[0] usedPower 532365.61808846
scalar OsgEarthNet.cs[0] chargedPower 532365.61808846
scalar OsgEarthNet.cs[0] chargedMobileNodes 112
scalar OsgEarthNet.cs[0] reservations 115
scalar OsgEarthNet.cs[1] usedPower 1031431.3135344
scalar OsgEarthNet.cs[1] chargedPower 1031431.3135344
scalar OsgEarthNet.cs[1] chargedMobileNodes 217
scalar OsgEarthNet.cs[1] reservations 222
scalar OsgEarthNet.cs[2] usedPower 2865589.7613406
scalar OsgEarthNet.cs[2] chargedPower 2865589.7613406
scalar OsgEarthNet.cs[2] chargedMobileNodes 604
scalar OsgEarthNet.cs[2] reservations 615
scalar OsgEarthNet.cs[3] usedPower 564400.12439912
scalar OsgEarthNet.cs[3] chargedPower 564400.12439912
scalar OsgEarthNet.cs[3] chargedMobileNodes 123
scalar OsgEarthNet.cs[3] reservations 123
scalar OsgEarthNet.cs[4] usedPower 731601.54786584
scalar OsgEarthNet.cs[4] chargedPower 731601.54786584
scalar OsgEarthNet.cs[4] chargedMobileNodes 156
scalar OsgEarthNet.cs[4] reservations 158
scalar OsgEarthNet.cs[5] usedPower 481977.84273362
scalar OsgEarthNet.cs[5] chargedPower 481977.84273362
scalar OsgEarthNet.cs[5] chargedMobileNodes 101
scalar OsgEarthNet.cs[5] reservations 101
scalar OsgEarthNet.cs[6] usedPower 2503918.6795993
scalar OsgEarthNet.cs[6] chargedPower 2503918.6795993
scalar OsgEarthNet.cs[6] chargedMobileNodes 534
scalar OsgEarthNet.cs[6] reservations 542

