version 2
run Szenario_Hotel_Gabelbach-59-20180709-15:17:26-24244
attr configname Szenario_Hotel_Gabelbach
attr datetime 20180709-15:17:26
attr experiment Szenario_Hotel_Gabelbach
attr inifile omnetpp.ini
attr iterationvars "$replM=2, $biWeight=0.6"
attr iterationvarsf replM=2,biWeight=0.6-
attr measurement "$replM=2, $biWeight=0.6"
attr network OsgEarthNet
attr processid 24244
attr repetition 11
attr replication #11
attr resultdir results
attr runnumber 59
attr seedset 59
itervar biWeight 0.6
itervar replM 2
param *.osgEarthScene.scene "\"Szenario_Hotel_Gabelbach.earth\""
param *.playgroundLatitude 50.6830269
param *.playgroundLongitude 10.8538055
param *.playgroundWidth 3500m
param *.playgroundHeight 3500m
param *.numUAVs 100
param *.cs[0].posX 3537m
param *.cs[0].posY 965m
param *.cs[0].posZ 538m
param *.cs[1].posX 312m
param *.cs[1].posY 1262m
param *.cs[1].posZ 539m
param *.cs[2].posX 2185m
param *.cs[2].posY 3026m
param *.cs[2].posZ 777m
param *.cs[3].posX 10m
param *.cs[3].posY 2200m
param *.cs[3].posZ 560m
param *.cs[4].posX 750m
param *.cs[4].posY 200m
param *.cs[4].posZ 540m
param *.cs[5].posX 2450m
param *.cs[5].posY 180m
param *.cs[5].posZ 524m
param *.cs[6].posX 3140m
param *.cs[6].posY 1790m
param *.cs[6].posZ 606m
param *.numCSs 7
param *.uav[*].replacementMethod 2
param *.uav[*].weightedSumWeight 0.6
param *.*.timeStep 10s
param *.uav[*].commandPreviewCommandCount 20
param *.missionControl.missionFiles "\"missions\\\\Szenario_WB_Hotel_Gabelbach_Mission_Hotel.waypoints,missions\\\\Szenario_WB_Hotel_Gabelbach_Mission_Kickelhahn.waypoints,missions\\\\Szenario_WB_Hotel_Gabelbach_Mission_Ilmenau_Sportplatz.waypoints,missions\\\\Szenario_WB_Hotel_Gabelbach_Mission_Manebach_Mitte.waypoints,missions\\\\Szenario_WB_Hotel_Gabelbach_Mission_Manebach_Sued.waypoints\""
param *.missionControl.missionFiles "\"missions\\\\Szenario_WB_Hotel_Gabelbach_Mission_Hotel.waypoints,missions\\\\Szenario_WB_Hotel_Gabelbach_Mission_Kickelhahn.waypoints,missions\\\\Szenario_WB_Hotel_Gabelbach_Mission_Ilmenau_Sportplatz.waypoints,missions\\\\Szenario_WB_Hotel_Gabelbach_Mission_Manebach_Mitte.waypoints,missions\\\\Szenario_WB_Hotel_Gabelbach_Mission_Manebach_Sued.waypoints,missions\\\\Szenario_WB_Hotel_Gabelbach_Hover_HoheSchlaufe.waypoints,missions\\\\Szenario_WB_Hotel_Gabelbach_Hover_Kickelhahn.waypoints,missions\\\\Szenario_WB_Hotel_Gabelbach_Hover_Gabelbachskopf.waypoints,missions\\\\Szenario_WB_Hotel_Gabelbach_Hover_Dachskopf.waypoints\""
param *.uav[0].startX 3537m
param *.uav[0].startY 965m
param *.uav[0].startZ 539m
param *.uav[1].startX 312m
param *.uav[1].startY 1262m
param *.uav[1].startZ 540m
param *.uav[2].startX 2185m
param *.uav[2].startY 3026m
param *.uav[2].startZ 778m
param *.uav[3].startX 3537m
param *.uav[3].startY 965m
param *.uav[3].startZ 539m
param *.uav[4].startX 312m
param *.uav[4].startY 1262m
param *.uav[4].startZ 540m
param *.uav[5].startX 2185m
param *.uav[5].startY 3026m
param *.uav[5].startZ 778m
param *.uav[6].startX 3537m
param *.uav[6].startY 965m
param *.uav[6].startZ 539m
param *.uav[7].startX 312m
param *.uav[7].startY 1262m
param *.uav[7].startZ 540m
param *.uav[8].startX 2185m
param *.uav[8].startY 3026m
param *.uav[8].startZ 778m
param *.uav[9].startX 3537m
param *.uav[9].startY 965m
param *.uav[9].startZ 539m
param *.uav[10].startX 3537m
param *.uav[10].startY 965m
param *.uav[10].startZ 539m
param *.uav[11].startX 312m
param *.uav[11].startY 1262m
param *.uav[11].startZ 540m
param *.uav[12].startX 2185m
param *.uav[12].startY 3026m
param *.uav[12].startZ 778m
param *.uav[13].startX 3537m
param *.uav[13].startY 965m
param *.uav[13].startZ 539m
param *.uav[14].startX 312m
param *.uav[14].startY 1262m
param *.uav[14].startZ 540m
param *.uav[15].startX 2185m
param *.uav[15].startY 3026m
param *.uav[15].startZ 778m
param *.uav[16].startX 3537m
param *.uav[16].startY 965m
param *.uav[16].startZ 539m
param *.uav[17].startX 312m
param *.uav[17].startY 1262m
param *.uav[17].startZ 540m
param *.uav[18].startX 2185m
param *.uav[18].startY 3026m
param *.uav[18].startZ 778m
param *.uav[19].startX 3537m
param *.uav[19].startY 965m
param *.uav[19].startZ 539m
param *.uav[20].startX 3537m
param *.uav[20].startY 965m
param *.uav[20].startZ 539m
param *.uav[21].startX 312m
param *.uav[21].startY 1262m
param *.uav[21].startZ 540m
param *.uav[22].startX 2185m
param *.uav[22].startY 3026m
param *.uav[22].startZ 778m
param *.uav[23].startX 3537m
param *.uav[23].startY 965m
param *.uav[23].startZ 539m
param *.uav[24].startX 312m
param *.uav[24].startY 1262m
param *.uav[24].startZ 540m
param *.uav[25].startX 2185m
param *.uav[25].startY 3026m
param *.uav[25].startZ 778m
param *.uav[26].startX 3537m
param *.uav[26].startY 965m
param *.uav[26].startZ 539m
param *.uav[27].startX 312m
param *.uav[27].startY 1262m
param *.uav[27].startZ 540m
param *.uav[28].startX 2185m
param *.uav[28].startY 3026m
param *.uav[28].startZ 778m
param *.uav[29].startX 3537m
param *.uav[29].startY 965m
param *.uav[29].startZ 539m
param *.uav[30].startX 3537m
param *.uav[30].startY 965m
param *.uav[30].startZ 539m
param *.uav[31].startX 312m
param *.uav[31].startY 1262m
param *.uav[31].startZ 540m
param *.uav[32].startX 2185m
param *.uav[32].startY 3026m
param *.uav[32].startZ 778m
param *.uav[33].startX 3537m
param *.uav[33].startY 965m
param *.uav[33].startZ 539m
param *.uav[34].startX 312m
param *.uav[34].startY 1262m
param *.uav[34].startZ 540m
param *.uav[35].startX 2185m
param *.uav[35].startY 3026m
param *.uav[35].startZ 778m
param *.uav[36].startX 3537m
param *.uav[36].startY 965m
param *.uav[36].startZ 539m
param *.uav[37].startX 312m
param *.uav[37].startY 1262m
param *.uav[37].startZ 540m
param *.uav[38].startX 2185m
param *.uav[38].startY 3026m
param *.uav[38].startZ 778m
param *.uav[39].startX 3537m
param *.uav[39].startY 965m
param *.uav[39].startZ 539m
param *.uav[40].startX 3537m
param *.uav[40].startY 965m
param *.uav[40].startZ 539m
param *.uav[41].startX 312m
param *.uav[41].startY 1262m
param *.uav[41].startZ 540m
param *.uav[42].startX 2185m
param *.uav[42].startY 3026m
param *.uav[42].startZ 778m
param *.uav[43].startX 3537m
param *.uav[43].startY 965m
param *.uav[43].startZ 539m
param *.uav[44].startX 312m
param *.uav[44].startY 1262m
param *.uav[44].startZ 540m
param *.uav[45].startX 2185m
param *.uav[45].startY 3026m
param *.uav[45].startZ 778m
param *.uav[46].startX 3537m
param *.uav[46].startY 965m
param *.uav[46].startZ 539m
param *.uav[47].startX 312m
param *.uav[47].startY 1262m
param *.uav[47].startZ 540m
param *.uav[48].startX 2185m
param *.uav[48].startY 3026m
param *.uav[48].startZ 778m
param *.uav[49].startX 3537m
param *.uav[49].startY 965m
param *.uav[49].startZ 539m
param *.uav[50].startX 3537m
param *.uav[50].startY 965m
param *.uav[50].startZ 539m
param *.uav[51].startX 312m
param *.uav[51].startY 1262m
param *.uav[51].startZ 540m
param *.uav[52].startX 2185m
param *.uav[52].startY 3026m
param *.uav[52].startZ 778m
param *.uav[53].startX 3537m
param *.uav[53].startY 965m
param *.uav[53].startZ 539m
param *.uav[54].startX 312m
param *.uav[54].startY 1262m
param *.uav[54].startZ 540m
param *.uav[55].startX 2185m
param *.uav[55].startY 3026m
param *.uav[55].startZ 778m
param *.uav[56].startX 3537m
param *.uav[56].startY 965m
param *.uav[56].startZ 539m
param *.uav[57].startX 312m
param *.uav[57].startY 1262m
param *.uav[57].startZ 540m
param *.uav[58].startX 2185m
param *.uav[58].startY 3026m
param *.uav[58].startZ 778m
param *.uav[59].startX 3537m
param *.uav[59].startY 965m
param *.uav[59].startZ 539m
param *.uav[60].startX 3537m
param *.uav[60].startY 965m
param *.uav[60].startZ 539m
param *.uav[61].startX 312m
param *.uav[61].startY 1262m
param *.uav[61].startZ 540m
param *.uav[62].startX 2185m
param *.uav[62].startY 3026m
param *.uav[62].startZ 778m
param *.uav[63].startX 3537m
param *.uav[63].startY 965m
param *.uav[63].startZ 539m
param *.uav[64].startX 312m
param *.uav[64].startY 1262m
param *.uav[64].startZ 540m
param *.uav[65].startX 2185m
param *.uav[65].startY 3026m
param *.uav[65].startZ 778m
param *.uav[66].startX 3537m
param *.uav[66].startY 965m
param *.uav[66].startZ 539m
param *.uav[67].startX 312m
param *.uav[67].startY 1262m
param *.uav[67].startZ 540m
param *.uav[68].startX 2185m
param *.uav[68].startY 3026m
param *.uav[68].startZ 778m
param *.uav[69].startX 3537m
param *.uav[69].startY 965m
param *.uav[69].startZ 539m
param *.uav[70].startX 3537m
param *.uav[70].startY 965m
param *.uav[70].startZ 539m
param *.uav[71].startX 312m
param *.uav[71].startY 1262m
param *.uav[71].startZ 540m
param *.uav[72].startX 2185m
param *.uav[72].startY 3026m
param *.uav[72].startZ 778m
param *.uav[73].startX 3537m
param *.uav[73].startY 965m
param *.uav[73].startZ 539m
param *.uav[74].startX 312m
param *.uav[74].startY 1262m
param *.uav[74].startZ 540m
param *.uav[75].startX 2185m
param *.uav[75].startY 3026m
param *.uav[75].startZ 778m
param *.uav[76].startX 3537m
param *.uav[76].startY 965m
param *.uav[76].startZ 539m
param *.uav[77].startX 312m
param *.uav[77].startY 1262m
param *.uav[77].startZ 540m
param *.uav[78].startX 2185m
param *.uav[78].startY 3026m
param *.uav[78].startZ 778m
param *.uav[79].startX 3537m
param *.uav[79].startY 965m
param *.uav[79].startZ 539m
param *.uav[80].startX 3537m
param *.uav[80].startY 965m
param *.uav[80].startZ 539m
param *.uav[81].startX 312m
param *.uav[81].startY 1262m
param *.uav[81].startZ 540m
param *.uav[82].startX 2185m
param *.uav[82].startY 3026m
param *.uav[82].startZ 778m
param *.uav[83].startX 3537m
param *.uav[83].startY 965m
param *.uav[83].startZ 539m
param *.uav[84].startX 312m
param *.uav[84].startY 1262m
param *.uav[84].startZ 540m
param *.uav[85].startX 2185m
param *.uav[85].startY 3026m
param *.uav[85].startZ 778m
param *.uav[86].startX 3537m
param *.uav[86].startY 965m
param *.uav[86].startZ 539m
param *.uav[87].startX 312m
param *.uav[87].startY 1262m
param *.uav[87].startZ 540m
param *.uav[88].startX 2185m
param *.uav[88].startY 3026m
param *.uav[88].startZ 778m
param *.uav[89].startX 3537m
param *.uav[89].startY 965m
param *.uav[89].startZ 539m
param *.uav[90].startX 3537m
param *.uav[90].startY 965m
param *.uav[90].startZ 539m
param *.uav[91].startX 312m
param *.uav[91].startY 1262m
param *.uav[91].startZ 540m
param *.uav[92].startX 2185m
param *.uav[92].startY 3026m
param *.uav[92].startZ 778m
param *.uav[93].startX 3537m
param *.uav[93].startY 965m
param *.uav[93].startZ 539m
param *.uav[94].startX 312m
param *.uav[94].startY 1262m
param *.uav[94].startZ 540m
param *.uav[95].startX 2185m
param *.uav[95].startY 3026m
param *.uav[95].startZ 778m
param *.uav[96].startX 3537m
param *.uav[96].startY 965m
param *.uav[96].startZ 539m
param *.uav[97].startX 312m
param *.uav[97].startY 1262m
param *.uav[97].startZ 540m
param *.uav[98].startX 2185m
param *.uav[98].startY 3026m
param *.uav[98].startZ 778m
param *.uav[99].startX 3537m
param *.uav[99].startY 965m
param *.uav[99].startZ 539m
param *.osgEarthScene.scene "\"boston.earth\""
param *.playgroundLatitude 42.3558
param *.playgroundLongitude -71.0677
param *.playgroundWidth 400m
param *.playgroundHeight 200m
param *.channelController.connectionColor "\"#0000FF40\""
param *.channelController.showConnections false
param *.uav[*].modelURL "\"quadrocopter.small.obj.15.scale.0,0,90.rot\""
param *.uav[*].labelColor "\"#FF7C00CC\""
param *.uav[*].label2Color "\"#FF7C00EE\""
param *.uav[*].batteryCapacity 5200mAh
param *.uav[*].batteryRemaining uav[index].batteryCapacity
param *.uav[*].predictionQuantile 0.95
param *.uav[*].replacementMethod 2
param *.uav[*].weightedSumWeight 0.5
param *.cs[*].modelURL "\"chargingstation_v1.osgt.2.scale.0,0,0.rot.0,0,-15e-1.trans\""
param *.cs[*].spotsWaiting 999
param *.cs[*].spotsCharging 999
param *.cs[*].chargeEffectivenessPercentage 100
param *.cs[*].nonLinearPhaseStartPercentage 85
param *.cs[*].chargeCurrent 6.0A
param *.cs[*].prioritizeFastCharge true
param *.missionControl.replacementSearchMethod 0
param *.*.timeStep 9s

scalar OsgEarthNet.uav[0] utilizationSecMission 29857.852359635
scalar OsgEarthNet.uav[0] utilizationSecMaintenance 12005.931085157
scalar OsgEarthNet.uav[0] utilizationSecCharge 155030
scalar OsgEarthNet.uav[0] utilizationSecIdle 62306.215555207
scalar OsgEarthNet.uav[0] utilizationEnergyMission 137749.65782166
scalar OsgEarthNet.uav[0] utilizationEnergyMaintenance 56676.324069977
scalar OsgEarthNet.uav[0] utilizationEnergyCharge 193830.60986328
scalar OsgEarthNet.uav[0] utilizationEnergyOverdrawMission 0
scalar OsgEarthNet.uav[0] utilizationEnergyOverdrawMaintenance 0
scalar OsgEarthNet.uav[0] utilizationCountMissions 42
scalar OsgEarthNet.uav[0] utilizationCountManeuversMission 479
scalar OsgEarthNet.uav[0] utilizationCountManeuversMaintenance 84
scalar OsgEarthNet.uav[0] utilizationCountChargeState 42
scalar OsgEarthNet.uav[0] utilizationCountOverdrawnAfterMission 0
scalar OsgEarthNet.uav[0] utilizationCountIdleState 43
scalar OsgEarthNet.uav[0] utilizationFail 0
scalar OsgEarthNet.uav[0] simulationTime 259200
scalar OsgEarthNet.uav[1] utilizationSecMission 27848.442087262
scalar OsgEarthNet.uav[1] utilizationSecMaintenance 15970.294140088
scalar OsgEarthNet.uav[1] utilizationSecCharge 163040
scalar OsgEarthNet.uav[1] utilizationSecIdle 52341.262772651
scalar OsgEarthNet.uav[1] utilizationEnergyMission 129217.27095795
scalar OsgEarthNet.uav[1] utilizationEnergyMaintenance 75323.782829285
scalar OsgEarthNet.uav[1] utilizationEnergyCharge 203962.27490234
scalar OsgEarthNet.uav[1] utilizationEnergyOverdrawMission 0
scalar OsgEarthNet.uav[1] utilizationEnergyOverdrawMaintenance 0
scalar OsgEarthNet.uav[1] utilizationCountMissions 44
scalar OsgEarthNet.uav[1] utilizationCountManeuversMission 467
scalar OsgEarthNet.uav[1] utilizationCountManeuversMaintenance 88
scalar OsgEarthNet.uav[1] utilizationCountChargeState 44
scalar OsgEarthNet.uav[1] utilizationCountOverdrawnAfterMission 0
scalar OsgEarthNet.uav[1] utilizationCountIdleState 45
scalar OsgEarthNet.uav[1] utilizationFail 0
scalar OsgEarthNet.uav[1] simulationTime 259200
scalar OsgEarthNet.uav[2] utilizationSecMission 621.17604176187
scalar OsgEarthNet.uav[2] utilizationSecMaintenance 313.76167006775
scalar OsgEarthNet.uav[2] utilizationSecCharge 3330
scalar OsgEarthNet.uav[2] utilizationSecIdle 254935.06128817
scalar OsgEarthNet.uav[2] utilizationEnergyMission 2576.8872299194
scalar OsgEarthNet.uav[2] utilizationEnergyMaintenance 1442.673412323
scalar OsgEarthNet.uav[2] utilizationEnergyCharge 4019.5634765625
scalar OsgEarthNet.uav[2] utilizationEnergyOverdrawMission 0
scalar OsgEarthNet.uav[2] utilizationEnergyOverdrawMaintenance 0
scalar OsgEarthNet.uav[2] utilizationCountMissions 1
scalar OsgEarthNet.uav[2] utilizationCountManeuversMission 12
scalar OsgEarthNet.uav[2] utilizationCountManeuversMaintenance 2
scalar OsgEarthNet.uav[2] utilizationCountChargeState 1
scalar OsgEarthNet.uav[2] utilizationCountOverdrawnAfterMission 0
scalar OsgEarthNet.uav[2] utilizationCountIdleState 2
scalar OsgEarthNet.uav[2] utilizationFail 0
scalar OsgEarthNet.uav[2] simulationTime 259200
scalar OsgEarthNet.uav[3] utilizationSecMission 623.68863475643
scalar OsgEarthNet.uav[3] utilizationSecMaintenance 394.94199877579
scalar OsgEarthNet.uav[3] utilizationSecCharge 3740
scalar OsgEarthNet.uav[3] utilizationSecIdle 254441.36836647
scalar OsgEarthNet.uav[3] utilizationEnergyMission 2665.3148803711
scalar OsgEarthNet.uav[3] utilizationEnergyMaintenance 1925.8730697632
scalar OsgEarthNet.uav[3] utilizationEnergyCharge 4680.7124023438
scalar OsgEarthNet.uav[3] utilizationEnergyOverdrawMission 0
scalar OsgEarthNet.uav[3] utilizationEnergyOverdrawMaintenance 0
scalar OsgEarthNet.uav[3] utilizationCountMissions 1
scalar OsgEarthNet.uav[3] utilizationCountManeuversMission 10
scalar OsgEarthNet.uav[3] utilizationCountManeuversMaintenance 2
scalar OsgEarthNet.uav[3] utilizationCountChargeState 1
scalar OsgEarthNet.uav[3] utilizationCountOverdrawnAfterMission 0
scalar OsgEarthNet.uav[3] utilizationCountIdleState 2
scalar OsgEarthNet.uav[3] utilizationFail 0
scalar OsgEarthNet.uav[3] simulationTime 259200
scalar OsgEarthNet.uav[4] utilizationSecMission 31155.978182774
scalar OsgEarthNet.uav[4] utilizationSecMaintenance 14345.663579464
scalar OsgEarthNet.uav[4] utilizationSecCharge 165285.15333
scalar OsgEarthNet.uav[4] utilizationSecIdle 48413.20390776
scalar OsgEarthNet.uav[4] utilizationEnergyMission 144745.49809265
scalar OsgEarthNet.uav[4] utilizationEnergyMaintenance 66495.730712891
scalar OsgEarthNet.uav[4] utilizationEnergyCharge 208025.27050781
scalar OsgEarthNet.uav[4] utilizationEnergyOverdrawMission 0
scalar OsgEarthNet.uav[4] utilizationEnergyOverdrawMaintenance 0
scalar OsgEarthNet.uav[4] utilizationCountMissions 45
scalar OsgEarthNet.uav[4] utilizationCountManeuversMission 506
scalar OsgEarthNet.uav[4] utilizationCountManeuversMaintenance 90
scalar OsgEarthNet.uav[4] utilizationCountChargeState 45
scalar OsgEarthNet.uav[4] utilizationCountOverdrawnAfterMission 0
scalar OsgEarthNet.uav[4] utilizationCountIdleState 45
scalar OsgEarthNet.uav[4] utilizationFail 0
scalar OsgEarthNet.uav[4] simulationTime 259200
scalar OsgEarthNet.uav[5] utilizationSecMission 750.20472747826
scalar OsgEarthNet.uav[5] utilizationSecMaintenance 280.95484451848
scalar OsgEarthNet.uav[5] utilizationSecCharge 3730
scalar OsgEarthNet.uav[5] utilizationSecIdle 254438.839428
scalar OsgEarthNet.uav[5] utilizationEnergyMission 3324.075378418
scalar OsgEarthNet.uav[5] utilizationEnergyMaintenance 1350.1184196472
scalar OsgEarthNet.uav[5] utilizationEnergyCharge 4674.19921875
scalar OsgEarthNet.uav[5] utilizationEnergyOverdrawMission 0
scalar OsgEarthNet.uav[5] utilizationEnergyOverdrawMaintenance 0
scalar OsgEarthNet.uav[5] utilizationCountMissions 1
scalar OsgEarthNet.uav[5] utilizationCountManeuversMission 11
scalar OsgEarthNet.uav[5] utilizationCountManeuversMaintenance 2
scalar OsgEarthNet.uav[5] utilizationCountChargeState 1
scalar OsgEarthNet.uav[5] utilizationCountOverdrawnAfterMission 0
scalar OsgEarthNet.uav[5] utilizationCountIdleState 2
scalar OsgEarthNet.uav[5] utilizationFail 0
scalar OsgEarthNet.uav[5] simulationTime 259200
scalar OsgEarthNet.uav[6] utilizationSecMission 760.62515258028
scalar OsgEarthNet.uav[6] utilizationSecMaintenance 291.95923480269
scalar OsgEarthNet.uav[6] utilizationSecCharge 3820
scalar OsgEarthNet.uav[6] utilizationSecIdle 254327.41461262
scalar OsgEarthNet.uav[6] utilizationEnergyMission 3468.2205924988
scalar OsgEarthNet.uav[6] utilizationEnergyMaintenance 1415.4942550659
scalar OsgEarthNet.uav[6] utilizationEnergyCharge 4883.7163085938
scalar OsgEarthNet.uav[6] utilizationEnergyOverdrawMission 0
scalar OsgEarthNet.uav[6] utilizationEnergyOverdrawMaintenance 0
scalar OsgEarthNet.uav[6] utilizationCountMissions 1
scalar OsgEarthNet.uav[6] utilizationCountManeuversMission 12
scalar OsgEarthNet.uav[6] utilizationCountManeuversMaintenance 2
scalar OsgEarthNet.uav[6] utilizationCountChargeState 1
scalar OsgEarthNet.uav[6] utilizationCountOverdrawnAfterMission 0
scalar OsgEarthNet.uav[6] utilizationCountIdleState 2
scalar OsgEarthNet.uav[6] utilizationFail 0
scalar OsgEarthNet.uav[6] simulationTime 259200
scalar OsgEarthNet.uav[7] utilizationSecMission 29434.821420243
scalar OsgEarthNet.uav[7] utilizationSecMaintenance 13847.770668012
scalar OsgEarthNet.uav[7] utilizationSecCharge 156660
scalar OsgEarthNet.uav[7] utilizationSecIdle 59257.406911745
scalar OsgEarthNet.uav[7] utilizationEnergyMission 135313.40783894
scalar OsgEarthNet.uav[7] utilizationEnergyMaintenance 65048.328212738
scalar OsgEarthNet.uav[7] utilizationEnergyCharge 196624.046875
scalar OsgEarthNet.uav[7] utilizationEnergyOverdrawMission 0
scalar OsgEarthNet.uav[7] utilizationEnergyOverdrawMaintenance 0
scalar OsgEarthNet.uav[7] utilizationCountMissions 42
scalar OsgEarthNet.uav[7] utilizationCountManeuversMission 475
scalar OsgEarthNet.uav[7] utilizationCountManeuversMaintenance 85
scalar OsgEarthNet.uav[7] utilizationCountChargeState 42
scalar OsgEarthNet.uav[7] utilizationCountOverdrawnAfterMission 0
scalar OsgEarthNet.uav[7] utilizationCountIdleState 43
scalar OsgEarthNet.uav[7] utilizationFail 0
scalar OsgEarthNet.uav[7] simulationTime 259200
scalar OsgEarthNet.uav[8] utilizationSecMission 28907.911019465
scalar OsgEarthNet.uav[8] utilizationSecMaintenance 16793.977512351
scalar OsgEarthNet.uav[8] utilizationSecCharge 169966.11046818
scalar OsgEarthNet.uav[8] utilizationSecIdle 43532
scalar OsgEarthNet.uav[8] utilizationEnergyMission 134787.92000797
scalar OsgEarthNet.uav[8] utilizationEnergyMaintenance 79118.385536194
scalar OsgEarthNet.uav[8] utilizationEnergyCharge 214004.37646484
scalar OsgEarthNet.uav[8] utilizationEnergyOverdrawMission 0
scalar OsgEarthNet.uav[8] utilizationEnergyOverdrawMaintenance 0
scalar OsgEarthNet.uav[8] utilizationCountMissions 46
scalar OsgEarthNet.uav[8] utilizationCountManeuversMission 488
scalar OsgEarthNet.uav[8] utilizationCountManeuversMaintenance 91
scalar OsgEarthNet.uav[8] utilizationCountChargeState 46
scalar OsgEarthNet.uav[8] utilizationCountOverdrawnAfterMission 0
scalar OsgEarthNet.uav[8] utilizationCountIdleState 46
scalar OsgEarthNet.uav[8] utilizationFail 0
scalar OsgEarthNet.uav[8] simulationTime 259200
scalar OsgEarthNet.uav[9] utilizationSecMission 750.20472747826
scalar OsgEarthNet.uav[9] utilizationSecMaintenance 261.68051383311
scalar OsgEarthNet.uav[9] utilizationSecCharge 3740
scalar OsgEarthNet.uav[9] utilizationSecIdle 254448.11375869
scalar OsgEarthNet.uav[9] utilizationEnergyMission 3506.5177001953
scalar OsgEarthNet.uav[9] utilizationEnergyMaintenance 1238.1722221375
scalar OsgEarthNet.uav[9] utilizationEnergyCharge 4744.6909179688
scalar OsgEarthNet.uav[9] utilizationEnergyOverdrawMission 0
scalar OsgEarthNet.uav[9] utilizationEnergyOverdrawMaintenance 0
scalar OsgEarthNet.uav[9] utilizationCountMissions 1
scalar OsgEarthNet.uav[9] utilizationCountManeuversMission 11
scalar OsgEarthNet.uav[9] utilizationCountManeuversMaintenance 2
scalar OsgEarthNet.uav[9] utilizationCountChargeState 1
scalar OsgEarthNet.uav[9] utilizationCountOverdrawnAfterMission 0
scalar OsgEarthNet.uav[9] utilizationCountIdleState 2
scalar OsgEarthNet.uav[9] utilizationFail 0
scalar OsgEarthNet.uav[9] simulationTime 259200
scalar OsgEarthNet.uav[10] utilizationSecMission 684.4732299383
scalar OsgEarthNet.uav[10] utilizationSecMaintenance 298.56834692969
scalar OsgEarthNet.uav[10] utilizationSecCharge 3750
scalar OsgEarthNet.uav[10] utilizationSecIdle 254466.95742313
scalar OsgEarthNet.uav[10] utilizationEnergyMission 3375.9902496338
scalar OsgEarthNet.uav[10] utilizationEnergyMaintenance 1365.1943283081
scalar OsgEarthNet.uav[10] utilizationEnergyCharge 4741.1840820312
scalar OsgEarthNet.uav[10] utilizationEnergyOverdrawMission 0
scalar OsgEarthNet.uav[10] utilizationEnergyOverdrawMaintenance 0
scalar OsgEarthNet.uav[10] utilizationCountMissions 1
scalar OsgEarthNet.uav[10] utilizationCountManeuversMission 11
scalar OsgEarthNet.uav[10] utilizationCountManeuversMaintenance 2
scalar OsgEarthNet.uav[10] utilizationCountChargeState 1
scalar OsgEarthNet.uav[10] utilizationCountOverdrawnAfterMission 0
scalar OsgEarthNet.uav[10] utilizationCountIdleState 2
scalar OsgEarthNet.uav[10] utilizationFail 0
scalar OsgEarthNet.uav[10] simulationTime 259200
scalar OsgEarthNet.uav[11] utilizationSecMission 597.53391521556
scalar OsgEarthNet.uav[11] utilizationSecMaintenance 388.71128889908
scalar OsgEarthNet.uav[11] utilizationSecCharge 3660
scalar OsgEarthNet.uav[11] utilizationSecIdle 254553.75379589
scalar OsgEarthNet.uav[11] utilizationEnergyMission 2871.1693267822
scalar OsgEarthNet.uav[11] utilizationEnergyMaintenance 1706.269618988
scalar OsgEarthNet.uav[11] utilizationEnergyCharge 4514.3608398438
scalar OsgEarthNet.uav[11] utilizationEnergyOverdrawMission 0
scalar OsgEarthNet.uav[11] utilizationEnergyOverdrawMaintenance 0
scalar OsgEarthNet.uav[11] utilizationCountMissions 1
scalar OsgEarthNet.uav[11] utilizationCountManeuversMission 9
scalar OsgEarthNet.uav[11] utilizationCountManeuversMaintenance 2
scalar OsgEarthNet.uav[11] utilizationCountChargeState 1
scalar OsgEarthNet.uav[11] utilizationCountOverdrawnAfterMission 0
scalar OsgEarthNet.uav[11] utilizationCountIdleState 2
scalar OsgEarthNet.uav[11] utilizationFail 0
scalar OsgEarthNet.uav[11] simulationTime 259200
scalar OsgEarthNet.uav[12] utilizationSecMission 1847.9244073632
scalar OsgEarthNet.uav[12] utilizationSecMaintenance 1099.6771982244
scalar OsgEarthNet.uav[12] utilizationSecCharge 11150
scalar OsgEarthNet.uav[12] utilizationSecIdle 245102.39739441
scalar OsgEarthNet.uav[12] utilizationEnergyMission 8756.9545021057
scalar OsgEarthNet.uav[12] utilizationEnergyMaintenance 5146.8779144287
scalar OsgEarthNet.uav[12] utilizationEnergyCharge 13903.830566406
scalar OsgEarthNet.uav[12] utilizationEnergyOverdrawMission 0
scalar OsgEarthNet.uav[12] utilizationEnergyOverdrawMaintenance 0
scalar OsgEarthNet.uav[12] utilizationCountMissions 3
scalar OsgEarthNet.uav[12] utilizationCountManeuversMission 35
scalar OsgEarthNet.uav[12] utilizationCountManeuversMaintenance 6
scalar OsgEarthNet.uav[12] utilizationCountChargeState 3
scalar OsgEarthNet.uav[12] utilizationCountOverdrawnAfterMission 0
scalar OsgEarthNet.uav[12] utilizationCountIdleState 4
scalar OsgEarthNet.uav[12] utilizationFail 0
scalar OsgEarthNet.uav[12] simulationTime 259200
scalar OsgEarthNet.uav[13] utilizationSecMission 836.77707522227
scalar OsgEarthNet.uav[13] utilizationSecMaintenance 217.0347828456
scalar OsgEarthNet.uav[13] utilizationSecCharge 3790
scalar OsgEarthNet.uav[13] utilizationSecIdle 254356.18714193
scalar OsgEarthNet.uav[13] utilizationEnergyMission 3736.2468566895
scalar OsgEarthNet.uav[13] utilizationEnergyMaintenance 1047.178691864
scalar OsgEarthNet.uav[13] utilizationEnergyCharge 4783.4248046875
scalar OsgEarthNet.uav[13] utilizationEnergyOverdrawMission 0
scalar OsgEarthNet.uav[13] utilizationEnergyOverdrawMaintenance 0
scalar OsgEarthNet.uav[13] utilizationCountMissions 1
scalar OsgEarthNet.uav[13] utilizationCountManeuversMission 13
scalar OsgEarthNet.uav[13] utilizationCountManeuversMaintenance 2
scalar OsgEarthNet.uav[13] utilizationCountChargeState 1
scalar OsgEarthNet.uav[13] utilizationCountOverdrawnAfterMission 0
scalar OsgEarthNet.uav[13] utilizationCountIdleState 2
scalar OsgEarthNet.uav[13] utilizationFail 0
scalar OsgEarthNet.uav[13] simulationTime 259200
scalar OsgEarthNet.uav[14] utilizationSecMission 29848.62514818
scalar OsgEarthNet.uav[14] utilizationSecMaintenance 14082.849215632
scalar OsgEarthNet.uav[14] utilizationSecCharge 162890
scalar OsgEarthNet.uav[14] utilizationSecIdle 52378.524636189
scalar OsgEarthNet.uav[14] utilizationEnergyMission 137621.23349762
scalar OsgEarthNet.uav[14] utilizationEnergyMaintenance 66443.707439423
scalar OsgEarthNet.uav[14] utilizationEnergyCharge 203903.93945312
scalar OsgEarthNet.uav[14] utilizationEnergyOverdrawMission 0
scalar OsgEarthNet.uav[14] utilizationEnergyOverdrawMaintenance 0
scalar OsgEarthNet.uav[14] utilizationCountMissions 44
scalar OsgEarthNet.uav[14] utilizationCountManeuversMission 473
scalar OsgEarthNet.uav[14] utilizationCountManeuversMaintenance 88
scalar OsgEarthNet.uav[14] utilizationCountChargeState 44
scalar OsgEarthNet.uav[14] utilizationCountOverdrawnAfterMission 0
scalar OsgEarthNet.uav[14] utilizationCountIdleState 45
scalar OsgEarthNet.uav[14] utilizationFail 0
scalar OsgEarthNet.uav[14] simulationTime 259200
scalar OsgEarthNet.uav[15] utilizationSecMission 20635.943173353
scalar OsgEarthNet.uav[15] utilizationSecMaintenance 8916.7203772937
scalar OsgEarthNet.uav[15] utilizationSecCharge 108080
scalar OsgEarthNet.uav[15] utilizationSecIdle 121567.33544935
scalar OsgEarthNet.uav[15] utilizationEnergyMission 94937.190406799
scalar OsgEarthNet.uav[15] utilizationEnergyMaintenance 41217.650436401
scalar OsgEarthNet.uav[15] utilizationEnergyCharge 135819.87646484
scalar OsgEarthNet.uav[15] utilizationEnergyOverdrawMission 0
scalar OsgEarthNet.uav[15] utilizationEnergyOverdrawMaintenance 0
scalar OsgEarthNet.uav[15] utilizationCountMissions 29
scalar OsgEarthNet.uav[15] utilizationCountManeuversMission 334
scalar OsgEarthNet.uav[15] utilizationCountManeuversMaintenance 58
scalar OsgEarthNet.uav[15] utilizationCountChargeState 29
scalar OsgEarthNet.uav[15] utilizationCountOverdrawnAfterMission 0
scalar OsgEarthNet.uav[15] utilizationCountIdleState 30
scalar OsgEarthNet.uav[15] utilizationFail 0
scalar OsgEarthNet.uav[15] simulationTime 259200
scalar OsgEarthNet.uav[16] utilizationSecMission 760.62515258028
scalar OsgEarthNet.uav[16] utilizationSecMaintenance 291.95923480269
scalar OsgEarthNet.uav[16] utilizationSecCharge 3850
scalar OsgEarthNet.uav[16] utilizationSecIdle 254297.41461262
scalar OsgEarthNet.uav[16] utilizationEnergyMission 3444.8330993652
scalar OsgEarthNet.uav[16] utilizationEnergyMaintenance 1421.806602478
scalar OsgEarthNet.uav[16] utilizationEnergyCharge 4866.6391601562
scalar OsgEarthNet.uav[16] utilizationEnergyOverdrawMission 0
scalar OsgEarthNet.uav[16] utilizationEnergyOverdrawMaintenance 0
scalar OsgEarthNet.uav[16] utilizationCountMissions 1
scalar OsgEarthNet.uav[16] utilizationCountManeuversMission 12
scalar OsgEarthNet.uav[16] utilizationCountManeuversMaintenance 2
scalar OsgEarthNet.uav[16] utilizationCountChargeState 1
scalar OsgEarthNet.uav[16] utilizationCountOverdrawnAfterMission 0
scalar OsgEarthNet.uav[16] utilizationCountIdleState 2
scalar OsgEarthNet.uav[16] utilizationFail 0
scalar OsgEarthNet.uav[16] simulationTime 259200
scalar OsgEarthNet.uav[17] utilizationSecMission 13382.452014715
scalar OsgEarthNet.uav[17] utilizationSecMaintenance 7538.1413231042
scalar OsgEarthNet.uav[17] utilizationSecCharge 77545.027034194
scalar OsgEarthNet.uav[17] utilizationSecIdle 160734.37862799
scalar OsgEarthNet.uav[17] utilizationEnergyMission 61799.517894745
scalar OsgEarthNet.uav[17] utilizationEnergyMaintenance 35024.234554291
scalar OsgEarthNet.uav[17] utilizationEnergyCharge 96782.901367188
scalar OsgEarthNet.uav[17] utilizationEnergyOverdrawMission 0
scalar OsgEarthNet.uav[17] utilizationEnergyOverdrawMaintenance 0
scalar OsgEarthNet.uav[17] utilizationCountMissions 21
scalar OsgEarthNet.uav[17] utilizationCountManeuversMission 235
scalar OsgEarthNet.uav[17] utilizationCountManeuversMaintenance 42
scalar OsgEarthNet.uav[17] utilizationCountChargeState 21
scalar OsgEarthNet.uav[17] utilizationCountOverdrawnAfterMission 0
scalar OsgEarthNet.uav[17] utilizationCountIdleState 21
scalar OsgEarthNet.uav[17] utilizationFail 0
scalar OsgEarthNet.uav[17] simulationTime 259200
scalar OsgEarthNet.uav[18] utilizationSecMission 29716.642708071
scalar OsgEarthNet.uav[18] utilizationSecMaintenance 13664.181181518
scalar OsgEarthNet.uav[18] utilizationSecCharge 158170
scalar OsgEarthNet.uav[18] utilizationSecIdle 57649.175110411
scalar OsgEarthNet.uav[18] utilizationEnergyMission 136259.15135634
scalar OsgEarthNet.uav[18] utilizationEnergyMaintenance 64066.105323792
scalar OsgEarthNet.uav[18] utilizationEnergyCharge 199232.1953125
scalar OsgEarthNet.uav[18] utilizationEnergyOverdrawMission 0
scalar OsgEarthNet.uav[18] utilizationEnergyOverdrawMaintenance 0
scalar OsgEarthNet.uav[18] utilizationCountMissions 42
scalar OsgEarthNet.uav[18] utilizationCountManeuversMission 472
scalar OsgEarthNet.uav[18] utilizationCountManeuversMaintenance 85
scalar OsgEarthNet.uav[18] utilizationCountChargeState 42
scalar OsgEarthNet.uav[18] utilizationCountOverdrawnAfterMission 0
scalar OsgEarthNet.uav[18] utilizationCountIdleState 43
scalar OsgEarthNet.uav[18] utilizationFail 0
scalar OsgEarthNet.uav[18] simulationTime 259200
scalar OsgEarthNet.uav[19] utilizationSecMission 553.12566654921
scalar OsgEarthNet.uav[19] utilizationSecMaintenance 450.43069856406
scalar OsgEarthNet.uav[19] utilizationSecCharge 3840
scalar OsgEarthNet.uav[19] utilizationSecIdle 254356.44263489
scalar OsgEarthNet.uav[19] utilizationEnergyMission 2653.9315795898
scalar OsgEarthNet.uav[19] utilizationEnergyMaintenance 2135.3898429871
scalar OsgEarthNet.uav[19] utilizationEnergyCharge 4816.857421875
scalar OsgEarthNet.uav[19] utilizationEnergyOverdrawMission 0
scalar OsgEarthNet.uav[19] utilizationEnergyOverdrawMaintenance 0
scalar OsgEarthNet.uav[19] utilizationCountMissions 1
scalar OsgEarthNet.uav[19] utilizationCountManeuversMission 9
scalar OsgEarthNet.uav[19] utilizationCountManeuversMaintenance 2
scalar OsgEarthNet.uav[19] utilizationCountChargeState 1
scalar OsgEarthNet.uav[19] utilizationCountOverdrawnAfterMission 0
scalar OsgEarthNet.uav[19] utilizationCountIdleState 2
scalar OsgEarthNet.uav[19] utilizationFail 0
scalar OsgEarthNet.uav[19] simulationTime 259200
scalar OsgEarthNet.uav[20] utilizationSecMission 29871.54455328
scalar OsgEarthNet.uav[20] utilizationSecMaintenance 13012.785582606
scalar OsgEarthNet.uav[20] utilizationSecCharge 157382.41654254
scalar OsgEarthNet.uav[20] utilizationSecIdle 58933.252321579
scalar OsgEarthNet.uav[20] utilizationEnergyMission 138876.17779541
scalar OsgEarthNet.uav[20] utilizationEnergyMaintenance 60476.915168762
scalar OsgEarthNet.uav[20] utilizationEnergyCharge 198781.79736328
scalar OsgEarthNet.uav[20] utilizationEnergyOverdrawMission 0
scalar OsgEarthNet.uav[20] utilizationEnergyOverdrawMaintenance 0
scalar OsgEarthNet.uav[20] utilizationCountMissions 42
scalar OsgEarthNet.uav[20] utilizationCountManeuversMission 476
scalar OsgEarthNet.uav[20] utilizationCountManeuversMaintenance 84
scalar OsgEarthNet.uav[20] utilizationCountChargeState 42
scalar OsgEarthNet.uav[20] utilizationCountOverdrawnAfterMission 0
scalar OsgEarthNet.uav[20] utilizationCountIdleState 42
scalar OsgEarthNet.uav[20] utilizationFail 0
scalar OsgEarthNet.uav[20] simulationTime 259200
scalar OsgEarthNet.uav[21] utilizationSecMission 27833.026562594
scalar OsgEarthNet.uav[21] utilizationSecMaintenance 14273.91366842
scalar OsgEarthNet.uav[21] utilizationSecCharge 152776.30376974
scalar OsgEarthNet.uav[21] utilizationSecIdle 64316.75499925
scalar OsgEarthNet.uav[21] utilizationEnergyMission 128760.97177887
scalar OsgEarthNet.uav[21] utilizationEnergyMaintenance 67245.098827362
scalar OsgEarthNet.uav[21] utilizationEnergyCharge 191822.69372559
scalar OsgEarthNet.uav[21] utilizationEnergyOverdrawMission 0
scalar OsgEarthNet.uav[21] utilizationEnergyOverdrawMaintenance 0
scalar OsgEarthNet.uav[21] utilizationCountMissions 42
scalar OsgEarthNet.uav[21] utilizationCountManeuversMission 454
scalar OsgEarthNet.uav[21] utilizationCountManeuversMaintenance 84
scalar OsgEarthNet.uav[21] utilizationCountChargeState 42
scalar OsgEarthNet.uav[21] utilizationCountOverdrawnAfterMission 0
scalar OsgEarthNet.uav[21] utilizationCountIdleState 42
scalar OsgEarthNet.uav[21] utilizationFail 0
scalar OsgEarthNet.uav[21] simulationTime 259200
scalar OsgEarthNet.uav[22] utilizationSecMission 5265.4298603121
scalar OsgEarthNet.uav[22] utilizationSecMaintenance 1859.335054006
scalar OsgEarthNet.uav[22] utilizationSecCharge 26430
scalar OsgEarthNet.uav[22] utilizationSecIdle 225645.23408568
scalar OsgEarthNet.uav[22] utilizationEnergyMission 24382.525932312
scalar OsgEarthNet.uav[22] utilizationEnergyMaintenance 8845.0214729309
scalar OsgEarthNet.uav[22] utilizationEnergyCharge 33334.59765625
scalar OsgEarthNet.uav[22] utilizationEnergyOverdrawMission 0
scalar OsgEarthNet.uav[22] utilizationEnergyOverdrawMaintenance 0
scalar OsgEarthNet.uav[22] utilizationCountMissions 7
scalar OsgEarthNet.uav[22] utilizationCountManeuversMission 84
scalar OsgEarthNet.uav[22] utilizationCountManeuversMaintenance 14
scalar OsgEarthNet.uav[22] utilizationCountChargeState 7
scalar OsgEarthNet.uav[22] utilizationCountOverdrawnAfterMission 0
scalar OsgEarthNet.uav[22] utilizationCountIdleState 8
scalar OsgEarthNet.uav[22] utilizationFail 0
scalar OsgEarthNet.uav[22] simulationTime 259200
scalar OsgEarthNet.uav[23] utilizationSecMission 836.77707522227
scalar OsgEarthNet.uav[23] utilizationSecMaintenance 217.0347828456
scalar OsgEarthNet.uav[23] utilizationSecCharge 3720
scalar OsgEarthNet.uav[23] utilizationSecIdle 254426.18714193
scalar OsgEarthNet.uav[23] utilizationEnergyMission 3696.439956665
scalar OsgEarthNet.uav[23] utilizationEnergyMaintenance 1016.651927948
scalar OsgEarthNet.uav[23] utilizationEnergyCharge 4713.09375
scalar OsgEarthNet.uav[23] utilizationEnergyOverdrawMission 0
scalar OsgEarthNet.uav[23] utilizationEnergyOverdrawMaintenance 0
scalar OsgEarthNet.uav[23] utilizationCountMissions 1
scalar OsgEarthNet.uav[23] utilizationCountManeuversMission 13
scalar OsgEarthNet.uav[23] utilizationCountManeuversMaintenance 2
scalar OsgEarthNet.uav[23] utilizationCountChargeState 1
scalar OsgEarthNet.uav[23] utilizationCountOverdrawnAfterMission 0
scalar OsgEarthNet.uav[23] utilizationCountIdleState 2
scalar OsgEarthNet.uav[23] utilizationFail 0
scalar OsgEarthNet.uav[23] simulationTime 259200
scalar OsgEarthNet.uav[24] utilizationSecMission 23845.872144169
scalar OsgEarthNet.uav[24] utilizationSecMaintenance 12601.125755352
scalar OsgEarthNet.uav[24] utilizationSecCharge 136580
scalar OsgEarthNet.uav[24] utilizationSecIdle 86173.001100479
scalar OsgEarthNet.uav[24] utilizationEnergyMission 111194.16290665
scalar OsgEarthNet.uav[24] utilizationEnergyMaintenance 59493.282283783
scalar OsgEarthNet.uav[24] utilizationEnergyCharge 170674.84277344
scalar OsgEarthNet.uav[24] utilizationEnergyOverdrawMission 0
scalar OsgEarthNet.uav[24] utilizationEnergyOverdrawMaintenance 0
scalar OsgEarthNet.uav[24] utilizationCountMissions 37
scalar OsgEarthNet.uav[24] utilizationCountManeuversMission 403
scalar OsgEarthNet.uav[24] utilizationCountManeuversMaintenance 74
scalar OsgEarthNet.uav[24] utilizationCountChargeState 37
scalar OsgEarthNet.uav[24] utilizationCountOverdrawnAfterMission 0
scalar OsgEarthNet.uav[24] utilizationCountIdleState 38
scalar OsgEarthNet.uav[24] utilizationFail 0
scalar OsgEarthNet.uav[24] simulationTime 259200
scalar OsgEarthNet.uav[25] utilizationSecMission 26186.33457969
scalar OsgEarthNet.uav[25] utilizationSecMaintenance 11973.55632505
scalar OsgEarthNet.uav[25] utilizationSecCharge 138784.65244186
scalar OsgEarthNet.uav[25] utilizationSecIdle 82255.455653403
scalar OsgEarthNet.uav[25] utilizationEnergyMission 121697.2386322
scalar OsgEarthNet.uav[25] utilizationEnergyMaintenance 55572.801998138
scalar OsgEarthNet.uav[25] utilizationEnergyCharge 174439.55761719
scalar OsgEarthNet.uav[25] utilizationEnergyOverdrawMission 0
scalar OsgEarthNet.uav[25] utilizationEnergyOverdrawMaintenance 0
scalar OsgEarthNet.uav[25] utilizationCountMissions 38
scalar OsgEarthNet.uav[25] utilizationCountManeuversMission 420
scalar OsgEarthNet.uav[25] utilizationCountManeuversMaintenance 76
scalar OsgEarthNet.uav[25] utilizationCountChargeState 38
scalar OsgEarthNet.uav[25] utilizationCountOverdrawnAfterMission 0
scalar OsgEarthNet.uav[25] utilizationCountIdleState 38
scalar OsgEarthNet.uav[25] utilizationFail 0
scalar OsgEarthNet.uav[25] simulationTime 259200
scalar OsgEarthNet.uav[26] utilizationSecMission 750.20472747826
scalar OsgEarthNet.uav[26] utilizationSecMaintenance 335.16822070369
scalar OsgEarthNet.uav[26] utilizationSecCharge 3810
scalar OsgEarthNet.uav[26] utilizationSecIdle 254304.62605182
scalar OsgEarthNet.uav[26] utilizationEnergyMission 3224.9586029053
scalar OsgEarthNet.uav[26] utilizationEnergyMaintenance 1617.5136833191
scalar OsgEarthNet.uav[26] utilizationEnergyCharge 4842.4692382812
scalar OsgEarthNet.uav[26] utilizationEnergyOverdrawMission 0
scalar OsgEarthNet.uav[26] utilizationEnergyOverdrawMaintenance 0
scalar OsgEarthNet.uav[26] utilizationCountMissions 1
scalar OsgEarthNet.uav[26] utilizationCountManeuversMission 11
scalar OsgEarthNet.uav[26] utilizationCountManeuversMaintenance 2
scalar OsgEarthNet.uav[26] utilizationCountChargeState 1
scalar OsgEarthNet.uav[26] utilizationCountOverdrawnAfterMission 0
scalar OsgEarthNet.uav[26] utilizationCountIdleState 2
scalar OsgEarthNet.uav[26] utilizationFail 0
scalar OsgEarthNet.uav[26] simulationTime 259200
scalar OsgEarthNet.uav[27] utilizationSecMission 26704.026578593
scalar OsgEarthNet.uav[27] utilizationSecMaintenance 15325.457681523
scalar OsgEarthNet.uav[27] utilizationSecCharge 156462.14691874
scalar OsgEarthNet.uav[27] utilizationSecIdle 60708.367821146
scalar OsgEarthNet.uav[27] utilizationEnergyMission 124293.06451416
scalar OsgEarthNet.uav[27] utilizationEnergyMaintenance 72337.920436859
scalar OsgEarthNet.uav[27] utilizationEnergyCharge 196595.39892578
scalar OsgEarthNet.uav[27] utilizationEnergyOverdrawMission 0
scalar OsgEarthNet.uav[27] utilizationEnergyOverdrawMaintenance 0
scalar OsgEarthNet.uav[27] utilizationCountMissions 42
scalar OsgEarthNet.uav[27] utilizationCountManeuversMission 450
scalar OsgEarthNet.uav[27] utilizationCountManeuversMaintenance 84
scalar OsgEarthNet.uav[27] utilizationCountChargeState 42
scalar OsgEarthNet.uav[27] utilizationCountOverdrawnAfterMission 0
scalar OsgEarthNet.uav[27] utilizationCountIdleState 42
scalar OsgEarthNet.uav[27] utilizationFail 0
scalar OsgEarthNet.uav[27] simulationTime 259200
scalar OsgEarthNet.uav[28] utilizationSecMission 887.1741082606
scalar OsgEarthNet.uav[28] utilizationSecMaintenance 181.20511066264
scalar OsgEarthNet.uav[28] utilizationSecCharge 3930
scalar OsgEarthNet.uav[28] utilizationSecIdle 254201.61978108
scalar OsgEarthNet.uav[28] utilizationEnergyMission 3876.1708145142
scalar OsgEarthNet.uav[28] utilizationEnergyMaintenance 856.91437911987
scalar OsgEarthNet.uav[28] utilizationEnergyCharge 5066.3227539062
scalar OsgEarthNet.uav[28] utilizationEnergyOverdrawMission 0
scalar OsgEarthNet.uav[28] utilizationEnergyOverdrawMaintenance 0
scalar OsgEarthNet.uav[28] utilizationCountMissions 1
scalar OsgEarthNet.uav[28] utilizationCountManeuversMission 14
scalar OsgEarthNet.uav[28] utilizationCountManeuversMaintenance 2
scalar OsgEarthNet.uav[28] utilizationCountChargeState 1
scalar OsgEarthNet.uav[28] utilizationCountOverdrawnAfterMission 0
scalar OsgEarthNet.uav[28] utilizationCountIdleState 2
scalar OsgEarthNet.uav[28] utilizationFail 0
scalar OsgEarthNet.uav[28] simulationTime 259200
scalar OsgEarthNet.uav[29] utilizationSecMission 760.62515258028
scalar OsgEarthNet.uav[29] utilizationSecMaintenance 291.95923480269
scalar OsgEarthNet.uav[29] utilizationSecCharge 3820
scalar OsgEarthNet.uav[29] utilizationSecIdle 254327.41461262
scalar OsgEarthNet.uav[29] utilizationEnergyMission 3381.2296142578
scalar OsgEarthNet.uav[29] utilizationEnergyMaintenance 1415.9430160522
scalar OsgEarthNet.uav[29] utilizationEnergyCharge 4797.1704101562
scalar OsgEarthNet.uav[29] utilizationEnergyOverdrawMission 0
scalar OsgEarthNet.uav[29] utilizationEnergyOverdrawMaintenance 0
scalar OsgEarthNet.uav[29] utilizationCountMissions 1
scalar OsgEarthNet.uav[29] utilizationCountManeuversMission 12
scalar OsgEarthNet.uav[29] utilizationCountManeuversMaintenance 2
scalar OsgEarthNet.uav[29] utilizationCountChargeState 1
scalar OsgEarthNet.uav[29] utilizationCountOverdrawnAfterMission 0
scalar OsgEarthNet.uav[29] utilizationCountIdleState 2
scalar OsgEarthNet.uav[29] utilizationFail 0
scalar OsgEarthNet.uav[29] simulationTime 259200
scalar OsgEarthNet.uav[30] utilizationSecMission 684.4732299383
scalar OsgEarthNet.uav[30] utilizationSecMaintenance 298.56834692969
scalar OsgEarthNet.uav[30] utilizationSecCharge 3630
scalar OsgEarthNet.uav[30] utilizationSecIdle 254586.95742313
scalar OsgEarthNet.uav[30] utilizationEnergyMission 3102.0541305542
scalar OsgEarthNet.uav[30] utilizationEnergyMaintenance 1499.297782898
scalar OsgEarthNet.uav[30] utilizationEnergyCharge 4601.3525390625
scalar OsgEarthNet.uav[30] utilizationEnergyOverdrawMission 0
scalar OsgEarthNet.uav[30] utilizationEnergyOverdrawMaintenance 0
scalar OsgEarthNet.uav[30] utilizationCountMissions 1
scalar OsgEarthNet.uav[30] utilizationCountManeuversMission 11
scalar OsgEarthNet.uav[30] utilizationCountManeuversMaintenance 2
scalar OsgEarthNet.uav[30] utilizationCountChargeState 1
scalar OsgEarthNet.uav[30] utilizationCountOverdrawnAfterMission 0
scalar OsgEarthNet.uav[30] utilizationCountIdleState 2
scalar OsgEarthNet.uav[30] utilizationFail 0
scalar OsgEarthNet.uav[30] simulationTime 259200
scalar OsgEarthNet.uav[31] utilizationSecMission 553.12566654921
scalar OsgEarthNet.uav[31] utilizationSecMaintenance 489.82638271256
scalar OsgEarthNet.uav[31] utilizationSecCharge 3770
scalar OsgEarthNet.uav[31] utilizationSecIdle 254387.04695074
scalar OsgEarthNet.uav[31] utilizationEnergyMission 2211.6349716187
scalar OsgEarthNet.uav[31] utilizationEnergyMaintenance 2531.3086662292
scalar OsgEarthNet.uav[31] utilizationEnergyCharge 4725.7260742188
scalar OsgEarthNet.uav[31] utilizationEnergyOverdrawMission 0
scalar OsgEarthNet.uav[31] utilizationEnergyOverdrawMaintenance 0
scalar OsgEarthNet.uav[31] utilizationCountMissions 1
scalar OsgEarthNet.uav[31] utilizationCountManeuversMission 9
scalar OsgEarthNet.uav[31] utilizationCountManeuversMaintenance 2
scalar OsgEarthNet.uav[31] utilizationCountChargeState 1
scalar OsgEarthNet.uav[31] utilizationCountOverdrawnAfterMission 0
scalar OsgEarthNet.uav[31] utilizationCountIdleState 2
scalar OsgEarthNet.uav[31] utilizationFail 0
scalar OsgEarthNet.uav[31] simulationTime 259200
scalar OsgEarthNet.uav[32] utilizationSecMission 887.1741082606
scalar OsgEarthNet.uav[32] utilizationSecMaintenance 171.13387461676
scalar OsgEarthNet.uav[32] utilizationSecCharge 3810
scalar OsgEarthNet.uav[32] utilizationSecIdle 254331.69101712
scalar OsgEarthNet.uav[32] utilizationEnergyMission 3917.9513244629
scalar OsgEarthNet.uav[32] utilizationEnergyMaintenance 829.46599578857
scalar OsgEarthNet.uav[32] utilizationEnergyCharge 4817.228515625
scalar OsgEarthNet.uav[32] utilizationEnergyOverdrawMission 0
scalar OsgEarthNet.uav[32] utilizationEnergyOverdrawMaintenance 0
scalar OsgEarthNet.uav[32] utilizationCountMissions 1
scalar OsgEarthNet.uav[32] utilizationCountManeuversMission 14
scalar OsgEarthNet.uav[32] utilizationCountManeuversMaintenance 2
scalar OsgEarthNet.uav[32] utilizationCountChargeState 1
scalar OsgEarthNet.uav[32] utilizationCountOverdrawnAfterMission 0
scalar OsgEarthNet.uav[32] utilizationCountIdleState 2
scalar OsgEarthNet.uav[32] utilizationFail 0
scalar OsgEarthNet.uav[32] simulationTime 259200
scalar OsgEarthNet.uav[33] utilizationSecMission 702.6942798579
scalar OsgEarthNet.uav[33] utilizationSecMaintenance 282.29565405678
scalar OsgEarthNet.uav[33] utilizationSecCharge 3700
scalar OsgEarthNet.uav[33] utilizationSecIdle 254515.00906609
scalar OsgEarthNet.uav[33] utilizationEnergyMission 3256.3294830322
scalar OsgEarthNet.uav[33] utilizationEnergyMaintenance 1358.5470085144
scalar OsgEarthNet.uav[33] utilizationEnergyCharge 4614.87890625
scalar OsgEarthNet.uav[33] utilizationEnergyOverdrawMission 0
scalar OsgEarthNet.uav[33] utilizationEnergyOverdrawMaintenance 0
scalar OsgEarthNet.uav[33] utilizationCountMissions 1
scalar OsgEarthNet.uav[33] utilizationCountManeuversMission 10
scalar OsgEarthNet.uav[33] utilizationCountManeuversMaintenance 2
scalar OsgEarthNet.uav[33] utilizationCountChargeState 1
scalar OsgEarthNet.uav[33] utilizationCountOverdrawnAfterMission 0
scalar OsgEarthNet.uav[33] utilizationCountIdleState 2
scalar OsgEarthNet.uav[33] utilizationFail 0
scalar OsgEarthNet.uav[33] simulationTime 259200
scalar OsgEarthNet.uav[34] utilizationSecMission 29274.620118454
scalar OsgEarthNet.uav[34] utilizationSecMaintenance 12485.837499285
scalar OsgEarthNet.uav[34] utilizationSecCharge 154313.80626989
scalar OsgEarthNet.uav[34] utilizationSecIdle 63125.73511237
scalar OsgEarthNet.uav[34] utilizationEnergyMission 134014.19560242
scalar OsgEarthNet.uav[34] utilizationEnergyMaintenance 58858.145652771
scalar OsgEarthNet.uav[34] utilizationEnergyCharge 193308.94165039
scalar OsgEarthNet.uav[34] utilizationEnergyOverdrawMission 0
scalar OsgEarthNet.uav[34] utilizationEnergyOverdrawMaintenance 0
scalar OsgEarthNet.uav[34] utilizationCountMissions 42
scalar OsgEarthNet.uav[34] utilizationCountManeuversMission 470
scalar OsgEarthNet.uav[34] utilizationCountManeuversMaintenance 84
scalar OsgEarthNet.uav[34] utilizationCountChargeState 42
scalar OsgEarthNet.uav[34] utilizationCountOverdrawnAfterMission 0
scalar OsgEarthNet.uav[34] utilizationCountIdleState 42
scalar OsgEarthNet.uav[34] utilizationFail 0
scalar OsgEarthNet.uav[34] simulationTime 259200
scalar OsgEarthNet.uav[35] utilizationSecMission 929.66633852757
scalar OsgEarthNet.uav[35] utilizationSecMaintenance 183.39004742748
scalar OsgEarthNet.uav[35] utilizationSecCharge 3770
scalar OsgEarthNet.uav[35] utilizationSecIdle 254316.94261404
scalar OsgEarthNet.uav[35] utilizationEnergyMission 3990.9992675781
scalar OsgEarthNet.uav[35] utilizationEnergyMaintenance 856.57155609131
scalar OsgEarthNet.uav[35] utilizationEnergyCharge 4757.8125
scalar OsgEarthNet.uav[35] utilizationEnergyOverdrawMission 0
scalar OsgEarthNet.uav[35] utilizationEnergyOverdrawMaintenance 0
scalar OsgEarthNet.uav[35] utilizationCountMissions 1
scalar OsgEarthNet.uav[35] utilizationCountManeuversMission 15
scalar OsgEarthNet.uav[35] utilizationCountManeuversMaintenance 2
scalar OsgEarthNet.uav[35] utilizationCountChargeState 1
scalar OsgEarthNet.uav[35] utilizationCountOverdrawnAfterMission 0
scalar OsgEarthNet.uav[35] utilizationCountIdleState 2
scalar OsgEarthNet.uav[35] utilizationFail 0
scalar OsgEarthNet.uav[35] simulationTime 259200
scalar OsgEarthNet.uav[36] utilizationSecMission 760.62515258028
scalar OsgEarthNet.uav[36] utilizationSecMaintenance 223.6438949726
scalar OsgEarthNet.uav[36] utilizationSecCharge 3790
scalar OsgEarthNet.uav[36] utilizationSecIdle 254425.72995245
scalar OsgEarthNet.uav[36] utilizationEnergyMission 3662.840423584
scalar OsgEarthNet.uav[36] utilizationEnergyMaintenance 1085.3438529968
scalar OsgEarthNet.uav[36] utilizationEnergyCharge 4748.1831054688
scalar OsgEarthNet.uav[36] utilizationEnergyOverdrawMission 0
scalar OsgEarthNet.uav[36] utilizationEnergyOverdrawMaintenance 0
scalar OsgEarthNet.uav[36] utilizationCountMissions 1
scalar OsgEarthNet.uav[36] utilizationCountManeuversMission 12
scalar OsgEarthNet.uav[36] utilizationCountManeuversMaintenance 2
scalar OsgEarthNet.uav[36] utilizationCountChargeState 1
scalar OsgEarthNet.uav[36] utilizationCountOverdrawnAfterMission 0
scalar OsgEarthNet.uav[36] utilizationCountIdleState 2
scalar OsgEarthNet.uav[36] utilizationFail 0
scalar OsgEarthNet.uav[36] simulationTime 259200
scalar OsgEarthNet.uav[37] utilizationSecMission 29190.450913667
scalar OsgEarthNet.uav[37] utilizationSecMaintenance 13084.784557616
scalar OsgEarthNet.uav[37] utilizationSecCharge 155840
scalar OsgEarthNet.uav[37] utilizationSecIdle 61084.763528717
scalar OsgEarthNet.uav[37] utilizationEnergyMission 133197.01397705
scalar OsgEarthNet.uav[37] utilizationEnergyMaintenance 61912.954292297
scalar OsgEarthNet.uav[37] utilizationEnergyCharge 195001.97998047
scalar OsgEarthNet.uav[37] utilizationEnergyOverdrawMission 0
scalar OsgEarthNet.uav[37] utilizationEnergyOverdrawMaintenance 0
scalar OsgEarthNet.uav[37] utilizationCountMissions 42
scalar OsgEarthNet.uav[37] utilizationCountManeuversMission 487
scalar OsgEarthNet.uav[37] utilizationCountManeuversMaintenance 84
scalar OsgEarthNet.uav[37] utilizationCountChargeState 42
scalar OsgEarthNet.uav[37] utilizationCountOverdrawnAfterMission 0
scalar OsgEarthNet.uav[37] utilizationCountIdleState 43
scalar OsgEarthNet.uav[37] utilizationFail 0
scalar OsgEarthNet.uav[37] simulationTime 259200
scalar OsgEarthNet.uav[38] utilizationSecMission 29036.062686041
scalar OsgEarthNet.uav[38] utilizationSecMaintenance 14700.14792276
scalar OsgEarthNet.uav[38] utilizationSecCharge 160701.7883912
scalar OsgEarthNet.uav[38] utilizationSecIdle 54762
scalar OsgEarthNet.uav[38] utilizationEnergyMission 134885.75264329
scalar OsgEarthNet.uav[38] utilizationEnergyMaintenance 69135.627761841
scalar OsgEarthNet.uav[38] utilizationEnergyCharge 201714.67663574
scalar OsgEarthNet.uav[38] utilizationEnergyOverdrawMission 0
scalar OsgEarthNet.uav[38] utilizationEnergyOverdrawMaintenance 0
scalar OsgEarthNet.uav[38] utilizationCountMissions 44
scalar OsgEarthNet.uav[38] utilizationCountManeuversMission 470
scalar OsgEarthNet.uav[38] utilizationCountManeuversMaintenance 87
scalar OsgEarthNet.uav[38] utilizationCountChargeState 44
scalar OsgEarthNet.uav[38] utilizationCountOverdrawnAfterMission 0
scalar OsgEarthNet.uav[38] utilizationCountIdleState 44
scalar OsgEarthNet.uav[38] utilizationFail 0
scalar OsgEarthNet.uav[38] simulationTime 259200
scalar OsgEarthNet.uav[39] utilizationSecMission 684.4732299383
scalar OsgEarthNet.uav[39] utilizationSecMaintenance 298.56834692969
scalar OsgEarthNet.uav[39] utilizationSecCharge 3700
scalar OsgEarthNet.uav[39] utilizationSecIdle 254516.95742313
scalar OsgEarthNet.uav[39] utilizationEnergyMission 3226.2894439697
scalar OsgEarthNet.uav[39] utilizationEnergyMaintenance 1460.0650253296
scalar OsgEarthNet.uav[39] utilizationEnergyCharge 4686.3540039062
scalar OsgEarthNet.uav[39] utilizationEnergyOverdrawMission 0
scalar OsgEarthNet.uav[39] utilizationEnergyOverdrawMaintenance 0
scalar OsgEarthNet.uav[39] utilizationCountMissions 1
scalar OsgEarthNet.uav[39] utilizationCountManeuversMission 11
scalar OsgEarthNet.uav[39] utilizationCountManeuversMaintenance 2
scalar OsgEarthNet.uav[39] utilizationCountChargeState 1
scalar OsgEarthNet.uav[39] utilizationCountOverdrawnAfterMission 0
scalar OsgEarthNet.uav[39] utilizationCountIdleState 2
scalar OsgEarthNet.uav[39] utilizationFail 0
scalar OsgEarthNet.uav[39] simulationTime 259200
scalar OsgEarthNet.uav[40] utilizationSecMission 836.77707522227
scalar OsgEarthNet.uav[40] utilizationSecMaintenance 217.0347828456
scalar OsgEarthNet.uav[40] utilizationSecCharge 3910
scalar OsgEarthNet.uav[40] utilizationSecIdle 254236.18714193
scalar OsgEarthNet.uav[40] utilizationEnergyMission 3909.884223938
scalar OsgEarthNet.uav[40] utilizationEnergyMaintenance 1087.4104118347
scalar OsgEarthNet.uav[40] utilizationEnergyCharge 4997.296875
scalar OsgEarthNet.uav[40] utilizationEnergyOverdrawMission 0
scalar OsgEarthNet.uav[40] utilizationEnergyOverdrawMaintenance 0
scalar OsgEarthNet.uav[40] utilizationCountMissions 1
scalar OsgEarthNet.uav[40] utilizationCountManeuversMission 13
scalar OsgEarthNet.uav[40] utilizationCountManeuversMaintenance 2
scalar OsgEarthNet.uav[40] utilizationCountChargeState 1
scalar OsgEarthNet.uav[40] utilizationCountOverdrawnAfterMission 0
scalar OsgEarthNet.uav[40] utilizationCountIdleState 2
scalar OsgEarthNet.uav[40] utilizationFail 0
scalar OsgEarthNet.uav[40] simulationTime 259200
scalar OsgEarthNet.uav[41] utilizationSecMission 21569.697650035
scalar OsgEarthNet.uav[41] utilizationSecMaintenance 10616.838741983
scalar OsgEarthNet.uav[41] utilizationSecCharge 119150
scalar OsgEarthNet.uav[41] utilizationSecIdle 107863.46260798
scalar OsgEarthNet.uav[41] utilizationEnergyMission 99081.270309448
scalar OsgEarthNet.uav[41] utilizationEnergyMaintenance 50143.110515594
scalar OsgEarthNet.uav[41] utilizationEnergyCharge 149330.39648438
scalar OsgEarthNet.uav[41] utilizationEnergyOverdrawMission 0
scalar OsgEarthNet.uav[41] utilizationEnergyOverdrawMaintenance 0
scalar OsgEarthNet.uav[41] utilizationCountMissions 32
scalar OsgEarthNet.uav[41] utilizationCountManeuversMission 355
scalar OsgEarthNet.uav[41] utilizationCountManeuversMaintenance 64
scalar OsgEarthNet.uav[41] utilizationCountChargeState 32
scalar OsgEarthNet.uav[41] utilizationCountOverdrawnAfterMission 0
scalar OsgEarthNet.uav[41] utilizationCountIdleState 33
scalar OsgEarthNet.uav[41] utilizationFail 0
scalar OsgEarthNet.uav[41] simulationTime 259200
scalar OsgEarthNet.uav[42] utilizationSecMission 766.82734763767
scalar OsgEarthNet.uav[42] utilizationSecMaintenance 306.92101052153
scalar OsgEarthNet.uav[42] utilizationSecCharge 3790
scalar OsgEarthNet.uav[42] utilizationSecIdle 254336.25064184
scalar OsgEarthNet.uav[42] utilizationEnergyMission 3329.1174163818
scalar OsgEarthNet.uav[42] utilizationEnergyMaintenance 1446.0124130249
scalar OsgEarthNet.uav[42] utilizationEnergyCharge 4775.1318359375
scalar OsgEarthNet.uav[42] utilizationEnergyOverdrawMission 0
scalar OsgEarthNet.uav[42] utilizationEnergyOverdrawMaintenance 0
scalar OsgEarthNet.uav[42] utilizationCountMissions 1
scalar OsgEarthNet.uav[42] utilizationCountManeuversMission 14
scalar OsgEarthNet.uav[42] utilizationCountManeuversMaintenance 2
scalar OsgEarthNet.uav[42] utilizationCountChargeState 1
scalar OsgEarthNet.uav[42] utilizationCountOverdrawnAfterMission 0
scalar OsgEarthNet.uav[42] utilizationCountIdleState 2
scalar OsgEarthNet.uav[42] utilizationFail 0
scalar OsgEarthNet.uav[42] simulationTime 259200
scalar OsgEarthNet.uav[43] utilizationSecMission 29175.0362069
scalar OsgEarthNet.uav[43] utilizationSecMaintenance 15474.627271405
scalar OsgEarthNet.uav[43] utilizationSecCharge 166088.3355217
scalar OsgEarthNet.uav[43] utilizationSecIdle 48462
scalar OsgEarthNet.uav[43] utilizationEnergyMission 135508.22501877
scalar OsgEarthNet.uav[43] utilizationEnergyMaintenance 71926.842327118
scalar OsgEarthNet.uav[43] utilizationEnergyCharge 207906.75976562
scalar OsgEarthNet.uav[43] utilizationEnergyOverdrawMission 0
scalar OsgEarthNet.uav[43] utilizationEnergyOverdrawMaintenance 0
scalar OsgEarthNet.uav[43] utilizationCountMissions 45
scalar OsgEarthNet.uav[43] utilizationCountManeuversMission 482
scalar OsgEarthNet.uav[43] utilizationCountManeuversMaintenance 89
scalar OsgEarthNet.uav[43] utilizationCountChargeState 45
scalar OsgEarthNet.uav[43] utilizationCountOverdrawnAfterMission 0
scalar OsgEarthNet.uav[43] utilizationCountIdleState 45
scalar OsgEarthNet.uav[43] utilizationFail 0
scalar OsgEarthNet.uav[43] simulationTime 259200
scalar OsgEarthNet.uav[44] utilizationSecMission 23041.845249817
scalar OsgEarthNet.uav[44] utilizationSecMaintenance 11111.780525617
scalar OsgEarthNet.uav[44] utilizationSecCharge 126810
scalar OsgEarthNet.uav[44] utilizationSecIdle 98236.373224566
scalar OsgEarthNet.uav[44] utilizationEnergyMission 106776.22779083
scalar OsgEarthNet.uav[44] utilizationEnergyMaintenance 52571.250333085
scalar OsgEarthNet.uav[44] utilizationEnergyCharge 158951.67407227
scalar OsgEarthNet.uav[44] utilizationEnergyOverdrawMission 0
scalar OsgEarthNet.uav[44] utilizationEnergyOverdrawMaintenance 0
scalar OsgEarthNet.uav[44] utilizationCountMissions 34
scalar OsgEarthNet.uav[44] utilizationCountManeuversMission 369
scalar OsgEarthNet.uav[44] utilizationCountManeuversMaintenance 69
scalar OsgEarthNet.uav[44] utilizationCountChargeState 34
scalar OsgEarthNet.uav[44] utilizationCountOverdrawnAfterMission 0
scalar OsgEarthNet.uav[44] utilizationCountIdleState 35
scalar OsgEarthNet.uav[44] utilizationFail 0
scalar OsgEarthNet.uav[44] simulationTime 259200
scalar OsgEarthNet.uav[45] utilizationSecMission 29761.937382427
scalar OsgEarthNet.uav[45] utilizationSecMaintenance 13953.116090764
scalar OsgEarthNet.uav[45] utilizationSecCharge 159898.59530599
scalar OsgEarthNet.uav[45] utilizationSecIdle 55586.350220821
scalar OsgEarthNet.uav[45] utilizationEnergyMission 138063.4187851
scalar OsgEarthNet.uav[45] utilizationEnergyMaintenance 65445.389877319
scalar OsgEarthNet.uav[45] utilizationEnergyCharge 201838.99584961
scalar OsgEarthNet.uav[45] utilizationEnergyOverdrawMission 0
scalar OsgEarthNet.uav[45] utilizationEnergyOverdrawMaintenance 0
scalar OsgEarthNet.uav[45] utilizationCountMissions 43
scalar OsgEarthNet.uav[45] utilizationCountManeuversMission 474
scalar OsgEarthNet.uav[45] utilizationCountManeuversMaintenance 86
scalar OsgEarthNet.uav[45] utilizationCountChargeState 43
scalar OsgEarthNet.uav[45] utilizationCountOverdrawnAfterMission 0
scalar OsgEarthNet.uav[45] utilizationCountIdleState 43
scalar OsgEarthNet.uav[45] utilizationFail 0
scalar OsgEarthNet.uav[45] simulationTime 259200
scalar OsgEarthNet.uav[46] utilizationSecMission 760.62515258028
scalar OsgEarthNet.uav[46] utilizationSecMaintenance 291.95923480269
scalar OsgEarthNet.uav[46] utilizationSecCharge 3820
scalar OsgEarthNet.uav[46] utilizationSecIdle 254327.41461262
scalar OsgEarthNet.uav[46] utilizationEnergyMission 3542.818107605
scalar OsgEarthNet.uav[46] utilizationEnergyMaintenance 1283.6676559448
scalar OsgEarthNet.uav[46] utilizationEnergyCharge 4826.4887695312
scalar OsgEarthNet.uav[46] utilizationEnergyOverdrawMission 0
scalar OsgEarthNet.uav[46] utilizationEnergyOverdrawMaintenance 0
scalar OsgEarthNet.uav[46] utilizationCountMissions 1
scalar OsgEarthNet.uav[46] utilizationCountManeuversMission 12
scalar OsgEarthNet.uav[46] utilizationCountManeuversMaintenance 2
scalar OsgEarthNet.uav[46] utilizationCountChargeState 1
scalar OsgEarthNet.uav[46] utilizationCountOverdrawnAfterMission 0
scalar OsgEarthNet.uav[46] utilizationCountIdleState 2
scalar OsgEarthNet.uav[46] utilizationFail 0
scalar OsgEarthNet.uav[46] simulationTime 259200
scalar OsgEarthNet.uav[47] utilizationSecMission 31200.976700816
scalar OsgEarthNet.uav[47] utilizationSecMaintenance 13204.202115128
scalar OsgEarthNet.uav[47] utilizationSecCharge 160430.32650891
scalar OsgEarthNet.uav[47] utilizationSecIdle 54364.493675148
scalar OsgEarthNet.uav[47] utilizationEnergyMission 143834.35671234
scalar OsgEarthNet.uav[47] utilizationEnergyMaintenance 61558.567840576
scalar OsgEarthNet.uav[47] utilizationEnergyCharge 201406.52807617
scalar OsgEarthNet.uav[47] utilizationEnergyOverdrawMission 0
scalar OsgEarthNet.uav[47] utilizationEnergyOverdrawMaintenance 0
scalar OsgEarthNet.uav[47] utilizationCountMissions 44
scalar OsgEarthNet.uav[47] utilizationCountManeuversMission 523
scalar OsgEarthNet.uav[47] utilizationCountManeuversMaintenance 88
scalar OsgEarthNet.uav[47] utilizationCountChargeState 44
scalar OsgEarthNet.uav[47] utilizationCountOverdrawnAfterMission 0
scalar OsgEarthNet.uav[47] utilizationCountIdleState 44
scalar OsgEarthNet.uav[47] utilizationFail 0
scalar OsgEarthNet.uav[47] simulationTime 259200
scalar OsgEarthNet.uav[48] utilizationSecMission 887.1741082606
scalar OsgEarthNet.uav[48] utilizationSecMaintenance 171.13387461676
scalar OsgEarthNet.uav[48] utilizationSecCharge 3840
scalar OsgEarthNet.uav[48] utilizationSecIdle 254301.69101712
scalar OsgEarthNet.uav[48] utilizationEnergyMission 3899.3024902344
scalar OsgEarthNet.uav[48] utilizationEnergyMaintenance 858.13854217529
scalar OsgEarthNet.uav[48] utilizationEnergyCharge 4881.521484375
scalar OsgEarthNet.uav[48] utilizationEnergyOverdrawMission 0
scalar OsgEarthNet.uav[48] utilizationEnergyOverdrawMaintenance 0
scalar OsgEarthNet.uav[48] utilizationCountMissions 1
scalar OsgEarthNet.uav[48] utilizationCountManeuversMission 14
scalar OsgEarthNet.uav[48] utilizationCountManeuversMaintenance 2
scalar OsgEarthNet.uav[48] utilizationCountChargeState 1
scalar OsgEarthNet.uav[48] utilizationCountOverdrawnAfterMission 0
scalar OsgEarthNet.uav[48] utilizationCountIdleState 2
scalar OsgEarthNet.uav[48] utilizationFail 0
scalar OsgEarthNet.uav[48] simulationTime 259200
scalar OsgEarthNet.uav[49] utilizationSecMission 760.62515258028
scalar OsgEarthNet.uav[49] utilizationSecMaintenance 291.95923480269
scalar OsgEarthNet.uav[49] utilizationSecCharge 3800
scalar OsgEarthNet.uav[49] utilizationSecIdle 254347.41461262
scalar OsgEarthNet.uav[49] utilizationEnergyMission 3504.4127655029
scalar OsgEarthNet.uav[49] utilizationEnergyMaintenance 1336.3355026245
scalar OsgEarthNet.uav[49] utilizationEnergyCharge 4840.7509765625
scalar OsgEarthNet.uav[49] utilizationEnergyOverdrawMission 0
scalar OsgEarthNet.uav[49] utilizationEnergyOverdrawMaintenance 0
scalar OsgEarthNet.uav[49] utilizationCountMissions 1
scalar OsgEarthNet.uav[49] utilizationCountManeuversMission 12
scalar OsgEarthNet.uav[49] utilizationCountManeuversMaintenance 2
scalar OsgEarthNet.uav[49] utilizationCountChargeState 1
scalar OsgEarthNet.uav[49] utilizationCountOverdrawnAfterMission 0
scalar OsgEarthNet.uav[49] utilizationCountIdleState 2
scalar OsgEarthNet.uav[49] utilizationFail 0
scalar OsgEarthNet.uav[49] simulationTime 259200
scalar OsgEarthNet.uav[50] utilizationSecMission 760.62515258028
scalar OsgEarthNet.uav[50] utilizationSecMaintenance 291.95923480269
scalar OsgEarthNet.uav[50] utilizationSecCharge 3890
scalar OsgEarthNet.uav[50] utilizationSecIdle 254257.41461262
scalar OsgEarthNet.uav[50] utilizationEnergyMission 3585.7580718994
scalar OsgEarthNet.uav[50] utilizationEnergyMaintenance 1376.1008224487
scalar OsgEarthNet.uav[50] utilizationEnergyCharge 4961.8603515625
scalar OsgEarthNet.uav[50] utilizationEnergyOverdrawMission 0
scalar OsgEarthNet.uav[50] utilizationEnergyOverdrawMaintenance 0
scalar OsgEarthNet.uav[50] utilizationCountMissions 1
scalar OsgEarthNet.uav[50] utilizationCountManeuversMission 12
scalar OsgEarthNet.uav[50] utilizationCountManeuversMaintenance 2
scalar OsgEarthNet.uav[50] utilizationCountChargeState 1
scalar OsgEarthNet.uav[50] utilizationCountOverdrawnAfterMission 0
scalar OsgEarthNet.uav[50] utilizationCountIdleState 2
scalar OsgEarthNet.uav[50] utilizationFail 0
scalar OsgEarthNet.uav[50] simulationTime 259200
scalar OsgEarthNet.uav[51] utilizationSecMission 7659.0668271824
scalar OsgEarthNet.uav[51] utilizationSecMaintenance 4221.0246147205
scalar OsgEarthNet.uav[51] utilizationSecCharge 43233.751963881
scalar OsgEarthNet.uav[51] utilizationSecIdle 204086.15559422
scalar OsgEarthNet.uav[51] utilizationEnergyMission 35313.276138306
scalar OsgEarthNet.uav[51] utilizationEnergyMaintenance 19992.359146118
scalar OsgEarthNet.uav[51] utilizationEnergyCharge 55088.812988281
scalar OsgEarthNet.uav[51] utilizationEnergyOverdrawMission 0
scalar OsgEarthNet.uav[51] utilizationEnergyOverdrawMaintenance 0
scalar OsgEarthNet.uav[51] utilizationCountMissions 12
scalar OsgEarthNet.uav[51] utilizationCountManeuversMission 133
scalar OsgEarthNet.uav[51] utilizationCountManeuversMaintenance 24
scalar OsgEarthNet.uav[51] utilizationCountChargeState 12
scalar OsgEarthNet.uav[51] utilizationCountOverdrawnAfterMission 0
scalar OsgEarthNet.uav[51] utilizationCountIdleState 12
scalar OsgEarthNet.uav[51] utilizationFail 0
scalar OsgEarthNet.uav[51] simulationTime 259200
scalar OsgEarthNet.uav[52] utilizationSecMission 29945.988206031
scalar OsgEarthNet.uav[52] utilizationSecMaintenance 14557.974695199
scalar OsgEarthNet.uav[52] utilizationSecCharge 160120
scalar OsgEarthNet.uav[52] utilizationSecIdle 54576.036098769
scalar OsgEarthNet.uav[52] utilizationEnergyMission 137740.57405853
scalar OsgEarthNet.uav[52] utilizationEnergyMaintenance 67886.483500318
scalar OsgEarthNet.uav[52] utilizationEnergyCharge 200684.28076172
scalar OsgEarthNet.uav[52] utilizationEnergyOverdrawMission 0
scalar OsgEarthNet.uav[52] utilizationEnergyOverdrawMaintenance 0
scalar OsgEarthNet.uav[52] utilizationCountMissions 44
scalar OsgEarthNet.uav[52] utilizationCountManeuversMission 486
scalar OsgEarthNet.uav[52] utilizationCountManeuversMaintenance 88
scalar OsgEarthNet.uav[52] utilizationCountChargeState 43
scalar OsgEarthNet.uav[52] utilizationCountOverdrawnAfterMission 0
scalar OsgEarthNet.uav[52] utilizationCountIdleState 44
scalar OsgEarthNet.uav[52] utilizationFail 0
scalar OsgEarthNet.uav[52] simulationTime 259200
scalar OsgEarthNet.uav[53] utilizationSecMission 664.13705230755
scalar OsgEarthNet.uav[53] utilizationSecMaintenance 395.66948748195
scalar OsgEarthNet.uav[53] utilizationSecCharge 3950
scalar OsgEarthNet.uav[53] utilizationSecIdle 254190.19246021
scalar OsgEarthNet.uav[53] utilizationEnergyMission 3036.2886505127
scalar OsgEarthNet.uav[53] utilizationEnergyMaintenance 1938.6875724792
scalar OsgEarthNet.uav[53] utilizationEnergyCharge 5033.7065429688
scalar OsgEarthNet.uav[53] utilizationEnergyOverdrawMission 0
scalar OsgEarthNet.uav[53] utilizationEnergyOverdrawMaintenance 0
scalar OsgEarthNet.uav[53] utilizationCountMissions 1
scalar OsgEarthNet.uav[53] utilizationCountManeuversMission 10
scalar OsgEarthNet.uav[53] utilizationCountManeuversMaintenance 2
scalar OsgEarthNet.uav[53] utilizationCountChargeState 1
scalar OsgEarthNet.uav[53] utilizationCountOverdrawnAfterMission 0
scalar OsgEarthNet.uav[53] utilizationCountIdleState 2
scalar OsgEarthNet.uav[53] utilizationFail 0
scalar OsgEarthNet.uav[53] simulationTime 259200
scalar OsgEarthNet.uav[54] utilizationSecMission 28300.758819533
scalar OsgEarthNet.uav[54] utilizationSecMaintenance 17513.772949815
scalar OsgEarthNet.uav[54] utilizationSecCharge 168333.46723065
scalar OsgEarthNet.uav[54] utilizationSecIdle 45052
scalar OsgEarthNet.uav[54] utilizationEnergyMission 131784.46411133
scalar OsgEarthNet.uav[54] utilizationEnergyMaintenance 82475.139339447
scalar OsgEarthNet.uav[54] utilizationEnergyCharge 211496.64880371
scalar OsgEarthNet.uav[54] utilizationEnergyOverdrawMission 0
scalar OsgEarthNet.uav[54] utilizationEnergyOverdrawMaintenance 0
scalar OsgEarthNet.uav[54] utilizationCountMissions 46
scalar OsgEarthNet.uav[54] utilizationCountManeuversMission 477
scalar OsgEarthNet.uav[54] utilizationCountManeuversMaintenance 91
scalar OsgEarthNet.uav[54] utilizationCountChargeState 46
scalar OsgEarthNet.uav[54] utilizationCountOverdrawnAfterMission 0
scalar OsgEarthNet.uav[54] utilizationCountIdleState 46
scalar OsgEarthNet.uav[54] utilizationFail 0
scalar OsgEarthNet.uav[54] simulationTime 259200
scalar OsgEarthNet.uav[55] utilizationSecMission 22645.787832774
scalar OsgEarthNet.uav[55] utilizationSecMaintenance 9725.5347508164
scalar OsgEarthNet.uav[55] utilizationSecCharge 118932.02310709
scalar OsgEarthNet.uav[55] utilizationSecIdle 107896.65330932
scalar OsgEarthNet.uav[55] utilizationEnergyMission 104680.34349823
scalar OsgEarthNet.uav[55] utilizationEnergyMaintenance 44881.422119141
scalar OsgEarthNet.uav[55] utilizationEnergyCharge 149108.12988281
scalar OsgEarthNet.uav[55] utilizationEnergyOverdrawMission 0
scalar OsgEarthNet.uav[55] utilizationEnergyOverdrawMaintenance 0
scalar OsgEarthNet.uav[55] utilizationCountMissions 32
scalar OsgEarthNet.uav[55] utilizationCountManeuversMission 360
scalar OsgEarthNet.uav[55] utilizationCountManeuversMaintenance 64
scalar OsgEarthNet.uav[55] utilizationCountChargeState 32
scalar OsgEarthNet.uav[55] utilizationCountOverdrawnAfterMission 0
scalar OsgEarthNet.uav[55] utilizationCountIdleState 32
scalar OsgEarthNet.uav[55] utilizationFail 0
scalar OsgEarthNet.uav[55] simulationTime 259200
scalar OsgEarthNet.uav[56] utilizationSecMission 30385.397642515
scalar OsgEarthNet.uav[56] utilizationSecMaintenance 16018.897975865
scalar OsgEarthNet.uav[56] utilizationSecCharge 168603.70338162
scalar OsgEarthNet.uav[56] utilizationSecIdle 44192
scalar OsgEarthNet.uav[56] utilizationEnergyMission 139472.22564697
scalar OsgEarthNet.uav[56] utilizationEnergyMaintenance 74491.285820007
scalar OsgEarthNet.uav[56] utilizationEnergyCharge 212056.96826172
scalar OsgEarthNet.uav[56] utilizationEnergyOverdrawMission 0
scalar OsgEarthNet.uav[56] utilizationEnergyOverdrawMaintenance 0
scalar OsgEarthNet.uav[56] utilizationCountMissions 46
scalar OsgEarthNet.uav[56] utilizationCountManeuversMission 495
scalar OsgEarthNet.uav[56] utilizationCountManeuversMaintenance 91
scalar OsgEarthNet.uav[56] utilizationCountChargeState 46
scalar OsgEarthNet.uav[56] utilizationCountOverdrawnAfterMission 0
scalar OsgEarthNet.uav[56] utilizationCountIdleState 46
scalar OsgEarthNet.uav[56] utilizationFail 0
scalar OsgEarthNet.uav[56] simulationTime 259200
scalar OsgEarthNet.uav[57] utilizationSecMission 528.55000878666
scalar OsgEarthNet.uav[57] utilizationSecMaintenance 478.92797493542
scalar OsgEarthNet.uav[57] utilizationSecCharge 3640
scalar OsgEarthNet.uav[57] utilizationSecIdle 254552.52101628
scalar OsgEarthNet.uav[57] utilizationEnergyMission 2491.6312713623
scalar OsgEarthNet.uav[57] utilizationEnergyMaintenance 2094.7482528687
scalar OsgEarthNet.uav[57] utilizationEnergyCharge 4586.3740234375
scalar OsgEarthNet.uav[57] utilizationEnergyOverdrawMission 0
scalar OsgEarthNet.uav[57] utilizationEnergyOverdrawMaintenance 0
scalar OsgEarthNet.uav[57] utilizationCountMissions 1
scalar OsgEarthNet.uav[57] utilizationCountManeuversMission 10
scalar OsgEarthNet.uav[57] utilizationCountManeuversMaintenance 2
scalar OsgEarthNet.uav[57] utilizationCountChargeState 1
scalar OsgEarthNet.uav[57] utilizationCountOverdrawnAfterMission 0
scalar OsgEarthNet.uav[57] utilizationCountIdleState 2
scalar OsgEarthNet.uav[57] utilizationFail 0
scalar OsgEarthNet.uav[57] simulationTime 259200
scalar OsgEarthNet.uav[58] utilizationSecMission 694.00169469977
scalar OsgEarthNet.uav[58] utilizationSecMaintenance 338.49695459722
scalar OsgEarthNet.uav[58] utilizationSecCharge 3780
scalar OsgEarthNet.uav[58] utilizationSecIdle 254387.5003507
scalar OsgEarthNet.uav[58] utilizationEnergyMission 3147.135887146
scalar OsgEarthNet.uav[58] utilizationEnergyMaintenance 1627.3001823425
scalar OsgEarthNet.uav[58] utilizationEnergyCharge 4774.4331054688
scalar OsgEarthNet.uav[58] utilizationEnergyOverdrawMission 0
scalar OsgEarthNet.uav[58] utilizationEnergyOverdrawMaintenance 0
scalar OsgEarthNet.uav[58] utilizationCountMissions 1
scalar OsgEarthNet.uav[58] utilizationCountManeuversMission 13
scalar OsgEarthNet.uav[58] utilizationCountManeuversMaintenance 2
scalar OsgEarthNet.uav[58] utilizationCountChargeState 1
scalar OsgEarthNet.uav[58] utilizationCountOverdrawnAfterMission 0
scalar OsgEarthNet.uav[58] utilizationCountIdleState 2
scalar OsgEarthNet.uav[58] utilizationFail 0
scalar OsgEarthNet.uav[58] simulationTime 259200
scalar OsgEarthNet.uav[59] utilizationSecMission 510.19019122229
scalar OsgEarthNet.uav[59] utilizationSecMaintenance 438.84287141926
scalar OsgEarthNet.uav[59] utilizationSecCharge 3770
scalar OsgEarthNet.uav[59] utilizationSecIdle 254480.96593736
scalar OsgEarthNet.uav[59] utilizationEnergyMission 2374.4255218506
scalar OsgEarthNet.uav[59] utilizationEnergyMaintenance 2095.3451042175
scalar OsgEarthNet.uav[59] utilizationEnergyCharge 4697.4604492188
scalar OsgEarthNet.uav[59] utilizationEnergyOverdrawMission 0
scalar OsgEarthNet.uav[59] utilizationEnergyOverdrawMaintenance 0
scalar OsgEarthNet.uav[59] utilizationCountMissions 1
scalar OsgEarthNet.uav[59] utilizationCountManeuversMission 8
scalar OsgEarthNet.uav[59] utilizationCountManeuversMaintenance 2
scalar OsgEarthNet.uav[59] utilizationCountChargeState 1
scalar OsgEarthNet.uav[59] utilizationCountOverdrawnAfterMission 0
scalar OsgEarthNet.uav[59] utilizationCountIdleState 2
scalar OsgEarthNet.uav[59] utilizationFail 0
scalar OsgEarthNet.uav[59] simulationTime 259200
scalar OsgEarthNet.uav[60] utilizationSecMission 760.62515258028
scalar OsgEarthNet.uav[60] utilizationSecMaintenance 291.95923480269
scalar OsgEarthNet.uav[60] utilizationSecCharge 3840
scalar OsgEarthNet.uav[60] utilizationSecIdle 254307.41461262
scalar OsgEarthNet.uav[60] utilizationEnergyMission 3420.3106536865
scalar OsgEarthNet.uav[60] utilizationEnergyMaintenance 1443.1408309937
scalar OsgEarthNet.uav[60] utilizationEnergyCharge 4863.4545898438
scalar OsgEarthNet.uav[60] utilizationEnergyOverdrawMission 0
scalar OsgEarthNet.uav[60] utilizationEnergyOverdrawMaintenance 0
scalar OsgEarthNet.uav[60] utilizationCountMissions 1
scalar OsgEarthNet.uav[60] utilizationCountManeuversMission 12
scalar OsgEarthNet.uav[60] utilizationCountManeuversMaintenance 2
scalar OsgEarthNet.uav[60] utilizationCountChargeState 1
scalar OsgEarthNet.uav[60] utilizationCountOverdrawnAfterMission 0
scalar OsgEarthNet.uav[60] utilizationCountIdleState 2
scalar OsgEarthNet.uav[60] utilizationFail 0
scalar OsgEarthNet.uav[60] simulationTime 259200
scalar OsgEarthNet.uav[61] utilizationSecMission 1326.443778072
scalar OsgEarthNet.uav[61] utilizationSecMaintenance 562.78712927046
scalar OsgEarthNet.uav[61] utilizationSecCharge 7000
scalar OsgEarthNet.uav[61] utilizationSecIdle 250310.76809266
scalar OsgEarthNet.uav[61] utilizationEnergyMission 6008.4190673828
scalar OsgEarthNet.uav[61] utilizationEnergyMaintenance 2664.5495262146
scalar OsgEarthNet.uav[61] utilizationEnergyCharge 8612.7397460938
scalar OsgEarthNet.uav[61] utilizationEnergyOverdrawMission 0
scalar OsgEarthNet.uav[61] utilizationEnergyOverdrawMaintenance 0
scalar OsgEarthNet.uav[61] utilizationCountMissions 2
scalar OsgEarthNet.uav[61] utilizationCountManeuversMission 25
scalar OsgEarthNet.uav[61] utilizationCountManeuversMaintenance 4
scalar OsgEarthNet.uav[61] utilizationCountChargeState 2
scalar OsgEarthNet.uav[61] utilizationCountOverdrawnAfterMission 0
scalar OsgEarthNet.uav[61] utilizationCountIdleState 3
scalar OsgEarthNet.uav[61] utilizationFail 0
scalar OsgEarthNet.uav[61] simulationTime 259200
scalar OsgEarthNet.uav[62] utilizationSecMission 26892.927854641
scalar OsgEarthNet.uav[62] utilizationSecMaintenance 13367.306609256
scalar OsgEarthNet.uav[62] utilizationSecCharge 149370
scalar OsgEarthNet.uav[62] utilizationSecIdle 69569.764536103
scalar OsgEarthNet.uav[62] utilizationEnergyMission 124230.50289154
scalar OsgEarthNet.uav[62] utilizationEnergyMaintenance 63113.366424561
scalar OsgEarthNet.uav[62] utilizationEnergyCharge 187246.75
scalar OsgEarthNet.uav[62] utilizationEnergyOverdrawMission 0
scalar OsgEarthNet.uav[62] utilizationEnergyOverdrawMaintenance 0
scalar OsgEarthNet.uav[62] utilizationCountMissions 40
scalar OsgEarthNet.uav[62] utilizationCountManeuversMission 438
scalar OsgEarthNet.uav[62] utilizationCountManeuversMaintenance 80
scalar OsgEarthNet.uav[62] utilizationCountChargeState 40
scalar OsgEarthNet.uav[62] utilizationCountOverdrawnAfterMission 0
scalar OsgEarthNet.uav[62] utilizationCountIdleState 41
scalar OsgEarthNet.uav[62] utilizationFail 0
scalar OsgEarthNet.uav[62] simulationTime 259200
scalar OsgEarthNet.uav[63] utilizationSecMission 684.4732299383
scalar OsgEarthNet.uav[63] utilizationSecMaintenance 298.56834692969
scalar OsgEarthNet.uav[63] utilizationSecCharge 3760
scalar OsgEarthNet.uav[63] utilizationSecIdle 254456.95742313
scalar OsgEarthNet.uav[63] utilizationEnergyMission 3278.0963134766
scalar OsgEarthNet.uav[63] utilizationEnergyMaintenance 1433.9460067749
scalar OsgEarthNet.uav[63] utilizationEnergyCharge 4712.0395507812
scalar OsgEarthNet.uav[63] utilizationEnergyOverdrawMission 0
scalar OsgEarthNet.uav[63] utilizationEnergyOverdrawMaintenance 0
scalar OsgEarthNet.uav[63] utilizationCountMissions 1
scalar OsgEarthNet.uav[63] utilizationCountManeuversMission 11
scalar OsgEarthNet.uav[63] utilizationCountManeuversMaintenance 2
scalar OsgEarthNet.uav[63] utilizationCountChargeState 1
scalar OsgEarthNet.uav[63] utilizationCountOverdrawnAfterMission 0
scalar OsgEarthNet.uav[63] utilizationCountIdleState 2
scalar OsgEarthNet.uav[63] utilizationFail 0
scalar OsgEarthNet.uav[63] simulationTime 259200
scalar OsgEarthNet.uav[64] utilizationSecMission 27187.597333902
scalar OsgEarthNet.uav[64] utilizationSecMaintenance 13154.511282614
scalar OsgEarthNet.uav[64] utilizationSecCharge 146882.85343572
scalar OsgEarthNet.uav[64] utilizationSecIdle 71975.036947762
scalar OsgEarthNet.uav[64] utilizationEnergyMission 123644.6552124
scalar OsgEarthNet.uav[64] utilizationEnergyMaintenance 61079.169937134
scalar OsgEarthNet.uav[64] utilizationEnergyCharge 184521.09741211
scalar OsgEarthNet.uav[64] utilizationEnergyOverdrawMission 0
scalar OsgEarthNet.uav[64] utilizationEnergyOverdrawMaintenance 0
scalar OsgEarthNet.uav[64] utilizationCountMissions 40
scalar OsgEarthNet.uav[64] utilizationCountManeuversMission 432
scalar OsgEarthNet.uav[64] utilizationCountManeuversMaintenance 80
scalar OsgEarthNet.uav[64] utilizationCountChargeState 40
scalar OsgEarthNet.uav[64] utilizationCountOverdrawnAfterMission 0
scalar OsgEarthNet.uav[64] utilizationCountIdleState 40
scalar OsgEarthNet.uav[64] utilizationFail 0
scalar OsgEarthNet.uav[64] simulationTime 259200
scalar OsgEarthNet.uav[65] utilizationSecMission 694.00169469977
scalar OsgEarthNet.uav[65] utilizationSecMaintenance 338.49695459722
scalar OsgEarthNet.uav[65] utilizationSecCharge 3890
scalar OsgEarthNet.uav[65] utilizationSecIdle 254277.5003507
scalar OsgEarthNet.uav[65] utilizationEnergyMission 3407.4276123047
[...]
scalar OsgEarthNet.uav[82] utilizationEnergyMission 41674.031959534
scalar OsgEarthNet.uav[82] utilizationEnergyMaintenance 23578.356769562
scalar OsgEarthNet.uav[82] utilizationEnergyCharge 65252.395507812
scalar OsgEarthNet.uav[82] utilizationEnergyOverdrawMission 0
scalar OsgEarthNet.uav[82] utilizationEnergyOverdrawMaintenance 0
scalar OsgEarthNet.uav[82] utilizationCountMissions 14
scalar OsgEarthNet.uav[82] utilizationCountManeuversMission 152
scalar OsgEarthNet.uav[82] utilizationCountManeuversMaintenance 28
scalar OsgEarthNet.uav[82] utilizationCountChargeState 14
scalar OsgEarthNet.uav[82] utilizationCountOverdrawnAfterMission 0
scalar OsgEarthNet.uav[82] utilizationCountIdleState 15
scalar OsgEarthNet.uav[82] utilizationFail 0
scalar OsgEarthNet.uav[82] simulationTime 259200
scalar OsgEarthNet.uav[83] utilizationSecMission 557.08549766445
scalar OsgEarthNet.uav[83] utilizationSecMaintenance 423.57904092458
scalar OsgEarthNet.uav[83] utilizationSecCharge 3780
scalar OsgEarthNet.uav[83] utilizationSecIdle 254439.33446141
scalar OsgEarthNet.uav[83] utilizationEnergyMission 2502.6388092041
scalar OsgEarthNet.uav[83] utilizationEnergyMaintenance 2096.9092636108
scalar OsgEarthNet.uav[83] utilizationEnergyCharge 4765.751953125
scalar OsgEarthNet.uav[83] utilizationEnergyOverdrawMission 0
scalar OsgEarthNet.uav[83] utilizationEnergyOverdrawMaintenance 0
scalar OsgEarthNet.uav[83] utilizationCountMissions 1
scalar OsgEarthNet.uav[83] utilizationCountManeuversMission 9
scalar OsgEarthNet.uav[83] utilizationCountManeuversMaintenance 2
scalar OsgEarthNet.uav[83] utilizationCountChargeState 1
scalar OsgEarthNet.uav[83] utilizationCountOverdrawnAfterMission 0
scalar OsgEarthNet.uav[83] utilizationCountIdleState 2
scalar OsgEarthNet.uav[83] utilizationFail 0
scalar OsgEarthNet.uav[83] simulationTime 259200
scalar OsgEarthNet.uav[84] utilizationSecMission 21223.245245945
scalar OsgEarthNet.uav[84] utilizationSecMaintenance 10346.377827779
scalar OsgEarthNet.uav[84] utilizationSecCharge 115650
scalar OsgEarthNet.uav[84] utilizationSecIdle 111980.37592628
scalar OsgEarthNet.uav[84] utilizationEnergyMission 98905.937384005
scalar OsgEarthNet.uav[84] utilizationEnergyMaintenance 48256.292377472
scalar OsgEarthNet.uav[84] utilizationEnergyCharge 145252.84033203
scalar OsgEarthNet.uav[84] utilizationEnergyOverdrawMission 0
scalar OsgEarthNet.uav[84] utilizationEnergyOverdrawMaintenance 0
scalar OsgEarthNet.uav[84] utilizationCountMissions 31
scalar OsgEarthNet.uav[84] utilizationCountManeuversMission 339
scalar OsgEarthNet.uav[84] utilizationCountManeuversMaintenance 63
scalar OsgEarthNet.uav[84] utilizationCountChargeState 31
scalar OsgEarthNet.uav[84] utilizationCountOverdrawnAfterMission 0
scalar OsgEarthNet.uav[84] utilizationCountIdleState 32
scalar OsgEarthNet.uav[84] utilizationFail 0
scalar OsgEarthNet.uav[84] simulationTime 259200
scalar OsgEarthNet.uav[85] utilizationSecMission 17367.552497861
scalar OsgEarthNet.uav[85] utilizationSecMaintenance 7834.1372109347
scalar OsgEarthNet.uav[85] utilizationSecCharge 91521.450245029
scalar OsgEarthNet.uav[85] utilizationSecIdle 142476.85904617
scalar OsgEarthNet.uav[85] utilizationEnergyMission 80265.501197815
scalar OsgEarthNet.uav[85] utilizationEnergyMaintenance 36983.710781097
scalar OsgEarthNet.uav[85] utilizationEnergyCharge 115963.14160156
scalar OsgEarthNet.uav[85] utilizationEnergyOverdrawMission 0
scalar OsgEarthNet.uav[85] utilizationEnergyOverdrawMaintenance 0
scalar OsgEarthNet.uav[85] utilizationCountMissions 25
scalar OsgEarthNet.uav[85] utilizationCountManeuversMission 286
scalar OsgEarthNet.uav[85] utilizationCountManeuversMaintenance 50
scalar OsgEarthNet.uav[85] utilizationCountChargeState 25
scalar OsgEarthNet.uav[85] utilizationCountOverdrawnAfterMission 0
scalar OsgEarthNet.uav[85] utilizationCountIdleState 25
scalar OsgEarthNet.uav[85] utilizationFail 0
scalar OsgEarthNet.uav[85] simulationTime 259200
scalar OsgEarthNet.uav[86] utilizationSecMission 702.6942798579
scalar OsgEarthNet.uav[86] utilizationSecMaintenance 282.29565405678
scalar OsgEarthNet.uav[86] utilizationSecCharge 3800
scalar OsgEarthNet.uav[86] utilizationSecIdle 254415.00906609
scalar OsgEarthNet.uav[86] utilizationEnergyMission 3321.3616485596
scalar OsgEarthNet.uav[86] utilizationEnergyMaintenance 1502.3530387878
scalar OsgEarthNet.uav[86] utilizationEnergyCharge 4823.712890625
scalar OsgEarthNet.uav[86] utilizationEnergyOverdrawMission 0
scalar OsgEarthNet.uav[86] utilizationEnergyOverdrawMaintenance 0
scalar OsgEarthNet.uav[86] utilizationCountMissions 1
scalar OsgEarthNet.uav[86] utilizationCountManeuversMission 10
scalar OsgEarthNet.uav[86] utilizationCountManeuversMaintenance 2
scalar OsgEarthNet.uav[86] utilizationCountChargeState 1
scalar OsgEarthNet.uav[86] utilizationCountOverdrawnAfterMission 0
scalar OsgEarthNet.uav[86] utilizationCountIdleState 2
scalar OsgEarthNet.uav[86] utilizationFail 0
scalar OsgEarthNet.uav[86] simulationTime 259200
scalar OsgEarthNet.uav[87] utilizationSecMission 3712.3885949145
scalar OsgEarthNet.uav[87] utilizationSecMaintenance 2176.4259359073
scalar OsgEarthNet.uav[87] utilizationSecCharge 21970
scalar OsgEarthNet.uav[87] utilizationSecIdle 231341.18446918
scalar OsgEarthNet.uav[87] utilizationEnergyMission 16958.813796997
scalar OsgEarthNet.uav[87] utilizationEnergyMaintenance 10368.069587708
scalar OsgEarthNet.uav[87] utilizationEnergyCharge 27326.875488281
scalar OsgEarthNet.uav[87] utilizationEnergyOverdrawMission 0
scalar OsgEarthNet.uav[87] utilizationEnergyOverdrawMaintenance 0
scalar OsgEarthNet.uav[87] utilizationCountMissions 6
scalar OsgEarthNet.uav[87] utilizationCountManeuversMission 59
scalar OsgEarthNet.uav[87] utilizationCountManeuversMaintenance 12
scalar OsgEarthNet.uav[87] utilizationCountChargeState 6
scalar OsgEarthNet.uav[87] utilizationCountOverdrawnAfterMission 0
scalar OsgEarthNet.uav[87] utilizationCountIdleState 7
scalar OsgEarthNet.uav[87] utilizationFail 0
scalar OsgEarthNet.uav[87] simulationTime 259200
scalar OsgEarthNet.uav[88] utilizationSecMission 23981.734120176
scalar OsgEarthNet.uav[88] utilizationSecMaintenance 9248.8065317344
scalar OsgEarthNet.uav[88] utilizationSecCharge 119990
scalar OsgEarthNet.uav[88] utilizationSecIdle 105979.45834809
scalar OsgEarthNet.uav[88] utilizationEnergyMission 111681.96574402
scalar OsgEarthNet.uav[88] utilizationEnergyMaintenance 43166.440657209
scalar OsgEarthNet.uav[88] utilizationEnergyCharge 150931.84228516
scalar OsgEarthNet.uav[88] utilizationEnergyOverdrawMission 0
scalar OsgEarthNet.uav[88] utilizationEnergyOverdrawMaintenance 0
scalar OsgEarthNet.uav[88] utilizationCountMissions 33
scalar OsgEarthNet.uav[88] utilizationCountManeuversMission 402
scalar OsgEarthNet.uav[88] utilizationCountManeuversMaintenance 66
scalar OsgEarthNet.uav[88] utilizationCountChargeState 32
scalar OsgEarthNet.uav[88] utilizationCountOverdrawnAfterMission 0
scalar OsgEarthNet.uav[88] utilizationCountIdleState 33
scalar OsgEarthNet.uav[88] utilizationFail 0
scalar OsgEarthNet.uav[88] simulationTime 259200
scalar OsgEarthNet.uav[89] utilizationSecMission 23253.475741279
scalar OsgEarthNet.uav[89] utilizationSecMaintenance 10114.416987348
scalar OsgEarthNet.uav[89] utilizationSecCharge 122111.53683631
scalar OsgEarthNet.uav[89] utilizationSecIdle 103720.56943507
scalar OsgEarthNet.uav[89] utilizationEnergyMission 107151.19699097
scalar OsgEarthNet.uav[89] utilizationEnergyMaintenance 47735.119121552
scalar OsgEarthNet.uav[89] utilizationEnergyCharge 154818.42138672
scalar OsgEarthNet.uav[89] utilizationEnergyOverdrawMission 0
scalar OsgEarthNet.uav[89] utilizationEnergyOverdrawMaintenance 0
scalar OsgEarthNet.uav[89] utilizationCountMissions 33
scalar OsgEarthNet.uav[89] utilizationCountManeuversMission 379
scalar OsgEarthNet.uav[89] utilizationCountManeuversMaintenance 66
scalar OsgEarthNet.uav[89] utilizationCountChargeState 33
scalar OsgEarthNet.uav[89] utilizationCountOverdrawnAfterMission 0
scalar OsgEarthNet.uav[89] utilizationCountIdleState 33
scalar OsgEarthNet.uav[89] utilizationFail 0
scalar OsgEarthNet.uav[89] simulationTime 259200
scalar OsgEarthNet.uav[90] utilizationSecMission 545.05972348896
scalar OsgEarthNet.uav[90] utilizationSecMaintenance 427.36308650536
scalar OsgEarthNet.uav[90] utilizationSecCharge 3780
scalar OsgEarthNet.uav[90] utilizationSecIdle 254447.57619001
scalar OsgEarthNet.uav[90] utilizationEnergyMission 2737.0736083984
scalar OsgEarthNet.uav[90] utilizationEnergyMaintenance 2076.0938339233
scalar OsgEarthNet.uav[90] utilizationEnergyCharge 4735.9946289062
scalar OsgEarthNet.uav[90] utilizationEnergyOverdrawMission 0
scalar OsgEarthNet.uav[90] utilizationEnergyOverdrawMaintenance 0
scalar OsgEarthNet.uav[90] utilizationCountMissions 1
scalar OsgEarthNet.uav[90] utilizationCountManeuversMission 9
scalar OsgEarthNet.uav[90] utilizationCountManeuversMaintenance 2
scalar OsgEarthNet.uav[90] utilizationCountChargeState 1
scalar OsgEarthNet.uav[90] utilizationCountOverdrawnAfterMission 0
scalar OsgEarthNet.uav[90] utilizationCountIdleState 2
scalar OsgEarthNet.uav[90] utilizationFail 0
scalar OsgEarthNet.uav[90] simulationTime 259200
scalar OsgEarthNet.uav[91] utilizationSecMission 26330.108767426
scalar OsgEarthNet.uav[91] utilizationSecMaintenance 12084.520481247
scalar OsgEarthNet.uav[91] utilizationSecCharge 140365.14697245
scalar OsgEarthNet.uav[91] utilizationSecIdle 80420.222778876
scalar OsgEarthNet.uav[91] utilizationEnergyMission 121610.7829895
scalar OsgEarthNet.uav[91] utilizationEnergyMaintenance 56264.228050232
scalar OsgEarthNet.uav[91] utilizationEnergyCharge 177211.46533203
scalar OsgEarthNet.uav[91] utilizationEnergyOverdrawMission 0
scalar OsgEarthNet.uav[91] utilizationEnergyOverdrawMaintenance 0
scalar OsgEarthNet.uav[91] utilizationCountMissions 38
scalar OsgEarthNet.uav[91] utilizationCountManeuversMission 434
scalar OsgEarthNet.uav[91] utilizationCountManeuversMaintenance 76
scalar OsgEarthNet.uav[91] utilizationCountChargeState 38
scalar OsgEarthNet.uav[91] utilizationCountOverdrawnAfterMission 0
scalar OsgEarthNet.uav[91] utilizationCountIdleState 38
scalar OsgEarthNet.uav[91] utilizationFail 0
scalar OsgEarthNet.uav[91] simulationTime 259200
scalar OsgEarthNet.uav[92] utilizationSecMission 694.00169469977
scalar OsgEarthNet.uav[92] utilizationSecMaintenance 282.18572599206
scalar OsgEarthNet.uav[92] utilizationSecCharge 3700
scalar OsgEarthNet.uav[92] utilizationSecIdle 254523.81157931
scalar OsgEarthNet.uav[92] utilizationEnergyMission 3281.5388793945
scalar OsgEarthNet.uav[92] utilizationEnergyMaintenance 1340.6060409546
scalar OsgEarthNet.uav[92] utilizationEnergyCharge 4622.146484375
scalar OsgEarthNet.uav[92] utilizationEnergyOverdrawMission 0
scalar OsgEarthNet.uav[92] utilizationEnergyOverdrawMaintenance 0
scalar OsgEarthNet.uav[92] utilizationCountMissions 1
scalar OsgEarthNet.uav[92] utilizationCountManeuversMission 13
scalar OsgEarthNet.uav[92] utilizationCountManeuversMaintenance 2
scalar OsgEarthNet.uav[92] utilizationCountChargeState 1
scalar OsgEarthNet.uav[92] utilizationCountOverdrawnAfterMission 0
scalar OsgEarthNet.uav[92] utilizationCountIdleState 2
scalar OsgEarthNet.uav[92] utilizationFail 0
scalar OsgEarthNet.uav[92] simulationTime 259200
scalar OsgEarthNet.uav[93] utilizationSecMission 760.62515258028
scalar OsgEarthNet.uav[93] utilizationSecMaintenance 291.95923480269
scalar OsgEarthNet.uav[93] utilizationSecCharge 3730
scalar OsgEarthNet.uav[93] utilizationSecIdle 254417.41461262
scalar OsgEarthNet.uav[93] utilizationEnergyMission 3285.6663131714
scalar OsgEarthNet.uav[93] utilizationEnergyMaintenance 1438.8496932983
scalar OsgEarthNet.uav[93] utilizationEnergyCharge 4724.5166015625
scalar OsgEarthNet.uav[93] utilizationEnergyOverdrawMission 0
scalar OsgEarthNet.uav[93] utilizationEnergyOverdrawMaintenance 0
scalar OsgEarthNet.uav[93] utilizationCountMissions 1
scalar OsgEarthNet.uav[93] utilizationCountManeuversMission 12
scalar OsgEarthNet.uav[93] utilizationCountManeuversMaintenance 2
scalar OsgEarthNet.uav[93] utilizationCountChargeState 1
scalar OsgEarthNet.uav[93] utilizationCountOverdrawnAfterMission 0
scalar OsgEarthNet.uav[93] utilizationCountIdleState 2
scalar OsgEarthNet.uav[93] utilizationFail 0
scalar OsgEarthNet.uav[93] simulationTime 259200
scalar OsgEarthNet.uav[94] utilizationSecMission 29017.848862711
scalar OsgEarthNet.uav[94] utilizationSecMaintenance 14381.762746814
scalar OsgEarthNet.uav[94] utilizationSecCharge 158716.72119648
scalar OsgEarthNet.uav[94] utilizationSecIdle 57083.666193998
scalar OsgEarthNet.uav[94] utilizationEnergyMission 133655.34640503
scalar OsgEarthNet.uav[94] utilizationEnergyMaintenance 68168.910400391
scalar OsgEarthNet.uav[94] utilizationEnergyCharge 199846.59521484
scalar OsgEarthNet.uav[94] utilizationEnergyOverdrawMission 0
scalar OsgEarthNet.uav[94] utilizationEnergyOverdrawMaintenance 0
scalar OsgEarthNet.uav[94] utilizationCountMissions 43
scalar OsgEarthNet.uav[94] utilizationCountManeuversMission 487
scalar OsgEarthNet.uav[94] utilizationCountManeuversMaintenance 86
scalar OsgEarthNet.uav[94] utilizationCountChargeState 43
scalar OsgEarthNet.uav[94] utilizationCountOverdrawnAfterMission 0
scalar OsgEarthNet.uav[94] utilizationCountIdleState 43
scalar OsgEarthNet.uav[94] utilizationFail 0
scalar OsgEarthNet.uav[94] simulationTime 259200
scalar OsgEarthNet.uav[95] utilizationSecMission 2825.4714008605
scalar OsgEarthNet.uav[95] utilizationSecMaintenance 1363.208308654
scalar OsgEarthNet.uav[95] utilizationSecCharge 15320
scalar OsgEarthNet.uav[95] utilizationSecIdle 239691.31929049
scalar OsgEarthNet.uav[95] utilizationEnergyMission 13130.848739624
scalar OsgEarthNet.uav[95] utilizationEnergyMaintenance 6179.0963401794
scalar OsgEarthNet.uav[95] utilizationEnergyCharge 19409.498535156
scalar OsgEarthNet.uav[95] utilizationEnergyOverdrawMission 0
scalar OsgEarthNet.uav[95] utilizationEnergyOverdrawMaintenance 0
scalar OsgEarthNet.uav[95] utilizationCountMissions 4
scalar OsgEarthNet.uav[95] utilizationCountManeuversMission 48
scalar OsgEarthNet.uav[95] utilizationCountManeuversMaintenance 8
scalar OsgEarthNet.uav[95] utilizationCountChargeState 4
scalar OsgEarthNet.uav[95] utilizationCountOverdrawnAfterMission 0
scalar OsgEarthNet.uav[95] utilizationCountIdleState 5
scalar OsgEarthNet.uav[95] utilizationFail 0
scalar OsgEarthNet.uav[95] simulationTime 259200
scalar OsgEarthNet.uav[96] utilizationSecMission 9829.8875419421
scalar OsgEarthNet.uav[96] utilizationSecMaintenance 6311.2429607424
scalar OsgEarthNet.uav[96] utilizationSecCharge 59420
scalar OsgEarthNet.uav[96] utilizationSecIdle 183638.86849732
scalar OsgEarthNet.uav[96] utilizationEnergyMission 45450.049156189
scalar OsgEarthNet.uav[96] utilizationEnergyMaintenance 29039.914440155
scalar OsgEarthNet.uav[96] utilizationEnergyCharge 74476.629394531
scalar OsgEarthNet.uav[96] utilizationEnergyOverdrawMission 0
scalar OsgEarthNet.uav[96] utilizationEnergyOverdrawMaintenance 0
scalar OsgEarthNet.uav[96] utilizationCountMissions 16
scalar OsgEarthNet.uav[96] utilizationCountManeuversMission 164
scalar OsgEarthNet.uav[96] utilizationCountManeuversMaintenance 32
scalar OsgEarthNet.uav[96] utilizationCountChargeState 16
scalar OsgEarthNet.uav[96] utilizationCountOverdrawnAfterMission 0
scalar OsgEarthNet.uav[96] utilizationCountIdleState 17
scalar OsgEarthNet.uav[96] utilizationFail 0
scalar OsgEarthNet.uav[96] simulationTime 259200
scalar OsgEarthNet.uav[97] utilizationSecMission 29839.08748951
scalar OsgEarthNet.uav[97] utilizationSecMaintenance 13462.949670678
scalar OsgEarthNet.uav[97] utilizationSecCharge 158437.59942209
scalar OsgEarthNet.uav[97] utilizationSecIdle 57460.362417726
scalar OsgEarthNet.uav[97] utilizationEnergyMission 138883.78214264
scalar OsgEarthNet.uav[97] utilizationEnergyMaintenance 63198.937397003
scalar OsgEarthNet.uav[97] utilizationEnergyCharge 199439.86303711
scalar OsgEarthNet.uav[97] utilizationEnergyOverdrawMission 0
scalar OsgEarthNet.uav[97] utilizationEnergyOverdrawMaintenance 0
scalar OsgEarthNet.uav[97] utilizationCountMissions 43
scalar OsgEarthNet.uav[97] utilizationCountManeuversMission 474
scalar OsgEarthNet.uav[97] utilizationCountManeuversMaintenance 86
scalar OsgEarthNet.uav[97] utilizationCountChargeState 43
scalar OsgEarthNet.uav[97] utilizationCountOverdrawnAfterMission 0
scalar OsgEarthNet.uav[97] utilizationCountIdleState 43
scalar OsgEarthNet.uav[97] utilizationFail 0
scalar OsgEarthNet.uav[97] simulationTime 259200
scalar OsgEarthNet.uav[98] utilizationSecMission 29352.786409909
scalar OsgEarthNet.uav[98] utilizationSecMaintenance 14137.261809834
scalar OsgEarthNet.uav[98] utilizationSecCharge 157582.50051623
scalar OsgEarthNet.uav[98] utilizationSecIdle 58127.450264031
scalar OsgEarthNet.uav[98] utilizationEnergyMission 136463.53601074
scalar OsgEarthNet.uav[98] utilizationEnergyMaintenance 66775.057159424
scalar OsgEarthNet.uav[98] utilizationEnergyCharge 198119.72631836
scalar OsgEarthNet.uav[98] utilizationEnergyOverdrawMission 0
scalar OsgEarthNet.uav[98] utilizationEnergyOverdrawMaintenance 0
scalar OsgEarthNet.uav[98] utilizationCountMissions 43
scalar OsgEarthNet.uav[98] utilizationCountManeuversMission 492
scalar OsgEarthNet.uav[98] utilizationCountManeuversMaintenance 86
scalar OsgEarthNet.uav[98] utilizationCountChargeState 43
scalar OsgEarthNet.uav[98] utilizationCountOverdrawnAfterMission 0
scalar OsgEarthNet.uav[98] utilizationCountIdleState 43
scalar OsgEarthNet.uav[98] utilizationFail 0
scalar OsgEarthNet.uav[98] simulationTime 259200
scalar OsgEarthNet.uav[99] utilizationSecMission 28935.52511638
scalar OsgEarthNet.uav[99] utilizationSecMaintenance 11200.798524509
scalar OsgEarthNet.uav[99] utilizationSecCharge 145260
scalar OsgEarthNet.uav[99] utilizationSecIdle 73803.675359111
scalar OsgEarthNet.uav[99] utilizationEnergyMission 132521.021342
scalar OsgEarthNet.uav[99] utilizationEnergyMaintenance 52147.344177246
scalar OsgEarthNet.uav[99] utilizationEnergyCharge 182010.95019531
scalar OsgEarthNet.uav[99] utilizationEnergyOverdrawMission 0
scalar OsgEarthNet.uav[99] utilizationEnergyOverdrawMaintenance 0
scalar OsgEarthNet.uav[99] utilizationCountMissions 39
scalar OsgEarthNet.uav[99] utilizationCountManeuversMission 462
scalar OsgEarthNet.uav[99] utilizationCountManeuversMaintenance 79
scalar OsgEarthNet.uav[99] utilizationCountChargeState 39
scalar OsgEarthNet.uav[99] utilizationCountOverdrawnAfterMission 0
scalar OsgEarthNet.uav[99] utilizationCountIdleState 40
scalar OsgEarthNet.uav[99] utilizationFail 0
scalar OsgEarthNet.uav[99] simulationTime 259200
scalar OsgEarthNet.cs[0] usedPower 436053.01007066
scalar OsgEarthNet.cs[0] chargedPower 436053.01007066
scalar OsgEarthNet.cs[0] chargedMobileNodes 93
scalar OsgEarthNet.cs[0] reservations 94
scalar OsgEarthNet.cs[1] usedPower 1097517.1875359
scalar OsgEarthNet.cs[1] chargedPower 1097517.1875359
scalar OsgEarthNet.cs[1] chargedMobileNodes 233
scalar OsgEarthNet.cs[1] reservations 238
scalar OsgEarthNet.cs[2] usedPower 2693243.1942303
scalar OsgEarthNet.cs[2] chargedPower 2693243.1942303
scalar OsgEarthNet.cs[2] chargedMobileNodes 565
scalar OsgEarthNet.cs[2] reservations 575
scalar OsgEarthNet.cs[3] usedPower 744256.77799844
scalar OsgEarthNet.cs[3] chargedPower 744256.77799844
scalar OsgEarthNet.cs[3] chargedMobileNodes 159
scalar OsgEarthNet.cs[3] reservations 162
scalar OsgEarthNet.cs[4] usedPower 739010.92265058
scalar OsgEarthNet.cs[4] chargedPower 739010.92265058
scalar OsgEarthNet.cs[4] chargedMobileNodes 158
scalar OsgEarthNet.cs[4] reservations 161
scalar OsgEarthNet.cs[5] usedPower 538643.12441669
scalar OsgEarthNet.cs[5] chargedPower 538643.12441669
scalar OsgEarthNet.cs[5] chargedMobileNodes 113
scalar OsgEarthNet.cs[5] reservations 114
scalar OsgEarthNet.cs[6] usedPower 2537507.9297476
scalar OsgEarthNet.cs[6] chargedPower 2537507.9297476
scalar OsgEarthNet.cs[6] chargedMobileNodes 541
scalar OsgEarthNet.cs[6] reservations 549

