version 2
run Szenario_Hotel_Gabelbach-2-20180710-00:38:58-20712
attr configname Szenario_Hotel_Gabelbach
attr datetime 20180710-00:38:58
attr experiment Szenario_Hotel_Gabelbach
attr inifile omnetpp.ini
attr iterationvars "$replM=2, $biWeight=0.35"
attr iterationvarsf replM=2,biWeight=0.35-
attr measurement "$replM=2, $biWeight=0.35"
attr network OsgEarthNet
attr processid 20712
attr repetition 2
attr replication #2
attr resultdir results
attr runnumber 2
attr seedset 2
itervar biWeight 0.35
itervar replM 2
param *.osgEarthScene.scene "\"Szenario_Hotel_Gabelbach.earth\""
param *.playgroundLatitude 50.6830269
param *.playgroundLongitude 10.8538055
param *.playgroundWidth 3500m
param *.playgroundHeight 3500m
param *.numUAVs 100
param *.cs[0].posX 3537m
param *.cs[0].posY 965m
param *.cs[0].posZ 538m
param *.cs[1].posX 312m
param *.cs[1].posY 1262m
param *.cs[1].posZ 539m
param *.cs[2].posX 2185m
param *.cs[2].posY 3026m
param *.cs[2].posZ 777m
param *.cs[3].posX 10m
param *.cs[3].posY 2200m
param *.cs[3].posZ 560m
param *.cs[4].posX 750m
param *.cs[4].posY 200m
param *.cs[4].posZ 540m
param *.cs[5].posX 2450m
param *.cs[5].posY 180m
param *.cs[5].posZ 524m
param *.cs[6].posX 3140m
param *.cs[6].posY 1790m
param *.cs[6].posZ 606m
param *.numCSs 7
param *.uav[*].replacementMethod 2
param *.uav[*].weightedSumWeight 0.35
param *.*.timeStep 10s
param *.uav[*].commandPreviewCommandCount 20
param *.missionControl.missionFiles "\"missions\\\\Szenario_WB_Hotel_Gabelbach_Mission_Hotel.waypoints,missions\\\\Szenario_WB_Hotel_Gabelbach_Mission_Kickelhahn.waypoints,missions\\\\Szenario_WB_Hotel_Gabelbach_Mission_Ilmenau_Sportplatz.waypoints,missions\\\\Szenario_WB_Hotel_Gabelbach_Mission_Manebach_Mitte.waypoints,missions\\\\Szenario_WB_Hotel_Gabelbach_Mission_Manebach_Sued.waypoints\""
param *.missionControl.missionFiles "\"missions\\\\Szenario_WB_Hotel_Gabelbach_Mission_Hotel.waypoints,missions\\\\Szenario_WB_Hotel_Gabelbach_Mission_Kickelhahn.waypoints,missions\\\\Szenario_WB_Hotel_Gabelbach_Mission_Ilmenau_Sportplatz.waypoints,missions\\\\Szenario_WB_Hotel_Gabelbach_Mission_Manebach_Mitte.waypoints,missions\\\\Szenario_WB_Hotel_Gabelbach_Mission_Manebach_Sued.waypoints,missions\\\\Szenario_WB_Hotel_Gabelbach_Hover_HoheSchlaufe.waypoints,missions\\\\Szenario_WB_Hotel_Gabelbach_Hover_Kickelhahn.waypoints,missions\\\\Szenario_WB_Hotel_Gabelbach_Hover_Gabelbachskopf.waypoints,missions\\\\Szenario_WB_Hotel_Gabelbach_Hover_Dachskopf.waypoints\""
param *.uav[0].startX 3537m
param *.uav[0].startY 965m
param *.uav[0].startZ 539m
param *.uav[1].startX 312m
param *.uav[1].startY 1262m
param *.uav[1].startZ 540m
param *.uav[2].startX 2185m
param *.uav[2].startY 3026m
param *.uav[2].startZ 778m
param *.uav[3].startX 3537m
param *.uav[3].startY 965m
param *.uav[3].startZ 539m
param *.uav[4].startX 312m
param *.uav[4].startY 1262m
param *.uav[4].startZ 540m
param *.uav[5].startX 2185m
param *.uav[5].startY 3026m
param *.uav[5].startZ 778m
param *.uav[6].startX 3537m
param *.uav[6].startY 965m
param *.uav[6].startZ 539m
param *.uav[7].startX 312m
param *.uav[7].startY 1262m
param *.uav[7].startZ 540m
param *.uav[8].startX 2185m
param *.uav[8].startY 3026m
param *.uav[8].startZ 778m
param *.uav[9].startX 3537m
param *.uav[9].startY 965m
param *.uav[9].startZ 539m
param *.uav[10].startX 3537m
param *.uav[10].startY 965m
param *.uav[10].startZ 539m
param *.uav[11].startX 312m
param *.uav[11].startY 1262m
param *.uav[11].startZ 540m
param *.uav[12].startX 2185m
param *.uav[12].startY 3026m
param *.uav[12].startZ 778m
param *.uav[13].startX 3537m
param *.uav[13].startY 965m
param *.uav[13].startZ 539m
param *.uav[14].startX 312m
param *.uav[14].startY 1262m
param *.uav[14].startZ 540m
param *.uav[15].startX 2185m
param *.uav[15].startY 3026m
param *.uav[15].startZ 778m
param *.uav[16].startX 3537m
param *.uav[16].startY 965m
param *.uav[16].startZ 539m
param *.uav[17].startX 312m
param *.uav[17].startY 1262m
param *.uav[17].startZ 540m
param *.uav[18].startX 2185m
param *.uav[18].startY 3026m
param *.uav[18].startZ 778m
param *.uav[19].startX 3537m
param *.uav[19].startY 965m
param *.uav[19].startZ 539m
param *.uav[20].startX 3537m
param *.uav[20].startY 965m
param *.uav[20].startZ 539m
param *.uav[21].startX 312m
param *.uav[21].startY 1262m
param *.uav[21].startZ 540m
param *.uav[22].startX 2185m
param *.uav[22].startY 3026m
param *.uav[22].startZ 778m
param *.uav[23].startX 3537m
param *.uav[23].startY 965m
param *.uav[23].startZ 539m
param *.uav[24].startX 312m
param *.uav[24].startY 1262m
param *.uav[24].startZ 540m
param *.uav[25].startX 2185m
param *.uav[25].startY 3026m
param *.uav[25].startZ 778m
param *.uav[26].startX 3537m
param *.uav[26].startY 965m
param *.uav[26].startZ 539m
param *.uav[27].startX 312m
param *.uav[27].startY 1262m
param *.uav[27].startZ 540m
param *.uav[28].startX 2185m
param *.uav[28].startY 3026m
param *.uav[28].startZ 778m
param *.uav[29].startX 3537m
param *.uav[29].startY 965m
param *.uav[29].startZ 539m
param *.uav[30].startX 3537m
param *.uav[30].startY 965m
param *.uav[30].startZ 539m
param *.uav[31].startX 312m
param *.uav[31].startY 1262m
param *.uav[31].startZ 540m
param *.uav[32].startX 2185m
param *.uav[32].startY 3026m
param *.uav[32].startZ 778m
param *.uav[33].startX 3537m
param *.uav[33].startY 965m
param *.uav[33].startZ 539m
param *.uav[34].startX 312m
param *.uav[34].startY 1262m
param *.uav[34].startZ 540m
param *.uav[35].startX 2185m
param *.uav[35].startY 3026m
param *.uav[35].startZ 778m
param *.uav[36].startX 3537m
param *.uav[36].startY 965m
param *.uav[36].startZ 539m
param *.uav[37].startX 312m
param *.uav[37].startY 1262m
param *.uav[37].startZ 540m
param *.uav[38].startX 2185m
param *.uav[38].startY 3026m
param *.uav[38].startZ 778m
param *.uav[39].startX 3537m
param *.uav[39].startY 965m
param *.uav[39].startZ 539m
param *.uav[40].startX 3537m
param *.uav[40].startY 965m
param *.uav[40].startZ 539m
param *.uav[41].startX 312m
param *.uav[41].startY 1262m
param *.uav[41].startZ 540m
param *.uav[42].startX 2185m
param *.uav[42].startY 3026m
param *.uav[42].startZ 778m
param *.uav[43].startX 3537m
param *.uav[43].startY 965m
param *.uav[43].startZ 539m
param *.uav[44].startX 312m
param *.uav[44].startY 1262m
param *.uav[44].startZ 540m
param *.uav[45].startX 2185m
param *.uav[45].startY 3026m
param *.uav[45].startZ 778m
param *.uav[46].startX 3537m
param *.uav[46].startY 965m
param *.uav[46].startZ 539m
param *.uav[47].startX 312m
param *.uav[47].startY 1262m
param *.uav[47].startZ 540m
param *.uav[48].startX 2185m
param *.uav[48].startY 3026m
param *.uav[48].startZ 778m
param *.uav[49].startX 3537m
param *.uav[49].startY 965m
param *.uav[49].startZ 539m
param *.uav[50].startX 3537m
param *.uav[50].startY 965m
param *.uav[50].startZ 539m
param *.uav[51].startX 312m
param *.uav[51].startY 1262m
param *.uav[51].startZ 540m
param *.uav[52].startX 2185m
param *.uav[52].startY 3026m
param *.uav[52].startZ 778m
param *.uav[53].startX 3537m
param *.uav[53].startY 965m
param *.uav[53].startZ 539m
param *.uav[54].startX 312m
param *.uav[54].startY 1262m
param *.uav[54].startZ 540m
param *.uav[55].startX 2185m
param *.uav[55].startY 3026m
param *.uav[55].startZ 778m
param *.uav[56].startX 3537m
param *.uav[56].startY 965m
param *.uav[56].startZ 539m
param *.uav[57].startX 312m
param *.uav[57].startY 1262m
param *.uav[57].startZ 540m
param *.uav[58].startX 2185m
param *.uav[58].startY 3026m
param *.uav[58].startZ 778m
param *.uav[59].startX 3537m
param *.uav[59].startY 965m
param *.uav[59].startZ 539m
param *.uav[60].startX 3537m
param *.uav[60].startY 965m
param *.uav[60].startZ 539m
param *.uav[61].startX 312m
param *.uav[61].startY 1262m
param *.uav[61].startZ 540m
param *.uav[62].startX 2185m
param *.uav[62].startY 3026m
param *.uav[62].startZ 778m
param *.uav[63].startX 3537m
param *.uav[63].startY 965m
param *.uav[63].startZ 539m
param *.uav[64].startX 312m
param *.uav[64].startY 1262m
param *.uav[64].startZ 540m
param *.uav[65].startX 2185m
param *.uav[65].startY 3026m
param *.uav[65].startZ 778m
param *.uav[66].startX 3537m
param *.uav[66].startY 965m
param *.uav[66].startZ 539m
param *.uav[67].startX 312m
param *.uav[67].startY 1262m
param *.uav[67].startZ 540m
param *.uav[68].startX 2185m
param *.uav[68].startY 3026m
param *.uav[68].startZ 778m
param *.uav[69].startX 3537m
param *.uav[69].startY 965m
param *.uav[69].startZ 539m
param *.uav[70].startX 3537m
param *.uav[70].startY 965m
param *.uav[70].startZ 539m
param *.uav[71].startX 312m
param *.uav[71].startY 1262m
param *.uav[71].startZ 540m
param *.uav[72].startX 2185m
param *.uav[72].startY 3026m
param *.uav[72].startZ 778m
param *.uav[73].startX 3537m
param *.uav[73].startY 965m
param *.uav[73].startZ 539m
param *.uav[74].startX 312m
param *.uav[74].startY 1262m
param *.uav[74].startZ 540m
param *.uav[75].startX 2185m
param *.uav[75].startY 3026m
param *.uav[75].startZ 778m
param *.uav[76].startX 3537m
param *.uav[76].startY 965m
param *.uav[76].startZ 539m
param *.uav[77].startX 312m
param *.uav[77].startY 1262m
param *.uav[77].startZ 540m
param *.uav[78].startX 2185m
param *.uav[78].startY 3026m
param *.uav[78].startZ 778m
param *.uav[79].startX 3537m
param *.uav[79].startY 965m
param *.uav[79].startZ 539m
param *.uav[80].startX 3537m
param *.uav[80].startY 965m
param *.uav[80].startZ 539m
param *.uav[81].startX 312m
param *.uav[81].startY 1262m
param *.uav[81].startZ 540m
param *.uav[82].startX 2185m
param *.uav[82].startY 3026m
param *.uav[82].startZ 778m
param *.uav[83].startX 3537m
param *.uav[83].startY 965m
param *.uav[83].startZ 539m
param *.uav[84].startX 312m
param *.uav[84].startY 1262m
param *.uav[84].startZ 540m
param *.uav[85].startX 2185m
param *.uav[85].startY 3026m
param *.uav[85].startZ 778m
param *.uav[86].startX 3537m
param *.uav[86].startY 965m
param *.uav[86].startZ 539m
param *.uav[87].startX 312m
param *.uav[87].startY 1262m
param *.uav[87].startZ 540m
param *.uav[88].startX 2185m
param *.uav[88].startY 3026m
param *.uav[88].startZ 778m
param *.uav[89].startX 3537m
param *.uav[89].startY 965m
param *.uav[89].startZ 539m
param *.uav[90].startX 3537m
param *.uav[90].startY 965m
param *.uav[90].startZ 539m
param *.uav[91].startX 312m
param *.uav[91].startY 1262m
param *.uav[91].startZ 540m
param *.uav[92].startX 2185m
param *.uav[92].startY 3026m
param *.uav[92].startZ 778m
param *.uav[93].startX 3537m
param *.uav[93].startY 965m
param *.uav[93].startZ 539m
param *.uav[94].startX 312m
param *.uav[94].startY 1262m
param *.uav[94].startZ 540m
param *.uav[95].startX 2185m
param *.uav[95].startY 3026m
param *.uav[95].startZ 778m
param *.uav[96].startX 3537m
param *.uav[96].startY 965m
param *.uav[96].startZ 539m
param *.uav[97].startX 312m
param *.uav[97].startY 1262m
param *.uav[97].startZ 540m
param *.uav[98].startX 2185m
param *.uav[98].startY 3026m
param *.uav[98].startZ 778m
param *.uav[99].startX 3537m
param *.uav[99].startY 965m
param *.uav[99].startZ 539m
param *.osgEarthScene.scene "\"boston.earth\""
param *.playgroundLatitude 42.3558
param *.playgroundLongitude -71.0677
param *.playgroundWidth 400m
param *.playgroundHeight 200m
param *.channelController.connectionColor "\"#0000FF40\""
param *.channelController.showConnections false
param *.uav[*].modelURL "\"quadrocopter.small.obj.15.scale.0,0,90.rot\""
param *.uav[*].labelColor "\"#FF7C00CC\""
param *.uav[*].label2Color "\"#FF7C00EE\""
param *.uav[*].batteryCapacity 5200mAh
param *.uav[*].batteryRemaining uav[index].batteryCapacity
param *.uav[*].predictionQuantile 0.95
param *.uav[*].replacementMethod 2
param *.uav[*].weightedSumWeight 0.5
param *.cs[*].modelURL "\"chargingstation_v1.osgt.2.scale.0,0,0.rot.0,0,-15e-1.trans\""
param *.cs[*].spotsWaiting 999
param *.cs[*].spotsCharging 999
param *.cs[*].chargeEffectivenessPercentage 100
param *.cs[*].nonLinearPhaseStartPercentage 85
param *.cs[*].chargeCurrent 6.0A
param *.cs[*].prioritizeFastCharge true
param *.missionControl.replacementSearchMethod 0
param *.*.timeStep 9s

scalar OsgEarthNet.uav[0] utilizationSecMission 26678.090304928
scalar OsgEarthNet.uav[0] utilizationSecMaintenance 12714.414941128
scalar OsgEarthNet.uav[0] utilizationSecCharge 149331.94684469
scalar OsgEarthNet.uav[0] utilizationSecIdle 70475.546909258
scalar OsgEarthNet.uav[0] utilizationEnergyMission 122430.68470001
scalar OsgEarthNet.uav[0] utilizationEnergyMaintenance 60660.078998566
scalar OsgEarthNet.uav[0] utilizationEnergyCharge 180662.75439453
scalar OsgEarthNet.uav[0] utilizationEnergyOverdrawMission 0
scalar OsgEarthNet.uav[0] utilizationEnergyOverdrawMaintenance 0
scalar OsgEarthNet.uav[0] utilizationCountMissions 45
scalar OsgEarthNet.uav[0] utilizationCountManeuversMission 426
scalar OsgEarthNet.uav[0] utilizationCountManeuversMaintenance 90
scalar OsgEarthNet.uav[0] utilizationCountChargeState 45
scalar OsgEarthNet.uav[0] utilizationCountOverdrawnAfterMission 0
scalar OsgEarthNet.uav[0] utilizationCountIdleState 45
scalar OsgEarthNet.uav[0] utilizationFail 0
scalar OsgEarthNet.uav[0] simulationTime 259200
scalar OsgEarthNet.uav[1] utilizationSecMission 24076.554664043
scalar OsgEarthNet.uav[1] utilizationSecMaintenance 9800.8633555724
scalar OsgEarthNet.uav[1] utilizationSecCharge 125670
scalar OsgEarthNet.uav[1] utilizationSecIdle 99652.580980385
scalar OsgEarthNet.uav[1] utilizationEnergyMission 110971.94695686
scalar OsgEarthNet.uav[1] utilizationEnergyMaintenance 46925.257633209
scalar OsgEarthNet.uav[1] utilizationEnergyCharge 155379.921875
scalar OsgEarthNet.uav[1] utilizationEnergyOverdrawMission 0
scalar OsgEarthNet.uav[1] utilizationEnergyOverdrawMaintenance 0
scalar OsgEarthNet.uav[1] utilizationCountMissions 35
scalar OsgEarthNet.uav[1] utilizationCountManeuversMission 393
scalar OsgEarthNet.uav[1] utilizationCountManeuversMaintenance 71
scalar OsgEarthNet.uav[1] utilizationCountChargeState 35
scalar OsgEarthNet.uav[1] utilizationCountOverdrawnAfterMission 0
scalar OsgEarthNet.uav[1] utilizationCountIdleState 36
scalar OsgEarthNet.uav[1] utilizationFail 0
scalar OsgEarthNet.uav[1] simulationTime 259200
scalar OsgEarthNet.uav[2] utilizationSecMission 887.1741082606
scalar OsgEarthNet.uav[2] utilizationSecMaintenance 171.13387461676
scalar OsgEarthNet.uav[2] utilizationSecCharge 3880
scalar OsgEarthNet.uav[2] utilizationSecIdle 254261.69101712
scalar OsgEarthNet.uav[2] utilizationEnergyMission 3959.5755462646
scalar OsgEarthNet.uav[2] utilizationEnergyMaintenance 778.36232757568
scalar OsgEarthNet.uav[2] utilizationEnergyCharge 4872.7416992188
scalar OsgEarthNet.uav[2] utilizationEnergyOverdrawMission 0
scalar OsgEarthNet.uav[2] utilizationEnergyOverdrawMaintenance 0
scalar OsgEarthNet.uav[2] utilizationCountMissions 1
scalar OsgEarthNet.uav[2] utilizationCountManeuversMission 14
scalar OsgEarthNet.uav[2] utilizationCountManeuversMaintenance 2
scalar OsgEarthNet.uav[2] utilizationCountChargeState 1
scalar OsgEarthNet.uav[2] utilizationCountOverdrawnAfterMission 0
scalar OsgEarthNet.uav[2] utilizationCountIdleState 2
scalar OsgEarthNet.uav[2] utilizationFail 0
scalar OsgEarthNet.uav[2] simulationTime 259200
scalar OsgEarthNet.uav[3] utilizationSecMission 9062.7139054892
scalar OsgEarthNet.uav[3] utilizationSecMaintenance 2232.9942532104
scalar OsgEarthNet.uav[3] utilizationSecCharge 41450
scalar OsgEarthNet.uav[3] utilizationSecIdle 206454.2908413
scalar OsgEarthNet.uav[3] utilizationEnergyMission 41378.037208557
scalar OsgEarthNet.uav[3] utilizationEnergyMaintenance 10010.231723785
scalar OsgEarthNet.uav[3] utilizationEnergyCharge 52112.149902344
scalar OsgEarthNet.uav[3] utilizationEnergyOverdrawMission 0
scalar OsgEarthNet.uav[3] utilizationEnergyOverdrawMaintenance 0
scalar OsgEarthNet.uav[3] utilizationCountMissions 11
scalar OsgEarthNet.uav[3] utilizationCountManeuversMission 148
scalar OsgEarthNet.uav[3] utilizationCountManeuversMaintenance 22
scalar OsgEarthNet.uav[3] utilizationCountChargeState 11
scalar OsgEarthNet.uav[3] utilizationCountOverdrawnAfterMission 0
scalar OsgEarthNet.uav[3] utilizationCountIdleState 12
scalar OsgEarthNet.uav[3] utilizationFail 0
scalar OsgEarthNet.uav[3] simulationTime 259200
scalar OsgEarthNet.uav[4] utilizationSecMission 29212.388976814
scalar OsgEarthNet.uav[4] utilizationSecMaintenance 12575.608516464
scalar OsgEarthNet.uav[4] utilizationSecCharge 155590
scalar OsgEarthNet.uav[4] utilizationSecIdle 61822.001506722
scalar OsgEarthNet.uav[4] utilizationEnergyMission 135033.08177948
scalar OsgEarthNet.uav[4] utilizationEnergyMaintenance 59896.57097748
scalar OsgEarthNet.uav[4] utilizationEnergyCharge 191269.07177734
scalar OsgEarthNet.uav[4] utilizationEnergyOverdrawMission 0
scalar OsgEarthNet.uav[4] utilizationEnergyOverdrawMaintenance 0
scalar OsgEarthNet.uav[4] utilizationCountMissions 45
scalar OsgEarthNet.uav[4] utilizationCountManeuversMission 472
scalar OsgEarthNet.uav[4] utilizationCountManeuversMaintenance 90
scalar OsgEarthNet.uav[4] utilizationCountChargeState 44
scalar OsgEarthNet.uav[4] utilizationCountOverdrawnAfterMission 0
scalar OsgEarthNet.uav[4] utilizationCountIdleState 45
scalar OsgEarthNet.uav[4] utilizationFail 0
scalar OsgEarthNet.uav[4] simulationTime 259200
scalar OsgEarthNet.uav[5] utilizationSecMission 30523.072019158
scalar OsgEarthNet.uav[5] utilizationSecMaintenance 12565.004177609
scalar OsgEarthNet.uav[5] utilizationSecCharge 161555.88670446
scalar OsgEarthNet.uav[5] utilizationSecIdle 54556.036098769
scalar OsgEarthNet.uav[5] utilizationEnergyMission 140378.64744949
scalar OsgEarthNet.uav[5] utilizationEnergyMaintenance 59944.366542816
scalar OsgEarthNet.uav[5] utilizationEnergyCharge 199648.0793457
scalar OsgEarthNet.uav[5] utilizationEnergyOverdrawMission 0
scalar OsgEarthNet.uav[5] utilizationEnergyOverdrawMaintenance 0
scalar OsgEarthNet.uav[5] utilizationCountMissions 46
scalar OsgEarthNet.uav[5] utilizationCountManeuversMission 493
scalar OsgEarthNet.uav[5] utilizationCountManeuversMaintenance 92
scalar OsgEarthNet.uav[5] utilizationCountChargeState 46
scalar OsgEarthNet.uav[5] utilizationCountOverdrawnAfterMission 0
scalar OsgEarthNet.uav[5] utilizationCountIdleState 46
scalar OsgEarthNet.uav[5] utilizationFail 0
scalar OsgEarthNet.uav[5] simulationTime 259200
scalar OsgEarthNet.uav[6] utilizationSecMission 179.21601502944
scalar OsgEarthNet.uav[6] utilizationSecMaintenance 354.43405905663
scalar OsgEarthNet.uav[6] utilizationSecCharge 2560
scalar OsgEarthNet.uav[6] utilizationSecIdle 256106.34892591
scalar OsgEarthNet.uav[6] utilizationEnergyMission 910.55938720703
scalar OsgEarthNet.uav[6] utilizationEnergyMaintenance 1721.777671814
scalar OsgEarthNet.uav[6] utilizationEnergyCharge 2632.3354492188
scalar OsgEarthNet.uav[6] utilizationEnergyOverdrawMission 0
scalar OsgEarthNet.uav[6] utilizationEnergyOverdrawMaintenance 0
scalar OsgEarthNet.uav[6] utilizationCountMissions 1
scalar OsgEarthNet.uav[6] utilizationCountManeuversMission 3
scalar OsgEarthNet.uav[6] utilizationCountManeuversMaintenance 2
scalar OsgEarthNet.uav[6] utilizationCountChargeState 1
scalar OsgEarthNet.uav[6] utilizationCountOverdrawnAfterMission 0
scalar OsgEarthNet.uav[6] utilizationCountIdleState 2
scalar OsgEarthNet.uav[6] utilizationFail 0
scalar OsgEarthNet.uav[6] simulationTime 259200
scalar OsgEarthNet.uav[7] utilizationSecMission 26914.707763717
scalar OsgEarthNet.uav[7] utilizationSecMaintenance 12331.02676905
scalar OsgEarthNet.uav[7] utilizationSecCharge 148870
scalar OsgEarthNet.uav[7] utilizationSecIdle 71084.264467233
scalar OsgEarthNet.uav[7] utilizationEnergyMission 124524.61276245
scalar OsgEarthNet.uav[7] utilizationEnergyMaintenance 58544.598941803
scalar OsgEarthNet.uav[7] utilizationEnergyCharge 183263.84301758
scalar OsgEarthNet.uav[7] utilizationEnergyOverdrawMission 0
scalar OsgEarthNet.uav[7] utilizationEnergyOverdrawMaintenance 0
scalar OsgEarthNet.uav[7] utilizationCountMissions 42
scalar OsgEarthNet.uav[7] utilizationCountManeuversMission 450
scalar OsgEarthNet.uav[7] utilizationCountManeuversMaintenance 84
scalar OsgEarthNet.uav[7] utilizationCountChargeState 42
scalar OsgEarthNet.uav[7] utilizationCountOverdrawnAfterMission 0
scalar OsgEarthNet.uav[7] utilizationCountIdleState 43
scalar OsgEarthNet.uav[7] utilizationFail 0
scalar OsgEarthNet.uav[7] simulationTime 259200
scalar OsgEarthNet.uav[8] utilizationSecMission 29227.684220123
scalar OsgEarthNet.uav[8] utilizationSecMaintenance 13039.144102708
scalar OsgEarthNet.uav[8] utilizationSecCharge 159230
scalar OsgEarthNet.uav[8] utilizationSecIdle 57703.170677169
scalar OsgEarthNet.uav[8] utilizationEnergyMission 136356.67237854
scalar OsgEarthNet.uav[8] utilizationEnergyMaintenance 61095.051937103
scalar OsgEarthNet.uav[8] utilizationEnergyCharge 197535.28344727
scalar OsgEarthNet.uav[8] utilizationEnergyOverdrawMission 0
scalar OsgEarthNet.uav[8] utilizationEnergyOverdrawMaintenance 0
scalar OsgEarthNet.uav[8] utilizationCountMissions 44
scalar OsgEarthNet.uav[8] utilizationCountManeuversMission 484
scalar OsgEarthNet.uav[8] utilizationCountManeuversMaintenance 88
scalar OsgEarthNet.uav[8] utilizationCountChargeState 44
scalar OsgEarthNet.uav[8] utilizationCountOverdrawnAfterMission 0
scalar OsgEarthNet.uav[8] utilizationCountIdleState 45
scalar OsgEarthNet.uav[8] utilizationFail 0
scalar OsgEarthNet.uav[8] simulationTime 259200
scalar OsgEarthNet.uav[9] utilizationSecMission 581.2023559588
scalar OsgEarthNet.uav[9] utilizationSecMaintenance 391.61486485881
scalar OsgEarthNet.uav[9] utilizationSecCharge 3620
scalar OsgEarthNet.uav[9] utilizationSecIdle 254607.18177918
scalar OsgEarthNet.uav[9] utilizationEnergyMission 2612.0944976807
scalar OsgEarthNet.uav[9] utilizationEnergyMaintenance 1902.021232605
scalar OsgEarthNet.uav[9] utilizationEnergyCharge 4514.1127929688
scalar OsgEarthNet.uav[9] utilizationEnergyOverdrawMission 0
scalar OsgEarthNet.uav[9] utilizationEnergyOverdrawMaintenance 0
scalar OsgEarthNet.uav[9] utilizationCountMissions 1
scalar OsgEarthNet.uav[9] utilizationCountManeuversMission 8
scalar OsgEarthNet.uav[9] utilizationCountManeuversMaintenance 2
scalar OsgEarthNet.uav[9] utilizationCountChargeState 1
scalar OsgEarthNet.uav[9] utilizationCountOverdrawnAfterMission 0
scalar OsgEarthNet.uav[9] utilizationCountIdleState 2
scalar OsgEarthNet.uav[9] utilizationFail 0
scalar OsgEarthNet.uav[9] simulationTime 259200
scalar OsgEarthNet.uav[10] utilizationSecMission 179.21601502944
scalar OsgEarthNet.uav[10] utilizationSecMaintenance 354.43405905663
scalar OsgEarthNet.uav[10] utilizationSecCharge 2560
scalar OsgEarthNet.uav[10] utilizationSecIdle 256106.34892591
scalar OsgEarthNet.uav[10] utilizationEnergyMission 943.62008666992
scalar OsgEarthNet.uav[10] utilizationEnergyMaintenance 1733.8940658569
scalar OsgEarthNet.uav[10] utilizationEnergyCharge 2677.5107421875
scalar OsgEarthNet.uav[10] utilizationEnergyOverdrawMission 0
scalar OsgEarthNet.uav[10] utilizationEnergyOverdrawMaintenance 0
scalar OsgEarthNet.uav[10] utilizationCountMissions 1
scalar OsgEarthNet.uav[10] utilizationCountManeuversMission 3
scalar OsgEarthNet.uav[10] utilizationCountManeuversMaintenance 2
scalar OsgEarthNet.uav[10] utilizationCountChargeState 1
scalar OsgEarthNet.uav[10] utilizationCountOverdrawnAfterMission 0
scalar OsgEarthNet.uav[10] utilizationCountIdleState 2
scalar OsgEarthNet.uav[10] utilizationFail 0
scalar OsgEarthNet.uav[10] simulationTime 259200
scalar OsgEarthNet.uav[11] utilizationSecMission 10362.821624524
scalar OsgEarthNet.uav[11] utilizationSecMaintenance 5292.5124012643
scalar OsgEarthNet.uav[11] utilizationSecCharge 57890
scalar OsgEarthNet.uav[11] utilizationSecIdle 185654.66497421
scalar OsgEarthNet.uav[11] utilizationEnergyMission 46971.017929077
scalar OsgEarthNet.uav[11] utilizationEnergyMaintenance 24611.037975311
scalar OsgEarthNet.uav[11] utilizationEnergyCharge 71983.072998047
scalar OsgEarthNet.uav[11] utilizationEnergyOverdrawMission 0
scalar OsgEarthNet.uav[11] utilizationEnergyOverdrawMaintenance 0
scalar OsgEarthNet.uav[11] utilizationCountMissions 16
scalar OsgEarthNet.uav[11] utilizationCountManeuversMission 176
scalar OsgEarthNet.uav[11] utilizationCountManeuversMaintenance 32
scalar OsgEarthNet.uav[11] utilizationCountChargeState 16
scalar OsgEarthNet.uav[11] utilizationCountOverdrawnAfterMission 0
scalar OsgEarthNet.uav[11] utilizationCountIdleState 17
scalar OsgEarthNet.uav[11] utilizationFail 0
scalar OsgEarthNet.uav[11] simulationTime 259200
scalar OsgEarthNet.uav[12] utilizationSecMission 2272.4000913469
scalar OsgEarthNet.uav[12] utilizationSecMaintenance 704.59089382012
scalar OsgEarthNet.uav[12] utilizationSecCharge 11270
scalar OsgEarthNet.uav[12] utilizationSecIdle 244953.00801483
scalar OsgEarthNet.uav[12] utilizationEnergyMission 10578.865638733
scalar OsgEarthNet.uav[12] utilizationEnergyMaintenance 3324.2541351318
scalar OsgEarthNet.uav[12] utilizationEnergyCharge 14138.859375
scalar OsgEarthNet.uav[12] utilizationEnergyOverdrawMission 0
scalar OsgEarthNet.uav[12] utilizationEnergyOverdrawMaintenance 0
scalar OsgEarthNet.uav[12] utilizationCountMissions 3
scalar OsgEarthNet.uav[12] utilizationCountManeuversMission 37
scalar OsgEarthNet.uav[12] utilizationCountManeuversMaintenance 6
scalar OsgEarthNet.uav[12] utilizationCountChargeState 3
scalar OsgEarthNet.uav[12] utilizationCountOverdrawnAfterMission 0
scalar OsgEarthNet.uav[12] utilizationCountIdleState 4
scalar OsgEarthNet.uav[12] utilizationFail 0
scalar OsgEarthNet.uav[12] simulationTime 259200
scalar OsgEarthNet.uav[13] utilizationSecMission 24831.536217895
scalar OsgEarthNet.uav[13] utilizationSecMaintenance 10475.059359694
scalar OsgEarthNet.uav[13] utilizationSecCharge 127631.87244034
scalar OsgEarthNet.uav[13] utilizationSecIdle 96261.530982066
scalar OsgEarthNet.uav[13] utilizationEnergyMission 115062.09778976
scalar OsgEarthNet.uav[13] utilizationEnergyMaintenance 48585.652645111
scalar OsgEarthNet.uav[13] utilizationEnergyCharge 158810.02252197
scalar OsgEarthNet.uav[13] utilizationEnergyOverdrawMission 0
scalar OsgEarthNet.uav[13] utilizationEnergyOverdrawMaintenance 0
scalar OsgEarthNet.uav[13] utilizationCountMissions 36
scalar OsgEarthNet.uav[13] utilizationCountManeuversMission 409
scalar OsgEarthNet.uav[13] utilizationCountManeuversMaintenance 72
scalar OsgEarthNet.uav[13] utilizationCountChargeState 36
scalar OsgEarthNet.uav[13] utilizationCountOverdrawnAfterMission 0
scalar OsgEarthNet.uav[13] utilizationCountIdleState 36
scalar OsgEarthNet.uav[13] utilizationFail 0
scalar OsgEarthNet.uav[13] simulationTime 259200
scalar OsgEarthNet.uav[14] utilizationSecMission 29631.206856003
scalar OsgEarthNet.uav[14] utilizationSecMaintenance 12160.438541118
scalar OsgEarthNet.uav[14] utilizationSecCharge 155640
scalar OsgEarthNet.uav[14] utilizationSecIdle 61768.353602879
scalar OsgEarthNet.uav[14] utilizationEnergyMission 137378.65943415
scalar OsgEarthNet.uav[14] utilizationEnergyMaintenance 57078.353347778
scalar OsgEarthNet.uav[14] utilizationEnergyCharge 193201.14599609
scalar OsgEarthNet.uav[14] utilizationEnergyOverdrawMission 0
scalar OsgEarthNet.uav[14] utilizationEnergyOverdrawMaintenance 0
scalar OsgEarthNet.uav[14] utilizationCountMissions 43
scalar OsgEarthNet.uav[14] utilizationCountManeuversMission 488
scalar OsgEarthNet.uav[14] utilizationCountManeuversMaintenance 87
scalar OsgEarthNet.uav[14] utilizationCountChargeState 43
scalar OsgEarthNet.uav[14] utilizationCountOverdrawnAfterMission 0
scalar OsgEarthNet.uav[14] utilizationCountIdleState 44
scalar OsgEarthNet.uav[14] utilizationFail 0
scalar OsgEarthNet.uav[14] simulationTime 259200
scalar OsgEarthNet.uav[15] utilizationSecMission 750.20472747826
scalar OsgEarthNet.uav[15] utilizationSecMaintenance 218.84515192887
scalar OsgEarthNet.uav[15] utilizationSecCharge 3590
scalar OsgEarthNet.uav[15] utilizationSecIdle 254640.94912059
scalar OsgEarthNet.uav[15] utilizationEnergyMission 3433.4297485352
scalar OsgEarthNet.uav[15] utilizationEnergyMaintenance 957.33852386475
scalar OsgEarthNet.uav[15] utilizationEnergyCharge 4391.9892578125
scalar OsgEarthNet.uav[15] utilizationEnergyOverdrawMission 0
scalar OsgEarthNet.uav[15] utilizationEnergyOverdrawMaintenance 0
scalar OsgEarthNet.uav[15] utilizationCountMissions 1
scalar OsgEarthNet.uav[15] utilizationCountManeuversMission 11
scalar OsgEarthNet.uav[15] utilizationCountManeuversMaintenance 2
scalar OsgEarthNet.uav[15] utilizationCountChargeState 1
scalar OsgEarthNet.uav[15] utilizationCountOverdrawnAfterMission 0
scalar OsgEarthNet.uav[15] utilizationCountIdleState 2
scalar OsgEarthNet.uav[15] utilizationFail 0
scalar OsgEarthNet.uav[15] simulationTime 259200
scalar OsgEarthNet.uav[16] utilizationSecMission 179.21601502944
scalar OsgEarthNet.uav[16] utilizationSecMaintenance 354.43405905663
scalar OsgEarthNet.uav[16] utilizationSecCharge 2410
scalar OsgEarthNet.uav[16] utilizationSecIdle 256256.34892591
scalar OsgEarthNet.uav[16] utilizationEnergyMission 786.9169921875
scalar OsgEarthNet.uav[16] utilizationEnergyMaintenance 1604.3713302612
scalar OsgEarthNet.uav[16] utilizationEnergyCharge 2391.2934570312
scalar OsgEarthNet.uav[16] utilizationEnergyOverdrawMission 0
scalar OsgEarthNet.uav[16] utilizationEnergyOverdrawMaintenance 0
scalar OsgEarthNet.uav[16] utilizationCountMissions 1
scalar OsgEarthNet.uav[16] utilizationCountManeuversMission 3
scalar OsgEarthNet.uav[16] utilizationCountManeuversMaintenance 2
scalar OsgEarthNet.uav[16] utilizationCountChargeState 1
scalar OsgEarthNet.uav[16] utilizationCountOverdrawnAfterMission 0
scalar OsgEarthNet.uav[16] utilizationCountIdleState 2
scalar OsgEarthNet.uav[16] utilizationFail 0
scalar OsgEarthNet.uav[16] simulationTime 259200
scalar OsgEarthNet.uav[17] utilizationSecMission 11603.189282667
scalar OsgEarthNet.uav[17] utilizationSecMaintenance 5984.1738413366
scalar OsgEarthNet.uav[17] utilizationSecCharge 67480
scalar OsgEarthNet.uav[17] utilizationSecIdle 174132.635876
scalar OsgEarthNet.uav[17] utilizationEnergyMission 54815.869796753
scalar OsgEarthNet.uav[17] utilizationEnergyMaintenance 28367.22625351
scalar OsgEarthNet.uav[17] utilizationEnergyCharge 83288.753417969
scalar OsgEarthNet.uav[17] utilizationEnergyOverdrawMission 0
scalar OsgEarthNet.uav[17] utilizationEnergyOverdrawMaintenance 0
scalar OsgEarthNet.uav[17] utilizationCountMissions 19
scalar OsgEarthNet.uav[17] utilizationCountManeuversMission 198
scalar OsgEarthNet.uav[17] utilizationCountManeuversMaintenance 38
scalar OsgEarthNet.uav[17] utilizationCountChargeState 19
scalar OsgEarthNet.uav[17] utilizationCountOverdrawnAfterMission 0
scalar OsgEarthNet.uav[17] utilizationCountIdleState 20
scalar OsgEarthNet.uav[17] utilizationFail 0
scalar OsgEarthNet.uav[17] simulationTime 259200
scalar OsgEarthNet.uav[18] utilizationSecMission 694.00169469977
scalar OsgEarthNet.uav[18] utilizationSecMaintenance 338.49695459722
scalar OsgEarthNet.uav[18] utilizationSecCharge 3720
scalar OsgEarthNet.uav[18] utilizationSecIdle 254447.5003507
scalar OsgEarthNet.uav[18] utilizationEnergyMission 3105.0856933594
scalar OsgEarthNet.uav[18] utilizationEnergyMaintenance 1504.2356071472
scalar OsgEarthNet.uav[18] utilizationEnergyCharge 4609.3188476562
scalar OsgEarthNet.uav[18] utilizationEnergyOverdrawMission 0
scalar OsgEarthNet.uav[18] utilizationEnergyOverdrawMaintenance 0
scalar OsgEarthNet.uav[18] utilizationCountMissions 1
scalar OsgEarthNet.uav[18] utilizationCountManeuversMission 13
scalar OsgEarthNet.uav[18] utilizationCountManeuversMaintenance 2
scalar OsgEarthNet.uav[18] utilizationCountChargeState 1
scalar OsgEarthNet.uav[18] utilizationCountOverdrawnAfterMission 0
scalar OsgEarthNet.uav[18] utilizationCountIdleState 2
scalar OsgEarthNet.uav[18] utilizationFail 0
scalar OsgEarthNet.uav[18] simulationTime 259200
scalar OsgEarthNet.uav[19] utilizationSecMission 25748.441406601
scalar OsgEarthNet.uav[19] utilizationSecMaintenance 13678.571636612
scalar OsgEarthNet.uav[19] utilizationSecCharge 149790
scalar OsgEarthNet.uav[19] utilizationSecIdle 69982.985956787
scalar OsgEarthNet.uav[19] utilizationEnergyMission 119213.2130661
scalar OsgEarthNet.uav[19] utilizationEnergyMaintenance 64380.935073853
scalar OsgEarthNet.uav[19] utilizationEnergyCharge 183344.91625977
scalar OsgEarthNet.uav[19] utilizationEnergyOverdrawMission 0
scalar OsgEarthNet.uav[19] utilizationEnergyOverdrawMaintenance 0
scalar OsgEarthNet.uav[19] utilizationCountMissions 43
scalar OsgEarthNet.uav[19] utilizationCountManeuversMission 420
scalar OsgEarthNet.uav[19] utilizationCountManeuversMaintenance 86
scalar OsgEarthNet.uav[19] utilizationCountChargeState 43
scalar OsgEarthNet.uav[19] utilizationCountOverdrawnAfterMission 0
scalar OsgEarthNet.uav[19] utilizationCountIdleState 44
scalar OsgEarthNet.uav[19] utilizationFail 0
scalar OsgEarthNet.uav[19] simulationTime 259200
scalar OsgEarthNet.uav[20] utilizationSecMission 760.62515258028
scalar OsgEarthNet.uav[20] utilizationSecMaintenance 291.95923480269
scalar OsgEarthNet.uav[20] utilizationSecCharge 3830
scalar OsgEarthNet.uav[20] utilizationSecIdle 254317.41461262
scalar OsgEarthNet.uav[20] utilizationEnergyMission 3458.5472412109
scalar OsgEarthNet.uav[20] utilizationEnergyMaintenance 1392.133140564
scalar OsgEarthNet.uav[20] utilizationEnergyCharge 4850.6831054688
scalar OsgEarthNet.uav[20] utilizationEnergyOverdrawMission 0
scalar OsgEarthNet.uav[20] utilizationEnergyOverdrawMaintenance 0
scalar OsgEarthNet.uav[20] utilizationCountMissions 1
scalar OsgEarthNet.uav[20] utilizationCountManeuversMission 12
scalar OsgEarthNet.uav[20] utilizationCountManeuversMaintenance 2
scalar OsgEarthNet.uav[20] utilizationCountChargeState 1
scalar OsgEarthNet.uav[20] utilizationCountOverdrawnAfterMission 0
scalar OsgEarthNet.uav[20] utilizationCountIdleState 2
scalar OsgEarthNet.uav[20] utilizationFail 0
scalar OsgEarthNet.uav[20] simulationTime 259200
scalar OsgEarthNet.uav[21] utilizationSecMission 682.94783150361
scalar OsgEarthNet.uav[21] utilizationSecMaintenance 228.1606024445
scalar OsgEarthNet.uav[21] utilizationSecCharge 3600
scalar OsgEarthNet.uav[21] utilizationSecIdle 254688.89056605
scalar OsgEarthNet.uav[21] utilizationEnergyMission 3301.5911102295
scalar OsgEarthNet.uav[21] utilizationEnergyMaintenance 1170.8184738159
scalar OsgEarthNet.uav[21] utilizationEnergyCharge 4472.4135742188
scalar OsgEarthNet.uav[21] utilizationEnergyOverdrawMission 0
scalar OsgEarthNet.uav[21] utilizationEnergyOverdrawMaintenance 0
scalar OsgEarthNet.uav[21] utilizationCountMissions 1
scalar OsgEarthNet.uav[21] utilizationCountManeuversMission 12
scalar OsgEarthNet.uav[21] utilizationCountManeuversMaintenance 2
scalar OsgEarthNet.uav[21] utilizationCountChargeState 1
scalar OsgEarthNet.uav[21] utilizationCountOverdrawnAfterMission 0
scalar OsgEarthNet.uav[21] utilizationCountIdleState 2
scalar OsgEarthNet.uav[21] utilizationFail 0
scalar OsgEarthNet.uav[21] simulationTime 259200
scalar OsgEarthNet.uav[22] utilizationSecMission 887.1741082606
scalar OsgEarthNet.uav[22] utilizationSecMaintenance 148.2728194454
scalar OsgEarthNet.uav[22] utilizationSecCharge 3860
scalar OsgEarthNet.uav[22] utilizationSecIdle 254304.55207229
scalar OsgEarthNet.uav[22] utilizationEnergyMission 4209.2707977295
scalar OsgEarthNet.uav[22] utilizationEnergyMaintenance 595.70331573486
scalar OsgEarthNet.uav[22] utilizationEnergyCharge 4896.5971679688
scalar OsgEarthNet.uav[22] utilizationEnergyOverdrawMission 0
scalar OsgEarthNet.uav[22] utilizationEnergyOverdrawMaintenance 0
scalar OsgEarthNet.uav[22] utilizationCountMissions 1
scalar OsgEarthNet.uav[22] utilizationCountManeuversMission 14
scalar OsgEarthNet.uav[22] utilizationCountManeuversMaintenance 2
scalar OsgEarthNet.uav[22] utilizationCountChargeState 1
scalar OsgEarthNet.uav[22] utilizationCountOverdrawnAfterMission 0
scalar OsgEarthNet.uav[22] utilizationCountIdleState 2
scalar OsgEarthNet.uav[22] utilizationFail 0
scalar OsgEarthNet.uav[22] simulationTime 259200
scalar OsgEarthNet.uav[23] utilizationSecMission 836.77707522227
scalar OsgEarthNet.uav[23] utilizationSecMaintenance 217.0347828456
scalar OsgEarthNet.uav[23] utilizationSecCharge 3860
scalar OsgEarthNet.uav[23] utilizationSecIdle 254286.18714193
scalar OsgEarthNet.uav[23] utilizationEnergyMission 3870.7208404541
scalar OsgEarthNet.uav[23] utilizationEnergyMaintenance 1066.4480400085
scalar OsgEarthNet.uav[23] utilizationEnergyCharge 4937.1665039062
scalar OsgEarthNet.uav[23] utilizationEnergyOverdrawMission 0
scalar OsgEarthNet.uav[23] utilizationEnergyOverdrawMaintenance 0
scalar OsgEarthNet.uav[23] utilizationCountMissions 1
scalar OsgEarthNet.uav[23] utilizationCountManeuversMission 13
scalar OsgEarthNet.uav[23] utilizationCountManeuversMaintenance 2
scalar OsgEarthNet.uav[23] utilizationCountChargeState 1
scalar OsgEarthNet.uav[23] utilizationCountOverdrawnAfterMission 0
scalar OsgEarthNet.uav[23] utilizationCountIdleState 2
scalar OsgEarthNet.uav[23] utilizationFail 0
scalar OsgEarthNet.uav[23] simulationTime 259200
scalar OsgEarthNet.uav[24] utilizationSecMission 29228.759504156
scalar OsgEarthNet.uav[24] utilizationSecMaintenance 12560.275510171
scalar OsgEarthNet.uav[24] utilizationSecCharge 156560
scalar OsgEarthNet.uav[24] utilizationSecIdle 60850.963985674
scalar OsgEarthNet.uav[24] utilizationEnergyMission 135005.14565226
scalar OsgEarthNet.uav[24] utilizationEnergyMaintenance 60216.115474701
scalar OsgEarthNet.uav[24] utilizationEnergyCharge 191374.7421875
scalar OsgEarthNet.uav[24] utilizationEnergyOverdrawMission 0
scalar OsgEarthNet.uav[24] utilizationEnergyOverdrawMaintenance 0
scalar OsgEarthNet.uav[24] utilizationCountMissions 45
scalar OsgEarthNet.uav[24] utilizationCountManeuversMission 475
scalar OsgEarthNet.uav[24] utilizationCountManeuversMaintenance 91
scalar OsgEarthNet.uav[24] utilizationCountChargeState 45
scalar OsgEarthNet.uav[24] utilizationCountOverdrawnAfterMission 0
scalar OsgEarthNet.uav[24] utilizationCountIdleState 46
scalar OsgEarthNet.uav[24] utilizationFail 0
scalar OsgEarthNet.uav[24] simulationTime 259200
scalar OsgEarthNet.uav[25] utilizationSecMission 694.00169469977
scalar OsgEarthNet.uav[25] utilizationSecMaintenance 338.49695459722
scalar OsgEarthNet.uav[25] utilizationSecCharge 3890
scalar OsgEarthNet.uav[25] utilizationSecIdle 254277.5003507
scalar OsgEarthNet.uav[25] utilizationEnergyMission 3338.7540969849
scalar OsgEarthNet.uav[25] utilizationEnergyMaintenance 1576.596446991
scalar OsgEarthNet.uav[25] utilizationEnergyCharge 4915.3544921875
scalar OsgEarthNet.uav[25] utilizationEnergyOverdrawMission 0
scalar OsgEarthNet.uav[25] utilizationEnergyOverdrawMaintenance 0
scalar OsgEarthNet.uav[25] utilizationCountMissions 1
scalar OsgEarthNet.uav[25] utilizationCountManeuversMission 13
scalar OsgEarthNet.uav[25] utilizationCountManeuversMaintenance 2
scalar OsgEarthNet.uav[25] utilizationCountChargeState 1
scalar OsgEarthNet.uav[25] utilizationCountOverdrawnAfterMission 0
scalar OsgEarthNet.uav[25] utilizationCountIdleState 2
scalar OsgEarthNet.uav[25] utilizationFail 0
scalar OsgEarthNet.uav[25] simulationTime 259200
scalar OsgEarthNet.uav[26] utilizationSecMission 570.98871244881
scalar OsgEarthNet.uav[26] utilizationSecMaintenance 276.2282017063
scalar OsgEarthNet.uav[26] utilizationSecCharge 3290
scalar OsgEarthNet.uav[26] utilizationSecIdle 255062.78208584
scalar OsgEarthNet.uav[26] utilizationEnergyMission 2772.429901123
scalar OsgEarthNet.uav[26] utilizationEnergyMaintenance 1168.584148407
scalar OsgEarthNet.uav[26] utilizationEnergyCharge 3941.0122070312
scalar OsgEarthNet.uav[26] utilizationEnergyOverdrawMission 0
scalar OsgEarthNet.uav[26] utilizationEnergyOverdrawMaintenance 0
scalar OsgEarthNet.uav[26] utilizationCountMissions 1
scalar OsgEarthNet.uav[26] utilizationCountManeuversMission 8
scalar OsgEarthNet.uav[26] utilizationCountManeuversMaintenance 2
scalar OsgEarthNet.uav[26] utilizationCountChargeState 1
scalar OsgEarthNet.uav[26] utilizationCountOverdrawnAfterMission 0
scalar OsgEarthNet.uav[26] utilizationCountIdleState 2
scalar OsgEarthNet.uav[26] utilizationFail 0
scalar OsgEarthNet.uav[26] simulationTime 259200
scalar OsgEarthNet.uav[27] utilizationSecMission 25484.867613683
scalar OsgEarthNet.uav[27] utilizationSecMaintenance 10560.032674538
scalar OsgEarthNet.uav[27] utilizationSecCharge 137090
scalar OsgEarthNet.uav[27] utilizationSecIdle 86065.098711779
scalar OsgEarthNet.uav[27] utilizationEnergyMission 117781.74721527
scalar OsgEarthNet.uav[27] utilizationEnergyMaintenance 50405.395385742
scalar OsgEarthNet.uav[27] utilizationEnergyCharge 168139.38574219
scalar OsgEarthNet.uav[27] utilizationEnergyOverdrawMission 0
scalar OsgEarthNet.uav[27] utilizationEnergyOverdrawMaintenance 0
scalar OsgEarthNet.uav[27] utilizationCountMissions 39
scalar OsgEarthNet.uav[27] utilizationCountManeuversMission 418
scalar OsgEarthNet.uav[27] utilizationCountManeuversMaintenance 78
scalar OsgEarthNet.uav[27] utilizationCountChargeState 39
scalar OsgEarthNet.uav[27] utilizationCountOverdrawnAfterMission 0
scalar OsgEarthNet.uav[27] utilizationCountIdleState 40
scalar OsgEarthNet.uav[27] utilizationFail 0
scalar OsgEarthNet.uav[27] simulationTime 259200
scalar OsgEarthNet.uav[28] utilizationSecMission 694.00169469977
scalar OsgEarthNet.uav[28] utilizationSecMaintenance 338.49695459722
scalar OsgEarthNet.uav[28] utilizationSecCharge 3780
scalar OsgEarthNet.uav[28] utilizationSecIdle 254387.5003507
scalar OsgEarthNet.uav[28] utilizationEnergyMission 3149.2816009521
scalar OsgEarthNet.uav[28] utilizationEnergyMaintenance 1585.425365448
scalar OsgEarthNet.uav[28] utilizationEnergyCharge 4734.712890625
scalar OsgEarthNet.uav[28] utilizationEnergyOverdrawMission 0
scalar OsgEarthNet.uav[28] utilizationEnergyOverdrawMaintenance 0
scalar OsgEarthNet.uav[28] utilizationCountMissions 1
scalar OsgEarthNet.uav[28] utilizationCountManeuversMission 13
scalar OsgEarthNet.uav[28] utilizationCountManeuversMaintenance 2
scalar OsgEarthNet.uav[28] utilizationCountChargeState 1
scalar OsgEarthNet.uav[28] utilizationCountOverdrawnAfterMission 0
scalar OsgEarthNet.uav[28] utilizationCountIdleState 2
scalar OsgEarthNet.uav[28] utilizationFail 0
scalar OsgEarthNet.uav[28] simulationTime 259200
scalar OsgEarthNet.uav[29] utilizationSecMission 33156.311455901
scalar OsgEarthNet.uav[29] utilizationSecMaintenance 12150.684094733
scalar OsgEarthNet.uav[29] utilizationSecCharge 164871.00344937
scalar OsgEarthNet.uav[29] utilizationSecIdle 49022
scalar OsgEarthNet.uav[29] utilizationEnergyMission 152972.4028244
scalar OsgEarthNet.uav[29] utilizationEnergyMaintenance 56262.364082336
scalar OsgEarthNet.uav[29] utilizationEnergyCharge 205666.96337891
scalar OsgEarthNet.uav[29] utilizationEnergyOverdrawMission 0
scalar OsgEarthNet.uav[29] utilizationEnergyOverdrawMaintenance 0
scalar OsgEarthNet.uav[29] utilizationCountMissions 46
scalar OsgEarthNet.uav[29] utilizationCountManeuversMission 527
scalar OsgEarthNet.uav[29] utilizationCountManeuversMaintenance 91
scalar OsgEarthNet.uav[29] utilizationCountChargeState 46
scalar OsgEarthNet.uav[29] utilizationCountOverdrawnAfterMission 0
scalar OsgEarthNet.uav[29] utilizationCountIdleState 46
scalar OsgEarthNet.uav[29] utilizationFail 0
scalar OsgEarthNet.uav[29] simulationTime 259200
scalar OsgEarthNet.uav[30] utilizationSecMission 29326.067848481
scalar OsgEarthNet.uav[30] utilizationSecMaintenance 9611.3498128072
scalar OsgEarthNet.uav[30] utilizationSecCharge 143066.26413678
scalar OsgEarthNet.uav[30] utilizationSecIdle 77196.317201928
scalar OsgEarthNet.uav[30] utilizationEnergyMission 136016.40060806
scalar OsgEarthNet.uav[30] utilizationEnergyMaintenance 45231.071041107
scalar OsgEarthNet.uav[30] utilizationEnergyCharge 178313.77197266
scalar OsgEarthNet.uav[30] utilizationEnergyOverdrawMission 0
scalar OsgEarthNet.uav[30] utilizationEnergyOverdrawMaintenance 0
scalar OsgEarthNet.uav[30] utilizationCountMissions 40
scalar OsgEarthNet.uav[30] utilizationCountManeuversMission 474
scalar OsgEarthNet.uav[30] utilizationCountManeuversMaintenance 80
scalar OsgEarthNet.uav[30] utilizationCountChargeState 40
scalar OsgEarthNet.uav[30] utilizationCountOverdrawnAfterMission 0
scalar OsgEarthNet.uav[30] utilizationCountIdleState 40
scalar OsgEarthNet.uav[30] utilizationFail 0
scalar OsgEarthNet.uav[30] simulationTime 259200
scalar OsgEarthNet.uav[31] utilizationSecMission 28911.379475524
scalar OsgEarthNet.uav[31] utilizationSecMaintenance 13984.347304558
scalar OsgEarthNet.uav[31] utilizationSecCharge 161587.50276363
scalar OsgEarthNet.uav[31] utilizationSecIdle 54716.769456289
scalar OsgEarthNet.uav[31] utilizationEnergyMission 133804.66610718
scalar OsgEarthNet.uav[31] utilizationEnergyMaintenance 65941.957950592
scalar OsgEarthNet.uav[31] utilizationEnergyCharge 199440.25976562
scalar OsgEarthNet.uav[31] utilizationEnergyOverdrawMission 0
scalar OsgEarthNet.uav[31] utilizationEnergyOverdrawMaintenance 0
scalar OsgEarthNet.uav[31] utilizationCountMissions 46
scalar OsgEarthNet.uav[31] utilizationCountManeuversMission 472
scalar OsgEarthNet.uav[31] utilizationCountManeuversMaintenance 92
scalar OsgEarthNet.uav[31] utilizationCountChargeState 46
scalar OsgEarthNet.uav[31] utilizationCountOverdrawnAfterMission 0
scalar OsgEarthNet.uav[31] utilizationCountIdleState 46
scalar OsgEarthNet.uav[31] utilizationFail 0
scalar OsgEarthNet.uav[31] simulationTime 259200
scalar OsgEarthNet.uav[32] utilizationSecMission 32636.014250158
scalar OsgEarthNet.uav[32] utilizationSecMaintenance 11372.441191668
scalar OsgEarthNet.uav[32] utilizationSecCharge 160859.54355817
scalar OsgEarthNet.uav[32] utilizationSecIdle 54332
scalar OsgEarthNet.uav[32] utilizationEnergyMission 151575.14435835
scalar OsgEarthNet.uav[32] utilizationEnergyMaintenance 53473.485439301
scalar OsgEarthNet.uav[32] utilizationEnergyCharge 200574.92384338
scalar OsgEarthNet.uav[32] utilizationEnergyOverdrawMission 0
scalar OsgEarthNet.uav[32] utilizationEnergyOverdrawMaintenance 0
scalar OsgEarthNet.uav[32] utilizationCountMissions 45
scalar OsgEarthNet.uav[32] utilizationCountManeuversMission 519
scalar OsgEarthNet.uav[32] utilizationCountManeuversMaintenance 89
scalar OsgEarthNet.uav[32] utilizationCountChargeState 45
scalar OsgEarthNet.uav[32] utilizationCountOverdrawnAfterMission 0
scalar OsgEarthNet.uav[32] utilizationCountIdleState 45
scalar OsgEarthNet.uav[32] utilizationFail 0
scalar OsgEarthNet.uav[32] simulationTime 259200
scalar OsgEarthNet.uav[33] utilizationSecMission 684.4732299383
scalar OsgEarthNet.uav[33] utilizationSecMaintenance 298.56834692969
scalar OsgEarthNet.uav[33] utilizationSecCharge 3830
scalar OsgEarthNet.uav[33] utilizationSecIdle 254386.95742313
scalar OsgEarthNet.uav[33] utilizationEnergyMission 3401.0514068604
scalar OsgEarthNet.uav[33] utilizationEnergyMaintenance 1466.667350769
scalar OsgEarthNet.uav[33] utilizationEnergyCharge 4867.7231445312
scalar OsgEarthNet.uav[33] utilizationEnergyOverdrawMission 0
scalar OsgEarthNet.uav[33] utilizationEnergyOverdrawMaintenance 0
scalar OsgEarthNet.uav[33] utilizationCountMissions 1
scalar OsgEarthNet.uav[33] utilizationCountManeuversMission 11
scalar OsgEarthNet.uav[33] utilizationCountManeuversMaintenance 2
scalar OsgEarthNet.uav[33] utilizationCountChargeState 1
scalar OsgEarthNet.uav[33] utilizationCountOverdrawnAfterMission 0
scalar OsgEarthNet.uav[33] utilizationCountIdleState 2
scalar OsgEarthNet.uav[33] utilizationFail 0
scalar OsgEarthNet.uav[33] simulationTime 259200
scalar OsgEarthNet.uav[34] utilizationSecMission 25566.769563391
scalar OsgEarthNet.uav[34] utilizationSecMaintenance 10824.610227664
scalar OsgEarthNet.uav[34] utilizationSecCharge 138464.95103096
scalar OsgEarthNet.uav[34] utilizationSecIdle 84343.668177988
scalar OsgEarthNet.uav[34] utilizationEnergyMission 119608.75741577
scalar OsgEarthNet.uav[34] utilizationEnergyMaintenance 51396.239105225
scalar OsgEarthNet.uav[34] utilizationEnergyCharge 170762.49951172
scalar OsgEarthNet.uav[34] utilizationEnergyOverdrawMission 0
scalar OsgEarthNet.uav[34] utilizationEnergyOverdrawMaintenance 0
scalar OsgEarthNet.uav[34] utilizationCountMissions 39
scalar OsgEarthNet.uav[34] utilizationCountManeuversMission 409
scalar OsgEarthNet.uav[34] utilizationCountManeuversMaintenance 78
scalar OsgEarthNet.uav[34] utilizationCountChargeState 39
scalar OsgEarthNet.uav[34] utilizationCountOverdrawnAfterMission 0
scalar OsgEarthNet.uav[34] utilizationCountIdleState 39
scalar OsgEarthNet.uav[34] utilizationFail 0
scalar OsgEarthNet.uav[34] simulationTime 259200
scalar OsgEarthNet.uav[35] utilizationSecMission 25859.951416942
scalar OsgEarthNet.uav[35] utilizationSecMaintenance 13663.805747437
scalar OsgEarthNet.uav[35] utilizationSecCharge 151150
scalar OsgEarthNet.uav[35] utilizationSecIdle 68526.241835621
scalar OsgEarthNet.uav[35] utilizationEnergyMission 121676.21803844
scalar OsgEarthNet.uav[35] utilizationEnergyMaintenance 64430.140956879
scalar OsgEarthNet.uav[35] utilizationEnergyCharge 183775.78100586
scalar OsgEarthNet.uav[35] utilizationEnergyOverdrawMission 0
scalar OsgEarthNet.uav[35] utilizationEnergyOverdrawMaintenance 0
scalar OsgEarthNet.uav[35] utilizationCountMissions 44
scalar OsgEarthNet.uav[35] utilizationCountManeuversMission 425
scalar OsgEarthNet.uav[35] utilizationCountManeuversMaintenance 89
scalar OsgEarthNet.uav[35] utilizationCountChargeState 44
scalar OsgEarthNet.uav[35] utilizationCountOverdrawnAfterMission 0
scalar OsgEarthNet.uav[35] utilizationCountIdleState 45
scalar OsgEarthNet.uav[35] utilizationFail 0
scalar OsgEarthNet.uav[35] simulationTime 259200
scalar OsgEarthNet.uav[36] utilizationSecMission 684.4732299383
scalar OsgEarthNet.uav[36] utilizationSecMaintenance 298.56834692969
scalar OsgEarthNet.uav[36] utilizationSecCharge 3890
scalar OsgEarthNet.uav[36] utilizationSecIdle 254326.95742313
scalar OsgEarthNet.uav[36] utilizationEnergyMission 3374.6721725464
scalar OsgEarthNet.uav[36] utilizationEnergyMaintenance 1580.4971542358
scalar OsgEarthNet.uav[36] utilizationEnergyCharge 4955.16796875
scalar OsgEarthNet.uav[36] utilizationEnergyOverdrawMission 0
scalar OsgEarthNet.uav[36] utilizationEnergyOverdrawMaintenance 0
scalar OsgEarthNet.uav[36] utilizationCountMissions 1
scalar OsgEarthNet.uav[36] utilizationCountManeuversMission 11
scalar OsgEarthNet.uav[36] utilizationCountManeuversMaintenance 2
scalar OsgEarthNet.uav[36] utilizationCountChargeState 1
scalar OsgEarthNet.uav[36] utilizationCountOverdrawnAfterMission 0
scalar OsgEarthNet.uav[36] utilizationCountIdleState 2
scalar OsgEarthNet.uav[36] utilizationFail 0
scalar OsgEarthNet.uav[36] simulationTime 259200
scalar OsgEarthNet.uav[37] utilizationSecMission 29108.886438748
scalar OsgEarthNet.uav[37] utilizationSecMaintenance 12016.316298048
scalar OsgEarthNet.uav[37] utilizationSecCharge 153000
scalar OsgEarthNet.uav[37] utilizationSecIdle 65074.796263204
scalar OsgEarthNet.uav[37] utilizationEnergyMission 135314.78853989
scalar OsgEarthNet.uav[37] utilizationEnergyMaintenance 54871.257389069
scalar OsgEarthNet.uav[37] utilizationEnergyCharge 190143.46899414
scalar OsgEarthNet.uav[37] utilizationEnergyOverdrawMission 0
scalar OsgEarthNet.uav[37] utilizationEnergyOverdrawMaintenance 0
scalar OsgEarthNet.uav[37] utilizationCountMissions 42
scalar OsgEarthNet.uav[37] utilizationCountManeuversMission 485
scalar OsgEarthNet.uav[37] utilizationCountManeuversMaintenance 84
scalar OsgEarthNet.uav[37] utilizationCountChargeState 42
scalar OsgEarthNet.uav[37] utilizationCountOverdrawnAfterMission 0
scalar OsgEarthNet.uav[37] utilizationCountIdleState 43
scalar OsgEarthNet.uav[37] utilizationFail 0
scalar OsgEarthNet.uav[37] simulationTime 259200
scalar OsgEarthNet.uav[38] utilizationSecMission 694.00169469977
scalar OsgEarthNet.uav[38] utilizationSecMaintenance 338.49695459722
scalar OsgEarthNet.uav[38] utilizationSecCharge 3790
scalar OsgEarthNet.uav[38] utilizationSecIdle 254377.5003507
scalar OsgEarthNet.uav[38] utilizationEnergyMission 3123.1652755737
scalar OsgEarthNet.uav[38] utilizationEnergyMaintenance 1615.0211906433
scalar OsgEarthNet.uav[38] utilizationEnergyCharge 4738.1845703125
scalar OsgEarthNet.uav[38] utilizationEnergyOverdrawMission 0
scalar OsgEarthNet.uav[38] utilizationEnergyOverdrawMaintenance 0
scalar OsgEarthNet.uav[38] utilizationCountMissions 1
scalar OsgEarthNet.uav[38] utilizationCountManeuversMission 13
scalar OsgEarthNet.uav[38] utilizationCountManeuversMaintenance 2
scalar OsgEarthNet.uav[38] utilizationCountChargeState 1
scalar OsgEarthNet.uav[38] utilizationCountOverdrawnAfterMission 0
scalar OsgEarthNet.uav[38] utilizationCountIdleState 2
scalar OsgEarthNet.uav[38] utilizationFail 0
scalar OsgEarthNet.uav[38] simulationTime 259200
scalar OsgEarthNet.uav[39] utilizationSecMission 2515.4957381659
scalar OsgEarthNet.uav[39] utilizationSecMaintenance 1001.0857499723
scalar OsgEarthNet.uav[39] utilizationSecCharge 13830
scalar OsgEarthNet.uav[39] utilizationSecIdle 241853.41751186
scalar OsgEarthNet.uav[39] utilizationEnergyMission 12138.905227661
scalar OsgEarthNet.uav[39] utilizationEnergyMaintenance 4788.5825653076
scalar OsgEarthNet.uav[39] utilizationEnergyCharge 16877.526855469
scalar OsgEarthNet.uav[39] utilizationEnergyOverdrawMission 0
scalar OsgEarthNet.uav[39] utilizationEnergyOverdrawMaintenance 0
scalar OsgEarthNet.uav[39] utilizationCountMissions 4
scalar OsgEarthNet.uav[39] utilizationCountManeuversMission 39
scalar OsgEarthNet.uav[39] utilizationCountManeuversMaintenance 8
scalar OsgEarthNet.uav[39] utilizationCountChargeState 4
scalar OsgEarthNet.uav[39] utilizationCountOverdrawnAfterMission 0
scalar OsgEarthNet.uav[39] utilizationCountIdleState 5
scalar OsgEarthNet.uav[39] utilizationFail 0
scalar OsgEarthNet.uav[39] simulationTime 259200
scalar OsgEarthNet.uav[40] utilizationSecMission 18426.668634094
scalar OsgEarthNet.uav[40] utilizationSecMaintenance 7618.4665100628
scalar OsgEarthNet.uav[40] utilizationSecCharge 98290
scalar OsgEarthNet.uav[40] utilizationSecIdle 134864.86385584
scalar OsgEarthNet.uav[40] utilizationEnergyMission 84869.68686676
scalar OsgEarthNet.uav[40] utilizationEnergyMaintenance 36859.118198395
scalar OsgEarthNet.uav[40] utilizationEnergyCharge 122313.79467773
scalar OsgEarthNet.uav[40] utilizationEnergyOverdrawMission 0
scalar OsgEarthNet.uav[40] utilizationEnergyOverdrawMaintenance 0
scalar OsgEarthNet.uav[40] utilizationCountMissions 27
scalar OsgEarthNet.uav[40] utilizationCountManeuversMission 303
scalar OsgEarthNet.uav[40] utilizationCountManeuversMaintenance 54
scalar OsgEarthNet.uav[40] utilizationCountChargeState 27
scalar OsgEarthNet.uav[40] utilizationCountOverdrawnAfterMission 0
scalar OsgEarthNet.uav[40] utilizationCountIdleState 28
scalar OsgEarthNet.uav[40] utilizationFail 0
scalar OsgEarthNet.uav[40] simulationTime 259200
scalar OsgEarthNet.uav[41] utilizationSecMission 19502.901529033
scalar OsgEarthNet.uav[41] utilizationSecMaintenance 8891.791153262
scalar OsgEarthNet.uav[41] utilizationSecCharge 104958.72263561
scalar OsgEarthNet.uav[41] utilizationSecIdle 125846.58368209
scalar OsgEarthNet.uav[41] utilizationEnergyMission 89107.828575134
scalar OsgEarthNet.uav[41] utilizationEnergyMaintenance 42388.272693634
scalar OsgEarthNet.uav[41] utilizationEnergyCharge 128703.7668457
scalar OsgEarthNet.uav[41] utilizationEnergyOverdrawMission 0
scalar OsgEarthNet.uav[41] utilizationEnergyOverdrawMaintenance 0
scalar OsgEarthNet.uav[41] utilizationCountMissions 31
scalar OsgEarthNet.uav[41] utilizationCountManeuversMission 324
scalar OsgEarthNet.uav[41] utilizationCountManeuversMaintenance 62
scalar OsgEarthNet.uav[41] utilizationCountChargeState 31
scalar OsgEarthNet.uav[41] utilizationCountOverdrawnAfterMission 0
scalar OsgEarthNet.uav[41] utilizationCountIdleState 31
scalar OsgEarthNet.uav[41] utilizationFail 0
scalar OsgEarthNet.uav[41] simulationTime 259200
scalar OsgEarthNet.uav[42] utilizationSecMission 21778.754018931
scalar OsgEarthNet.uav[42] utilizationSecMaintenance 8457.7098707886
scalar OsgEarthNet.uav[42] utilizationSecCharge 111822.13662589
scalar OsgEarthNet.uav[42] utilizationSecIdle 117141.39848439
scalar OsgEarthNet.uav[42] utilizationEnergyMission 99565.671470642
scalar OsgEarthNet.uav[42] utilizationEnergyMaintenance 39228.093322754
scalar OsgEarthNet.uav[42] utilizationEnergyCharge 138962.31591797
scalar OsgEarthNet.uav[42] utilizationEnergyOverdrawMission 0
scalar OsgEarthNet.uav[42] utilizationEnergyOverdrawMaintenance 0
scalar OsgEarthNet.uav[42] utilizationCountMissions 31
scalar OsgEarthNet.uav[42] utilizationCountManeuversMission 358
scalar OsgEarthNet.uav[42] utilizationCountManeuversMaintenance 62
scalar OsgEarthNet.uav[42] utilizationCountChargeState 31
scalar OsgEarthNet.uav[42] utilizationCountOverdrawnAfterMission 0
scalar OsgEarthNet.uav[42] utilizationCountIdleState 31
scalar OsgEarthNet.uav[42] utilizationFail 0
scalar OsgEarthNet.uav[42] simulationTime 259200
scalar OsgEarthNet.uav[43] utilizationSecMission 760.62515258028
scalar OsgEarthNet.uav[43] utilizationSecMaintenance 291.95923480269
scalar OsgEarthNet.uav[43] utilizationSecCharge 3750
scalar OsgEarthNet.uav[43] utilizationSecIdle 254397.41461262
scalar OsgEarthNet.uav[43] utilizationEnergyMission 3366.5102615356
scalar OsgEarthNet.uav[43] utilizationEnergyMaintenance 1373.5469589233
scalar OsgEarthNet.uav[43] utilizationEnergyCharge 4740.0561523438
scalar OsgEarthNet.uav[43] utilizationEnergyOverdrawMission 0
scalar OsgEarthNet.uav[43] utilizationEnergyOverdrawMaintenance 0
scalar OsgEarthNet.uav[43] utilizationCountMissions 1
scalar OsgEarthNet.uav[43] utilizationCountManeuversMission 12
scalar OsgEarthNet.uav[43] utilizationCountManeuversMaintenance 2
scalar OsgEarthNet.uav[43] utilizationCountChargeState 1
scalar OsgEarthNet.uav[43] utilizationCountOverdrawnAfterMission 0
scalar OsgEarthNet.uav[43] utilizationCountIdleState 2
scalar OsgEarthNet.uav[43] utilizationFail 0
scalar OsgEarthNet.uav[43] simulationTime 259200
scalar OsgEarthNet.uav[44] utilizationSecMission 24238.734017916
scalar OsgEarthNet.uav[44] utilizationSecMaintenance 11501.254568547
scalar OsgEarthNet.uav[44] utilizationSecCharge 129914.88292557
scalar OsgEarthNet.uav[44] utilizationSecIdle 93545.127487966
scalar OsgEarthNet.uav[44] utilizationEnergyMission 112196.29712677
scalar OsgEarthNet.uav[44] utilizationEnergyMaintenance 53410.631950378
scalar OsgEarthNet.uav[44] utilizationEnergyCharge 160800.24899292
scalar OsgEarthNet.uav[44] utilizationEnergyOverdrawMission 0
scalar OsgEarthNet.uav[44] utilizationEnergyOverdrawMaintenance 0
scalar OsgEarthNet.uav[44] utilizationCountMissions 37
scalar OsgEarthNet.uav[44] utilizationCountManeuversMission 402
scalar OsgEarthNet.uav[44] utilizationCountManeuversMaintenance 74
scalar OsgEarthNet.uav[44] utilizationCountChargeState 37
scalar OsgEarthNet.uav[44] utilizationCountOverdrawnAfterMission 0
scalar OsgEarthNet.uav[44] utilizationCountIdleState 37
scalar OsgEarthNet.uav[44] utilizationFail 0
scalar OsgEarthNet.uav[44] simulationTime 259200
scalar OsgEarthNet.uav[45] utilizationSecMission 887.1741082606
scalar OsgEarthNet.uav[45] utilizationSecMaintenance 171.13387461676
scalar OsgEarthNet.uav[45] utilizationSecCharge 3690
scalar OsgEarthNet.uav[45] utilizationSecIdle 254451.69101712
scalar OsgEarthNet.uav[45] utilizationEnergyMission 3877.7000579834
scalar OsgEarthNet.uav[45] utilizationEnergyMaintenance 603.55654144287
scalar OsgEarthNet.uav[45] utilizationEnergyCharge 4576.2954101562
scalar OsgEarthNet.uav[45] utilizationEnergyOverdrawMission 0
scalar OsgEarthNet.uav[45] utilizationEnergyOverdrawMaintenance 0
scalar OsgEarthNet.uav[45] utilizationCountMissions 1
scalar OsgEarthNet.uav[45] utilizationCountManeuversMission 14
scalar OsgEarthNet.uav[45] utilizationCountManeuversMaintenance 2
scalar OsgEarthNet.uav[45] utilizationCountChargeState 1
scalar OsgEarthNet.uav[45] utilizationCountOverdrawnAfterMission 0
scalar OsgEarthNet.uav[45] utilizationCountIdleState 2
scalar OsgEarthNet.uav[45] utilizationFail 0
scalar OsgEarthNet.uav[45] simulationTime 259200
scalar OsgEarthNet.uav[46] utilizationSecMission 570.98871244881
scalar OsgEarthNet.uav[46] utilizationSecMaintenance 276.2282017063
scalar OsgEarthNet.uav[46] utilizationSecCharge 3420
scalar OsgEarthNet.uav[46] utilizationSecIdle 254932.78208584
scalar OsgEarthNet.uav[46] utilizationEnergyMission 2803.1820831299
scalar OsgEarthNet.uav[46] utilizationEnergyMaintenance 1305.0681266785
scalar OsgEarthNet.uav[46] utilizationEnergyCharge 4108.25
scalar OsgEarthNet.uav[46] utilizationEnergyOverdrawMission 0
scalar OsgEarthNet.uav[46] utilizationEnergyOverdrawMaintenance 0
scalar OsgEarthNet.uav[46] utilizationCountMissions 1
scalar OsgEarthNet.uav[46] utilizationCountManeuversMission 8
scalar OsgEarthNet.uav[46] utilizationCountManeuversMaintenance 2
scalar OsgEarthNet.uav[46] utilizationCountChargeState 1
scalar OsgEarthNet.uav[46] utilizationCountOverdrawnAfterMission 0
scalar OsgEarthNet.uav[46] utilizationCountIdleState 2
scalar OsgEarthNet.uav[46] utilizationFail 0
scalar OsgEarthNet.uav[46] simulationTime 259200
scalar OsgEarthNet.uav[47] utilizationSecMission 28499.877172905
scalar OsgEarthNet.uav[47] utilizationSecMaintenance 11258.168303218
scalar OsgEarthNet.uav[47] utilizationSecCharge 147417.24782484
scalar OsgEarthNet.uav[47] utilizationSecIdle 72024.705699036
scalar OsgEarthNet.uav[47] utilizationEnergyMission 132570.60961914
scalar OsgEarthNet.uav[47] utilizationEnergyMaintenance 51619.705234528
scalar OsgEarthNet.uav[47] utilizationEnergyCharge 182468.69848633
scalar OsgEarthNet.uav[47] utilizationEnergyOverdrawMission 0
scalar OsgEarthNet.uav[47] utilizationEnergyOverdrawMaintenance 0
scalar OsgEarthNet.uav[47] utilizationCountMissions 42
scalar OsgEarthNet.uav[47] utilizationCountManeuversMission 462
scalar OsgEarthNet.uav[47] utilizationCountManeuversMaintenance 84
scalar OsgEarthNet.uav[47] utilizationCountChargeState 42
scalar OsgEarthNet.uav[47] utilizationCountOverdrawnAfterMission 0
scalar OsgEarthNet.uav[47] utilizationCountIdleState 42
scalar OsgEarthNet.uav[47] utilizationFail 0
scalar OsgEarthNet.uav[47] simulationTime 259200
scalar OsgEarthNet.uav[48] utilizationSecMission 27767.169185834
scalar OsgEarthNet.uav[48] utilizationSecMaintenance 11901.528401154
scalar OsgEarthNet.uav[48] utilizationSecCharge 147980
scalar OsgEarthNet.uav[48] utilizationSecIdle 71551.301413011
scalar OsgEarthNet.uav[48] utilizationEnergyMission 128055.7372818
scalar OsgEarthNet.uav[48] utilizationEnergyMaintenance 55459.302928925
scalar OsgEarthNet.uav[48] utilizationEnergyCharge 183392.69091797
scalar OsgEarthNet.uav[48] utilizationEnergyOverdrawMission 0
scalar OsgEarthNet.uav[48] utilizationEnergyOverdrawMaintenance 0
scalar OsgEarthNet.uav[48] utilizationCountMissions 41
scalar OsgEarthNet.uav[48] utilizationCountManeuversMission 450
scalar OsgEarthNet.uav[48] utilizationCountManeuversMaintenance 82
scalar OsgEarthNet.uav[48] utilizationCountChargeState 41
scalar OsgEarthNet.uav[48] utilizationCountOverdrawnAfterMission 0
scalar OsgEarthNet.uav[48] utilizationCountIdleState 42
scalar OsgEarthNet.uav[48] utilizationFail 0
scalar OsgEarthNet.uav[48] simulationTime 259200
scalar OsgEarthNet.uav[49] utilizationSecMission 750.20472747826
scalar OsgEarthNet.uav[49] utilizationSecMaintenance 261.68051383311
scalar OsgEarthNet.uav[49] utilizationSecCharge 3900
scalar OsgEarthNet.uav[49] utilizationSecIdle 254288.11375869
scalar OsgEarthNet.uav[49] utilizationEnergyMission 3681.0466308594
scalar OsgEarthNet.uav[49] utilizationEnergyMaintenance 1275.4429130554
scalar OsgEarthNet.uav[49] utilizationEnergyCharge 4956.4853515625
scalar OsgEarthNet.uav[49] utilizationEnergyOverdrawMission 0
scalar OsgEarthNet.uav[49] utilizationEnergyOverdrawMaintenance 0
scalar OsgEarthNet.uav[49] utilizationCountMissions 1
scalar OsgEarthNet.uav[49] utilizationCountManeuversMission 11
scalar OsgEarthNet.uav[49] utilizationCountManeuversMaintenance 2
scalar OsgEarthNet.uav[49] utilizationCountChargeState 1
scalar OsgEarthNet.uav[49] utilizationCountOverdrawnAfterMission 0
scalar OsgEarthNet.uav[49] utilizationCountIdleState 2
scalar OsgEarthNet.uav[49] utilizationFail 0
scalar OsgEarthNet.uav[49] simulationTime 259200
scalar OsgEarthNet.uav[50] utilizationSecMission 760.62515258028
scalar OsgEarthNet.uav[50] utilizationSecMaintenance 291.95923480269
scalar OsgEarthNet.uav[50] utilizationSecCharge 3920
scalar OsgEarthNet.uav[50] utilizationSecIdle 254227.41461262
scalar OsgEarthNet.uav[50] utilizationEnergyMission 3583.3786773682
scalar OsgEarthNet.uav[50] utilizationEnergyMaintenance 1478.3794174194
scalar OsgEarthNet.uav[50] utilizationEnergyCharge 5061.7573242188
scalar OsgEarthNet.uav[50] utilizationEnergyOverdrawMission 0
scalar OsgEarthNet.uav[50] utilizationEnergyOverdrawMaintenance 0
scalar OsgEarthNet.uav[50] utilizationCountMissions 1
scalar OsgEarthNet.uav[50] utilizationCountManeuversMission 12
scalar OsgEarthNet.uav[50] utilizationCountManeuversMaintenance 2
scalar OsgEarthNet.uav[50] utilizationCountChargeState 1
scalar OsgEarthNet.uav[50] utilizationCountOverdrawnAfterMission 0
scalar OsgEarthNet.uav[50] utilizationCountIdleState 2
scalar OsgEarthNet.uav[50] utilizationFail 0
scalar OsgEarthNet.uav[50] simulationTime 259200
scalar OsgEarthNet.uav[51] utilizationSecMission 31895.894468168
scalar OsgEarthNet.uav[51] utilizationSecMaintenance 12211.376824065
scalar OsgEarthNet.uav[51] utilizationSecCharge 162600.72770777
scalar OsgEarthNet.uav[51] utilizationSecIdle 52492
scalar OsgEarthNet.uav[51] utilizationEnergyMission 148022.40294647
scalar OsgEarthNet.uav[51] utilizationEnergyMaintenance 57404.493907928
scalar OsgEarthNet.uav[51] utilizationEnergyCharge 203318.30786133
scalar OsgEarthNet.uav[51] utilizationEnergyOverdrawMission 0
scalar OsgEarthNet.uav[51] utilizationEnergyOverdrawMaintenance 0
scalar OsgEarthNet.uav[51] utilizationCountMissions 45
scalar OsgEarthNet.uav[51] utilizationCountManeuversMission 516
scalar OsgEarthNet.uav[51] utilizationCountManeuversMaintenance 89
scalar OsgEarthNet.uav[51] utilizationCountChargeState 45
scalar OsgEarthNet.uav[51] utilizationCountOverdrawnAfterMission 0
scalar OsgEarthNet.uav[51] utilizationCountIdleState 45
scalar OsgEarthNet.uav[51] utilizationFail 0
scalar OsgEarthNet.uav[51] simulationTime 259200
scalar OsgEarthNet.uav[52] utilizationSecMission 750.20472747826
scalar OsgEarthNet.uav[52] utilizationSecMaintenance 218.84515192887
scalar OsgEarthNet.uav[52] utilizationSecCharge 3780
scalar OsgEarthNet.uav[52] utilizationSecIdle 254450.94912059
scalar OsgEarthNet.uav[52] utilizationEnergyMission 3659.4309692383
scalar OsgEarthNet.uav[52] utilizationEnergyMaintenance 1107.7703781128
scalar OsgEarthNet.uav[52] utilizationEnergyCharge 4723.3276367188
scalar OsgEarthNet.uav[52] utilizationEnergyOverdrawMission 0
scalar OsgEarthNet.uav[52] utilizationEnergyOverdrawMaintenance 0
scalar OsgEarthNet.uav[52] utilizationCountMissions 1
scalar OsgEarthNet.uav[52] utilizationCountManeuversMission 11
scalar OsgEarthNet.uav[52] utilizationCountManeuversMaintenance 2
scalar OsgEarthNet.uav[52] utilizationCountChargeState 1
scalar OsgEarthNet.uav[52] utilizationCountOverdrawnAfterMission 0
scalar OsgEarthNet.uav[52] utilizationCountIdleState 2
scalar OsgEarthNet.uav[52] utilizationFail 0
scalar OsgEarthNet.uav[52] simulationTime 259200
scalar OsgEarthNet.uav[53] utilizationSecMission 18244.065891307
scalar OsgEarthNet.uav[53] utilizationSecMaintenance 8221.204631103
scalar OsgEarthNet.uav[53] utilizationSecCharge 99140
scalar OsgEarthNet.uav[53] utilizationSecIdle 133594.72847759
scalar OsgEarthNet.uav[53] utilizationEnergyMission 85296.010055542
scalar OsgEarthNet.uav[53] utilizationEnergyMaintenance 38189.499027252
scalar OsgEarthNet.uav[53] utilizationEnergyCharge 123474.57006836
scalar OsgEarthNet.uav[53] utilizationEnergyOverdrawMission 0
scalar OsgEarthNet.uav[53] utilizationEnergyOverdrawMaintenance 0
scalar OsgEarthNet.uav[53] utilizationCountMissions 27
scalar OsgEarthNet.uav[53] utilizationCountManeuversMission 296
scalar OsgEarthNet.uav[53] utilizationCountManeuversMaintenance 54
scalar OsgEarthNet.uav[53] utilizationCountChargeState 27
scalar OsgEarthNet.uav[53] utilizationCountOverdrawnAfterMission 0
scalar OsgEarthNet.uav[53] utilizationCountIdleState 28
scalar OsgEarthNet.uav[53] utilizationFail 0
scalar OsgEarthNet.uav[53] simulationTime 259200
scalar OsgEarthNet.uav[54] utilizationSecMission 494.14522745751
scalar OsgEarthNet.uav[54] utilizationSecMaintenance 475.67121193677
scalar OsgEarthNet.uav[54] utilizationSecCharge 3660
scalar OsgEarthNet.uav[54] utilizationSecIdle 254570.18256061
scalar OsgEarthNet.uav[54] utilizationEnergyMission 2287.0857391357
scalar OsgEarthNet.uav[54] utilizationEnergyMaintenance 2375.3797721863
scalar OsgEarthNet.uav[54] utilizationEnergyCharge 4545.25
scalar OsgEarthNet.uav[54] utilizationEnergyOverdrawMission 0
scalar OsgEarthNet.uav[54] utilizationEnergyOverdrawMaintenance 0
scalar OsgEarthNet.uav[54] utilizationCountMissions 1
scalar OsgEarthNet.uav[54] utilizationCountManeuversMission 8
scalar OsgEarthNet.uav[54] utilizationCountManeuversMaintenance 2
scalar OsgEarthNet.uav[54] utilizationCountChargeState 1
scalar OsgEarthNet.uav[54] utilizationCountOverdrawnAfterMission 0
scalar OsgEarthNet.uav[54] utilizationCountIdleState 2
scalar OsgEarthNet.uav[54] utilizationFail 0
scalar OsgEarthNet.uav[54] simulationTime 259200
scalar OsgEarthNet.uav[55] utilizationSecMission 28196.495122011
scalar OsgEarthNet.uav[55] utilizationSecMaintenance 12450.593372929
scalar OsgEarthNet.uav[55] utilizationSecCharge 151828.41256388
scalar OsgEarthNet.uav[55] utilizationSecIdle 66724.497941176
scalar OsgEarthNet.uav[55] utilizationEnergyMission 130264.96255493
scalar OsgEarthNet.uav[55] utilizationEnergyMaintenance 58430.209926605
scalar OsgEarthNet.uav[55] utilizationEnergyCharge 186583.87768555
scalar OsgEarthNet.uav[55] utilizationEnergyOverdrawMission 0
scalar OsgEarthNet.uav[55] utilizationEnergyOverdrawMaintenance 0
scalar OsgEarthNet.uav[55] utilizationCountMissions 44
scalar OsgEarthNet.uav[55] utilizationCountManeuversMission 459
scalar OsgEarthNet.uav[55] utilizationCountManeuversMaintenance 88
scalar OsgEarthNet.uav[55] utilizationCountChargeState 44
scalar OsgEarthNet.uav[55] utilizationCountOverdrawnAfterMission 0
scalar OsgEarthNet.uav[55] utilizationCountIdleState 44
scalar OsgEarthNet.uav[55] utilizationFail 0
scalar OsgEarthNet.uav[55] simulationTime 259200
scalar OsgEarthNet.uav[56] utilizationSecMission 760.62515258028
scalar OsgEarthNet.uav[56] utilizationSecMaintenance 291.95923480269
scalar OsgEarthNet.uav[56] utilizationSecCharge 3800
scalar OsgEarthNet.uav[56] utilizationSecIdle 254347.41461262
scalar OsgEarthNet.uav[56] utilizationEnergyMission 3298.4683685303
scalar OsgEarthNet.uav[56] utilizationEnergyMaintenance 1494.905418396
scalar OsgEarthNet.uav[56] utilizationEnergyCharge 4793.3745117188
scalar OsgEarthNet.uav[56] utilizationEnergyOverdrawMission 0
scalar OsgEarthNet.uav[56] utilizationEnergyOverdrawMaintenance 0
scalar OsgEarthNet.uav[56] utilizationCountMissions 1
scalar OsgEarthNet.uav[56] utilizationCountManeuversMission 12
scalar OsgEarthNet.uav[56] utilizationCountManeuversMaintenance 2
scalar OsgEarthNet.uav[56] utilizationCountChargeState 1
scalar OsgEarthNet.uav[56] utilizationCountOverdrawnAfterMission 0
scalar OsgEarthNet.uav[56] utilizationCountIdleState 2
scalar OsgEarthNet.uav[56] utilizationFail 0
scalar OsgEarthNet.uav[56] simulationTime 259200
scalar OsgEarthNet.uav[57] utilizationSecMission 4638.3704200756
scalar OsgEarthNet.uav[57] utilizationSecMaintenance 1854.853095434
scalar OsgEarthNet.uav[57] utilizationSecCharge 25390
scalar OsgEarthNet.uav[57] utilizationSecIdle 227316.77548449
scalar OsgEarthNet.uav[57] utilizationEnergyMission 22331.265686035
scalar OsgEarthNet.uav[57] utilizationEnergyMaintenance 9167.4965515137
scalar OsgEarthNet.uav[57] utilizationEnergyCharge 31512.234375
scalar OsgEarthNet.uav[57] utilizationEnergyOverdrawMission 0
scalar OsgEarthNet.uav[57] utilizationEnergyOverdrawMaintenance 0
scalar OsgEarthNet.uav[57] utilizationCountMissions 7
scalar OsgEarthNet.uav[57] utilizationCountManeuversMission 75
scalar OsgEarthNet.uav[57] utilizationCountManeuversMaintenance 14
scalar OsgEarthNet.uav[57] utilizationCountChargeState 7
scalar OsgEarthNet.uav[57] utilizationCountOverdrawnAfterMission 0
scalar OsgEarthNet.uav[57] utilizationCountIdleState 8
scalar OsgEarthNet.uav[57] utilizationFail 0
scalar OsgEarthNet.uav[57] simulationTime 259200
scalar OsgEarthNet.uav[58] utilizationSecMission 15420.331311583
scalar OsgEarthNet.uav[58] utilizationSecMaintenance 5381.8183401582
scalar OsgEarthNet.uav[58] utilizationSecCharge 77530
scalar OsgEarthNet.uav[58] utilizationSecIdle 160867.84934826
scalar OsgEarthNet.uav[58] utilizationEnergyMission 72167.435142517
scalar OsgEarthNet.uav[58] utilizationEnergyMaintenance 24619.401378632
scalar OsgEarthNet.uav[58] utilizationEnergyCharge 96788.335205078
scalar OsgEarthNet.uav[58] utilizationEnergyOverdrawMission 0
scalar OsgEarthNet.uav[58] utilizationEnergyOverdrawMaintenance 0
scalar OsgEarthNet.uav[58] utilizationCountMissions 21
scalar OsgEarthNet.uav[58] utilizationCountManeuversMission 256
scalar OsgEarthNet.uav[58] utilizationCountManeuversMaintenance 42
scalar OsgEarthNet.uav[58] utilizationCountChargeState 21
scalar OsgEarthNet.uav[58] utilizationCountOverdrawnAfterMission 0
scalar OsgEarthNet.uav[58] utilizationCountIdleState 22
scalar OsgEarthNet.uav[58] utilizationFail 0
scalar OsgEarthNet.uav[58] simulationTime 259200
scalar OsgEarthNet.uav[59] utilizationSecMission 760.62515258028
scalar OsgEarthNet.uav[59] utilizationSecMaintenance 291.95923480269
scalar OsgEarthNet.uav[59] utilizationSecCharge 3720
scalar OsgEarthNet.uav[59] utilizationSecIdle 254427.41461262
scalar OsgEarthNet.uav[59] utilizationEnergyMission 3391.9256744385
scalar OsgEarthNet.uav[59] utilizationEnergyMaintenance 1284.7490463257
scalar OsgEarthNet.uav[59] utilizationEnergyCharge 4676.6748046875
scalar OsgEarthNet.uav[59] utilizationEnergyOverdrawMission 0
scalar OsgEarthNet.uav[59] utilizationEnergyOverdrawMaintenance 0
scalar OsgEarthNet.uav[59] utilizationCountMissions 1
scalar OsgEarthNet.uav[59] utilizationCountManeuversMission 12
scalar OsgEarthNet.uav[59] utilizationCountManeuversMaintenance 2
scalar OsgEarthNet.uav[59] utilizationCountChargeState 1
scalar OsgEarthNet.uav[59] utilizationCountOverdrawnAfterMission 0
scalar OsgEarthNet.uav[59] utilizationCountIdleState 2
scalar OsgEarthNet.uav[59] utilizationFail 0
scalar OsgEarthNet.uav[59] simulationTime 259200
scalar OsgEarthNet.uav[60] utilizationSecMission 581.19640448947
scalar OsgEarthNet.uav[60] utilizationSecMaintenance 393.71026136566
scalar OsgEarthNet.uav[60] utilizationSecCharge 3840
scalar OsgEarthNet.uav[60] utilizationSecIdle 254385.09233414
scalar OsgEarthNet.uav[60] utilizationEnergyMission 2669.4961090088
scalar OsgEarthNet.uav[60] utilizationEnergyMaintenance 2095.6686630249
scalar OsgEarthNet.uav[60] utilizationEnergyCharge 4860.96875
scalar OsgEarthNet.uav[60] utilizationEnergyOverdrawMission 0
scalar OsgEarthNet.uav[60] utilizationEnergyOverdrawMaintenance 0
scalar OsgEarthNet.uav[60] utilizationCountMissions 1
scalar OsgEarthNet.uav[60] utilizationCountManeuversMission 9
scalar OsgEarthNet.uav[60] utilizationCountManeuversMaintenance 2
scalar OsgEarthNet.uav[60] utilizationCountChargeState 1
scalar OsgEarthNet.uav[60] utilizationCountOverdrawnAfterMission 0
scalar OsgEarthNet.uav[60] utilizationCountIdleState 2
scalar OsgEarthNet.uav[60] utilizationFail 0
scalar OsgEarthNet.uav[60] simulationTime 259200
scalar OsgEarthNet.uav[61] utilizationSecMission 24009.968759259
scalar OsgEarthNet.uav[61] utilizationSecMaintenance 10456.624194594
scalar OsgEarthNet.uav[61] utilizationSecCharge 130444.82776747
scalar OsgEarthNet.uav[61] utilizationSecIdle 94288.578278675
scalar OsgEarthNet.uav[61] utilizationEnergyMission 110399.12593079
scalar OsgEarthNet.uav[61] utilizationEnergyMaintenance 49600.062099457
scalar OsgEarthNet.uav[61] utilizationEnergyCharge 160579.48193359
scalar OsgEarthNet.uav[61] utilizationEnergyOverdrawMission 0
scalar OsgEarthNet.uav[61] utilizationEnergyOverdrawMaintenance 0
scalar OsgEarthNet.uav[61] utilizationCountMissions 37
scalar OsgEarthNet.uav[61] utilizationCountManeuversMission 389
scalar OsgEarthNet.uav[61] utilizationCountManeuversMaintenance 74
scalar OsgEarthNet.uav[61] utilizationCountChargeState 37
scalar OsgEarthNet.uav[61] utilizationCountOverdrawnAfterMission 0
scalar OsgEarthNet.uav[61] utilizationCountIdleState 37
scalar OsgEarthNet.uav[61] utilizationFail 0
scalar OsgEarthNet.uav[61] simulationTime 259200
scalar OsgEarthNet.uav[62] utilizationSecMission 887.1741082606
scalar OsgEarthNet.uav[62] utilizationSecMaintenance 148.2728194454
scalar OsgEarthNet.uav[62] utilizationSecCharge 3890
scalar OsgEarthNet.uav[62] utilizationSecIdle 254274.55207229
scalar OsgEarthNet.uav[62] utilizationEnergyMission 4141.7769927979
scalar OsgEarthNet.uav[62] utilizationEnergyMaintenance 613.53783416748
scalar OsgEarthNet.uav[62] utilizationEnergyCharge 4935.1704101562
scalar OsgEarthNet.uav[62] utilizationEnergyOverdrawMission 0
scalar OsgEarthNet.uav[62] utilizationEnergyOverdrawMaintenance 0
scalar OsgEarthNet.uav[62] utilizationCountMissions 1
scalar OsgEarthNet.uav[62] utilizationCountManeuversMission 14
scalar OsgEarthNet.uav[62] utilizationCountManeuversMaintenance 2
scalar OsgEarthNet.uav[62] utilizationCountChargeState 1
scalar OsgEarthNet.uav[62] utilizationCountOverdrawnAfterMission 0
scalar OsgEarthNet.uav[62] utilizationCountIdleState 2
scalar OsgEarthNet.uav[62] utilizationFail 0
scalar OsgEarthNet.uav[62] simulationTime 259200
scalar OsgEarthNet.uav[63] utilizationSecMission 25480.179444904
scalar OsgEarthNet.uav[63] utilizationSecMaintenance 14281.363025959
scalar OsgEarthNet.uav[63] utilizationSecCharge 151026.45652914
scalar OsgEarthNet.uav[63] utilizationSecIdle 68412
scalar OsgEarthNet.uav[63] utilizationEnergyMission 117059.5465174
scalar OsgEarthNet.uav[63] utilizationEnergyMaintenance 67183.226272583
scalar OsgEarthNet.uav[63] utilizationEnergyCharge 183816.11962891
scalar OsgEarthNet.uav[63] utilizationEnergyOverdrawMission 0
scalar OsgEarthNet.uav[63] utilizationEnergyOverdrawMaintenance 0
scalar OsgEarthNet.uav[63] utilizationCountMissions 44
scalar OsgEarthNet.uav[63] utilizationCountManeuversMission 423
scalar OsgEarthNet.uav[63] utilizationCountManeuversMaintenance 87
scalar OsgEarthNet.uav[63] utilizationCountChargeState 44
scalar OsgEarthNet.uav[63] utilizationCountOverdrawnAfterMission 0
scalar OsgEarthNet.uav[63] utilizationCountIdleState 44
scalar OsgEarthNet.uav[63] utilizationFail 0
scalar OsgEarthNet.uav[63] simulationTime 259200
scalar OsgEarthNet.uav[64] utilizationSecMission 5636.1248390097
scalar OsgEarthNet.uav[64] utilizationSecMaintenance 2778.8743933986
scalar OsgEarthNet.uav[64] utilizationSecCharge 29983.305389697
scalar OsgEarthNet.uav[64] utilizationSecIdle 220801.69437789
scalar OsgEarthNet.uav[64] utilizationEnergyMission 26139.858100891
scalar OsgEarthNet.uav[64] utilizationEnergyMaintenance 12525.126335144
scalar OsgEarthNet.uav[64] utilizationEnergyCharge 37792.860107422
scalar OsgEarthNet.uav[64] utilizationEnergyOverdrawMission 0
scalar OsgEarthNet.uav[64] utilizationEnergyOverdrawMaintenance 0
scalar OsgEarthNet.uav[64] utilizationCountMissions 9
scalar OsgEarthNet.uav[64] utilizationCountManeuversMission 96
scalar OsgEarthNet.uav[64] utilizationCountManeuversMaintenance 18
scalar OsgEarthNet.uav[64] utilizationCountChargeState 9
scalar OsgEarthNet.uav[64] utilizationCountOverdrawnAfterMission 0
scalar OsgEarthNet.uav[64] utilizationCountIdleState 9
scalar OsgEarthNet.uav[64] utilizationFail 0
scalar OsgEarthNet.uav[64] simulationTime 259200
scalar OsgEarthNet.uav[65] utilizationSecMission 12646.976894399
scalar OsgEarthNet.uav[65] utilizationSecMaintenance 4957.2230007385
scalar OsgEarthNet.uav[65] utilizationSecCharge 64587.225522571
scalar OsgEarthNet.uav[65] utilizationSecIdle 177008.57358229
[...]
scalar OsgEarthNet.uav[82] utilizationSecCharge 3610
scalar OsgEarthNet.uav[82] utilizationSecIdle 254620.94912059
scalar OsgEarthNet.uav[82] utilizationEnergyMission 3421.7150268555
scalar OsgEarthNet.uav[82] utilizationEnergyMaintenance 990.30587005615
scalar OsgEarthNet.uav[82] utilizationEnergyCharge 4428.72265625
scalar OsgEarthNet.uav[82] utilizationEnergyOverdrawMission 0
scalar OsgEarthNet.uav[82] utilizationEnergyOverdrawMaintenance 0
scalar OsgEarthNet.uav[82] utilizationCountMissions 1
scalar OsgEarthNet.uav[82] utilizationCountManeuversMission 11
scalar OsgEarthNet.uav[82] utilizationCountManeuversMaintenance 2
scalar OsgEarthNet.uav[82] utilizationCountChargeState 1
scalar OsgEarthNet.uav[82] utilizationCountOverdrawnAfterMission 0
scalar OsgEarthNet.uav[82] utilizationCountIdleState 2
scalar OsgEarthNet.uav[82] utilizationFail 0
scalar OsgEarthNet.uav[82] simulationTime 259200
scalar OsgEarthNet.uav[83] utilizationSecMission 760.62515258028
scalar OsgEarthNet.uav[83] utilizationSecMaintenance 291.95923480269
scalar OsgEarthNet.uav[83] utilizationSecCharge 3650
scalar OsgEarthNet.uav[83] utilizationSecIdle 254497.41461262
scalar OsgEarthNet.uav[83] utilizationEnergyMission 3114.2361602783
scalar OsgEarthNet.uav[83] utilizationEnergyMaintenance 1399.1462631226
scalar OsgEarthNet.uav[83] utilizationEnergyCharge 4513.3833007812
scalar OsgEarthNet.uav[83] utilizationEnergyOverdrawMission 0
scalar OsgEarthNet.uav[83] utilizationEnergyOverdrawMaintenance 0
scalar OsgEarthNet.uav[83] utilizationCountMissions 1
scalar OsgEarthNet.uav[83] utilizationCountManeuversMission 12
scalar OsgEarthNet.uav[83] utilizationCountManeuversMaintenance 2
scalar OsgEarthNet.uav[83] utilizationCountChargeState 1
scalar OsgEarthNet.uav[83] utilizationCountOverdrawnAfterMission 0
scalar OsgEarthNet.uav[83] utilizationCountIdleState 2
scalar OsgEarthNet.uav[83] utilizationFail 0
scalar OsgEarthNet.uav[83] simulationTime 259200
scalar OsgEarthNet.uav[84] utilizationSecMission 25618.074854467
scalar OsgEarthNet.uav[84] utilizationSecMaintenance 10309.797985311
scalar OsgEarthNet.uav[84] utilizationSecCharge 131781.06836503
scalar OsgEarthNet.uav[84] utilizationSecIdle 91491.057795193
scalar OsgEarthNet.uav[84] utilizationEnergyMission 118236.90956879
scalar OsgEarthNet.uav[84] utilizationEnergyMaintenance 48268.126911163
scalar OsgEarthNet.uav[84] utilizationEnergyCharge 162530.34436035
scalar OsgEarthNet.uav[84] utilizationEnergyOverdrawMission 0
scalar OsgEarthNet.uav[84] utilizationEnergyOverdrawMaintenance 0
scalar OsgEarthNet.uav[84] utilizationCountMissions 38
scalar OsgEarthNet.uav[84] utilizationCountManeuversMission 431
scalar OsgEarthNet.uav[84] utilizationCountManeuversMaintenance 76
scalar OsgEarthNet.uav[84] utilizationCountChargeState 38
scalar OsgEarthNet.uav[84] utilizationCountOverdrawnAfterMission 0
scalar OsgEarthNet.uav[84] utilizationCountIdleState 38
scalar OsgEarthNet.uav[84] utilizationFail 0
scalar OsgEarthNet.uav[84] simulationTime 259200
scalar OsgEarthNet.uav[85] utilizationSecMission 1500.4094549565
scalar OsgEarthNet.uav[85] utilizationSecMaintenance 499.49696145905
scalar OsgEarthNet.uav[85] utilizationSecCharge 7160
scalar OsgEarthNet.uav[85] utilizationSecIdle 250040.09258358
scalar OsgEarthNet.uav[85] utilizationEnergyMission 7026.2683868408
scalar OsgEarthNet.uav[85] utilizationEnergyMaintenance 2150.831943512
scalar OsgEarthNet.uav[85] utilizationEnergyCharge 8873.5424804688
scalar OsgEarthNet.uav[85] utilizationEnergyOverdrawMission 0
scalar OsgEarthNet.uav[85] utilizationEnergyOverdrawMaintenance 0
scalar OsgEarthNet.uav[85] utilizationCountMissions 2
scalar OsgEarthNet.uav[85] utilizationCountManeuversMission 22
scalar OsgEarthNet.uav[85] utilizationCountManeuversMaintenance 4
scalar OsgEarthNet.uav[85] utilizationCountChargeState 2
scalar OsgEarthNet.uav[85] utilizationCountOverdrawnAfterMission 0
scalar OsgEarthNet.uav[85] utilizationCountIdleState 3
scalar OsgEarthNet.uav[85] utilizationFail 0
scalar OsgEarthNet.uav[85] simulationTime 259200
scalar OsgEarthNet.uav[86] utilizationSecMission 760.62515258028
scalar OsgEarthNet.uav[86] utilizationSecMaintenance 291.95923480269
scalar OsgEarthNet.uav[86] utilizationSecCharge 3800
scalar OsgEarthNet.uav[86] utilizationSecIdle 254347.41461262
scalar OsgEarthNet.uav[86] utilizationEnergyMission 3553.3693237305
scalar OsgEarthNet.uav[86] utilizationEnergyMaintenance 1350.055809021
scalar OsgEarthNet.uav[86] utilizationEnergyCharge 4903.4252929688
scalar OsgEarthNet.uav[86] utilizationEnergyOverdrawMission 0
scalar OsgEarthNet.uav[86] utilizationEnergyOverdrawMaintenance 0
scalar OsgEarthNet.uav[86] utilizationCountMissions 1
scalar OsgEarthNet.uav[86] utilizationCountManeuversMission 12
scalar OsgEarthNet.uav[86] utilizationCountManeuversMaintenance 2
scalar OsgEarthNet.uav[86] utilizationCountChargeState 1
scalar OsgEarthNet.uav[86] utilizationCountOverdrawnAfterMission 0
scalar OsgEarthNet.uav[86] utilizationCountIdleState 2
scalar OsgEarthNet.uav[86] utilizationFail 0
scalar OsgEarthNet.uav[86] simulationTime 259200
scalar OsgEarthNet.uav[87] utilizationSecMission 668.97472787387
scalar OsgEarthNet.uav[87] utilizationSecMaintenance 704.39426030344
scalar OsgEarthNet.uav[87] utilizationSecCharge 5850
scalar OsgEarthNet.uav[87] utilizationSecIdle 251976.63001182
scalar OsgEarthNet.uav[87] utilizationEnergyMission 3121.8464050293
scalar OsgEarthNet.uav[87] utilizationEnergyMaintenance 3434.5816993713
scalar OsgEarthNet.uav[87] utilizationEnergyCharge 6556.43359375
scalar OsgEarthNet.uav[87] utilizationEnergyOverdrawMission 0
scalar OsgEarthNet.uav[87] utilizationEnergyOverdrawMaintenance 0
scalar OsgEarthNet.uav[87] utilizationCountMissions 2
scalar OsgEarthNet.uav[87] utilizationCountManeuversMission 11
scalar OsgEarthNet.uav[87] utilizationCountManeuversMaintenance 4
scalar OsgEarthNet.uav[87] utilizationCountChargeState 2
scalar OsgEarthNet.uav[87] utilizationCountOverdrawnAfterMission 0
scalar OsgEarthNet.uav[87] utilizationCountIdleState 3
scalar OsgEarthNet.uav[87] utilizationFail 0
scalar OsgEarthNet.uav[87] simulationTime 259200
scalar OsgEarthNet.uav[88] utilizationSecMission 887.1741082606
scalar OsgEarthNet.uav[88] utilizationSecMaintenance 148.2728194454
scalar OsgEarthNet.uav[88] utilizationSecCharge 3890
scalar OsgEarthNet.uav[88] utilizationSecIdle 254274.55207229
scalar OsgEarthNet.uav[88] utilizationEnergyMission 4190.1331329346
scalar OsgEarthNet.uav[88] utilizationEnergyMaintenance 840.42137908935
scalar OsgEarthNet.uav[88] utilizationEnergyCharge 4930.2421875
scalar OsgEarthNet.uav[88] utilizationEnergyOverdrawMission 0
scalar OsgEarthNet.uav[88] utilizationEnergyOverdrawMaintenance 0
scalar OsgEarthNet.uav[88] utilizationCountMissions 1
scalar OsgEarthNet.uav[88] utilizationCountManeuversMission 14
scalar OsgEarthNet.uav[88] utilizationCountManeuversMaintenance 2
scalar OsgEarthNet.uav[88] utilizationCountChargeState 1
scalar OsgEarthNet.uav[88] utilizationCountOverdrawnAfterMission 0
scalar OsgEarthNet.uav[88] utilizationCountIdleState 2
scalar OsgEarthNet.uav[88] utilizationFail 0
scalar OsgEarthNet.uav[88] simulationTime 259200
scalar OsgEarthNet.uav[89] utilizationSecMission 760.62515258028
scalar OsgEarthNet.uav[89] utilizationSecMaintenance 291.95923480269
scalar OsgEarthNet.uav[89] utilizationSecCharge 3840
scalar OsgEarthNet.uav[89] utilizationSecIdle 254307.41461262
scalar OsgEarthNet.uav[89] utilizationEnergyMission 3424.6846618652
scalar OsgEarthNet.uav[89] utilizationEnergyMaintenance 1432.8026351929
scalar OsgEarthNet.uav[89] utilizationEnergyCharge 4857.490234375
scalar OsgEarthNet.uav[89] utilizationEnergyOverdrawMission 0
scalar OsgEarthNet.uav[89] utilizationEnergyOverdrawMaintenance 0
scalar OsgEarthNet.uav[89] utilizationCountMissions 1
scalar OsgEarthNet.uav[89] utilizationCountManeuversMission 12
scalar OsgEarthNet.uav[89] utilizationCountManeuversMaintenance 2
scalar OsgEarthNet.uav[89] utilizationCountChargeState 1
scalar OsgEarthNet.uav[89] utilizationCountOverdrawnAfterMission 0
scalar OsgEarthNet.uav[89] utilizationCountIdleState 2
scalar OsgEarthNet.uav[89] utilizationFail 0
scalar OsgEarthNet.uav[89] simulationTime 259200
scalar OsgEarthNet.uav[90] utilizationSecMission 20150.003875834
scalar OsgEarthNet.uav[90] utilizationSecMaintenance 8284.2297875458
scalar OsgEarthNet.uav[90] utilizationSecCharge 109270
scalar OsgEarthNet.uav[90] utilizationSecIdle 121495.76533662
scalar OsgEarthNet.uav[90] utilizationEnergyMission 94652.504547119
scalar OsgEarthNet.uav[90] utilizationEnergyMaintenance 39417.071727753
scalar OsgEarthNet.uav[90] utilizationEnergyCharge 134235.58544922
scalar OsgEarthNet.uav[90] utilizationEnergyOverdrawMission 0
scalar OsgEarthNet.uav[90] utilizationEnergyOverdrawMaintenance 0
scalar OsgEarthNet.uav[90] utilizationCountMissions 31
scalar OsgEarthNet.uav[90] utilizationCountManeuversMission 318
scalar OsgEarthNet.uav[90] utilizationCountManeuversMaintenance 62
scalar OsgEarthNet.uav[90] utilizationCountChargeState 31
scalar OsgEarthNet.uav[90] utilizationCountOverdrawnAfterMission 0
scalar OsgEarthNet.uav[90] utilizationCountIdleState 32
scalar OsgEarthNet.uav[90] utilizationFail 0
scalar OsgEarthNet.uav[90] simulationTime 259200
scalar OsgEarthNet.uav[91] utilizationSecMission 1079.6565278543
scalar OsgEarthNet.uav[91] utilizationSecMaintenance 774.521991181
scalar OsgEarthNet.uav[91] utilizationSecCharge 7130
scalar OsgEarthNet.uav[91] utilizationSecIdle 250215.82048096
scalar OsgEarthNet.uav[91] utilizationEnergyMission 5135.5252532959
scalar OsgEarthNet.uav[91] utilizationEnergyMaintenance 3624.1120643616
scalar OsgEarthNet.uav[91] utilizationEnergyCharge 8759.6342773438
scalar OsgEarthNet.uav[91] utilizationEnergyOverdrawMission 0
scalar OsgEarthNet.uav[91] utilizationEnergyOverdrawMaintenance 0
scalar OsgEarthNet.uav[91] utilizationCountMissions 2
scalar OsgEarthNet.uav[91] utilizationCountManeuversMission 17
scalar OsgEarthNet.uav[91] utilizationCountManeuversMaintenance 4
scalar OsgEarthNet.uav[91] utilizationCountChargeState 2
scalar OsgEarthNet.uav[91] utilizationCountOverdrawnAfterMission 0
scalar OsgEarthNet.uav[91] utilizationCountIdleState 3
scalar OsgEarthNet.uav[91] utilizationFail 0
scalar OsgEarthNet.uav[91] simulationTime 259200
scalar OsgEarthNet.uav[92] utilizationSecMission 23503.234139925
scalar OsgEarthNet.uav[92] utilizationSecMaintenance 9869.917486521
scalar OsgEarthNet.uav[92] utilizationSecCharge 125640
scalar OsgEarthNet.uav[92] utilizationSecIdle 100186.84737355
scalar OsgEarthNet.uav[92] utilizationEnergyMission 108638.17921448
scalar OsgEarthNet.uav[92] utilizationEnergyMaintenance 46768.218479157
scalar OsgEarthNet.uav[92] utilizationEnergyCharge 155450.0078125
scalar OsgEarthNet.uav[92] utilizationEnergyOverdrawMission 0
scalar OsgEarthNet.uav[92] utilizationEnergyOverdrawMaintenance 0
scalar OsgEarthNet.uav[92] utilizationCountMissions 35
scalar OsgEarthNet.uav[92] utilizationCountManeuversMission 392
scalar OsgEarthNet.uav[92] utilizationCountManeuversMaintenance 70
scalar OsgEarthNet.uav[92] utilizationCountChargeState 35
scalar OsgEarthNet.uav[92] utilizationCountOverdrawnAfterMission 0
scalar OsgEarthNet.uav[92] utilizationCountIdleState 36
scalar OsgEarthNet.uav[92] utilizationFail 0
scalar OsgEarthNet.uav[92] simulationTime 259200
scalar OsgEarthNet.uav[93] utilizationSecMission 24815.3867308
scalar OsgEarthNet.uav[93] utilizationSecMaintenance 9730.9608273168
scalar OsgEarthNet.uav[93] utilizationSecCharge 128920
scalar OsgEarthNet.uav[93] utilizationSecIdle 95733.651441883
scalar OsgEarthNet.uav[93] utilizationEnergyMission 113309.33794785
scalar OsgEarthNet.uav[93] utilizationEnergyMaintenance 45721.664733887
scalar OsgEarthNet.uav[93] utilizationEnergyCharge 159258.49682617
scalar OsgEarthNet.uav[93] utilizationEnergyOverdrawMission 0
scalar OsgEarthNet.uav[93] utilizationEnergyOverdrawMaintenance 0
scalar OsgEarthNet.uav[93] utilizationCountMissions 36
scalar OsgEarthNet.uav[93] utilizationCountManeuversMission 406
scalar OsgEarthNet.uav[93] utilizationCountManeuversMaintenance 72
scalar OsgEarthNet.uav[93] utilizationCountChargeState 36
scalar OsgEarthNet.uav[93] utilizationCountOverdrawnAfterMission 0
scalar OsgEarthNet.uav[93] utilizationCountIdleState 37
scalar OsgEarthNet.uav[93] utilizationFail 0
scalar OsgEarthNet.uav[93] simulationTime 259200
scalar OsgEarthNet.uav[94] utilizationSecMission 12980.090740771
scalar OsgEarthNet.uav[94] utilizationSecMaintenance 5784.5476513178
scalar OsgEarthNet.uav[94] utilizationSecCharge 69640.018326174
scalar OsgEarthNet.uav[94] utilizationSecIdle 170795.34228174
scalar OsgEarthNet.uav[94] utilizationEnergyMission 59645.468852997
scalar OsgEarthNet.uav[94] utilizationEnergyMaintenance 27337.324855804
scalar OsgEarthNet.uav[94] utilizationEnergyCharge 86244.370605469
scalar OsgEarthNet.uav[94] utilizationEnergyOverdrawMission 0
scalar OsgEarthNet.uav[94] utilizationEnergyOverdrawMaintenance 0
scalar OsgEarthNet.uav[94] utilizationCountMissions 20
scalar OsgEarthNet.uav[94] utilizationCountManeuversMission 211
scalar OsgEarthNet.uav[94] utilizationCountManeuversMaintenance 40
scalar OsgEarthNet.uav[94] utilizationCountChargeState 20
scalar OsgEarthNet.uav[94] utilizationCountOverdrawnAfterMission 0
scalar OsgEarthNet.uav[94] utilizationCountIdleState 20
scalar OsgEarthNet.uav[94] utilizationFail 0
scalar OsgEarthNet.uav[94] simulationTime 259200
scalar OsgEarthNet.uav[95] utilizationSecMission 694.00169469977
scalar OsgEarthNet.uav[95] utilizationSecMaintenance 338.49695459722
scalar OsgEarthNet.uav[95] utilizationSecCharge 3790
scalar OsgEarthNet.uav[95] utilizationSecIdle 254377.5003507
scalar OsgEarthNet.uav[95] utilizationEnergyMission 3198.230430603
scalar OsgEarthNet.uav[95] utilizationEnergyMaintenance 1559.565196991
scalar OsgEarthNet.uav[95] utilizationEnergyCharge 4757.7978515625
scalar OsgEarthNet.uav[95] utilizationEnergyOverdrawMission 0
scalar OsgEarthNet.uav[95] utilizationEnergyOverdrawMaintenance 0
scalar OsgEarthNet.uav[95] utilizationCountMissions 1
scalar OsgEarthNet.uav[95] utilizationCountManeuversMission 13
scalar OsgEarthNet.uav[95] utilizationCountManeuversMaintenance 2
scalar OsgEarthNet.uav[95] utilizationCountChargeState 1
scalar OsgEarthNet.uav[95] utilizationCountOverdrawnAfterMission 0
scalar OsgEarthNet.uav[95] utilizationCountIdleState 2
scalar OsgEarthNet.uav[95] utilizationFail 0
scalar OsgEarthNet.uav[95] simulationTime 259200
scalar OsgEarthNet.uav[96] utilizationSecMission 570.98871244881
scalar OsgEarthNet.uav[96] utilizationSecMaintenance 276.2282017063
scalar OsgEarthNet.uav[96] utilizationSecCharge 3280
scalar OsgEarthNet.uav[96] utilizationSecIdle 255072.78208584
scalar OsgEarthNet.uav[96] utilizationEnergyMission 2666.369354248
scalar OsgEarthNet.uav[96] utilizationEnergyMaintenance 1216.9561576843
scalar OsgEarthNet.uav[96] utilizationEnergyCharge 3883.3251953125
scalar OsgEarthNet.uav[96] utilizationEnergyOverdrawMission 0
scalar OsgEarthNet.uav[96] utilizationEnergyOverdrawMaintenance 0
scalar OsgEarthNet.uav[96] utilizationCountMissions 1
scalar OsgEarthNet.uav[96] utilizationCountManeuversMission 8
scalar OsgEarthNet.uav[96] utilizationCountManeuversMaintenance 2
scalar OsgEarthNet.uav[96] utilizationCountChargeState 1
scalar OsgEarthNet.uav[96] utilizationCountOverdrawnAfterMission 0
scalar OsgEarthNet.uav[96] utilizationCountIdleState 2
scalar OsgEarthNet.uav[96] utilizationFail 0
scalar OsgEarthNet.uav[96] simulationTime 259200
scalar OsgEarthNet.uav[97] utilizationSecMission 19312.89953351
scalar OsgEarthNet.uav[97] utilizationSecMaintenance 7965.614519206
scalar OsgEarthNet.uav[97] utilizationSecCharge 101510
scalar OsgEarthNet.uav[97] utilizationSecIdle 130411.48494728
scalar OsgEarthNet.uav[97] utilizationEnergyMission 88716.452056885
scalar OsgEarthNet.uav[97] utilizationEnergyMaintenance 37820.126804352
scalar OsgEarthNet.uav[97] utilizationEnergyCharge 126086.00219727
scalar OsgEarthNet.uav[97] utilizationEnergyOverdrawMission 0
scalar OsgEarthNet.uav[97] utilizationEnergyOverdrawMaintenance 0
scalar OsgEarthNet.uav[97] utilizationCountMissions 28
scalar OsgEarthNet.uav[97] utilizationCountManeuversMission 322
scalar OsgEarthNet.uav[97] utilizationCountManeuversMaintenance 56
scalar OsgEarthNet.uav[97] utilizationCountChargeState 28
scalar OsgEarthNet.uav[97] utilizationCountOverdrawnAfterMission 0
scalar OsgEarthNet.uav[97] utilizationCountIdleState 29
scalar OsgEarthNet.uav[97] utilizationFail 0
scalar OsgEarthNet.uav[97] simulationTime 259200
scalar OsgEarthNet.uav[98] utilizationSecMission 2299.3087252737
scalar OsgEarthNet.uav[98] utilizationSecMaintenance 802.79820261634
scalar OsgEarthNet.uav[98] utilizationSecCharge 11390
scalar OsgEarthNet.uav[98] utilizationSecIdle 244707.89207211
scalar OsgEarthNet.uav[98] utilizationEnergyMission 10769.458812714
scalar OsgEarthNet.uav[98] utilizationEnergyMaintenance 3770.3881263733
scalar OsgEarthNet.uav[98] utilizationEnergyCharge 14380.523925781
scalar OsgEarthNet.uav[98] utilizationEnergyOverdrawMission 0
scalar OsgEarthNet.uav[98] utilizationEnergyOverdrawMaintenance 0
scalar OsgEarthNet.uav[98] utilizationCountMissions 3
scalar OsgEarthNet.uav[98] utilizationCountManeuversMission 38
scalar OsgEarthNet.uav[98] utilizationCountManeuversMaintenance 6
scalar OsgEarthNet.uav[98] utilizationCountChargeState 3
scalar OsgEarthNet.uav[98] utilizationCountOverdrawnAfterMission 0
scalar OsgEarthNet.uav[98] utilizationCountIdleState 4
scalar OsgEarthNet.uav[98] utilizationFail 0
scalar OsgEarthNet.uav[98] simulationTime 259200
scalar OsgEarthNet.uav[99] utilizationSecMission 2632.3301842415
scalar OsgEarthNet.uav[99] utilizationSecMaintenance 1791.3382971204
scalar OsgEarthNet.uav[99] utilizationSecCharge 16790
scalar OsgEarthNet.uav[99] utilizationSecIdle 237986.33051864
scalar OsgEarthNet.uav[99] utilizationEnergyMission 11851.336769104
scalar OsgEarthNet.uav[99] utilizationEnergyMaintenance 8359.7085533142
scalar OsgEarthNet.uav[99] utilizationEnergyCharge 20211.043945312
scalar OsgEarthNet.uav[99] utilizationEnergyOverdrawMission 0
scalar OsgEarthNet.uav[99] utilizationEnergyOverdrawMaintenance 0
scalar OsgEarthNet.uav[99] utilizationCountMissions 5
scalar OsgEarthNet.uav[99] utilizationCountManeuversMission 43
scalar OsgEarthNet.uav[99] utilizationCountManeuversMaintenance 10
scalar OsgEarthNet.uav[99] utilizationCountChargeState 5
scalar OsgEarthNet.uav[99] utilizationCountOverdrawnAfterMission 0
scalar OsgEarthNet.uav[99] utilizationCountIdleState 6
scalar OsgEarthNet.uav[99] utilizationFail 0
scalar OsgEarthNet.uav[99] simulationTime 259200
scalar OsgEarthNet.cs[0] usedPower 525493.81344388
scalar OsgEarthNet.cs[0] chargedPower 525493.81344388
scalar OsgEarthNet.cs[0] chargedMobileNodes 114
scalar OsgEarthNet.cs[0] reservations 114
scalar OsgEarthNet.cs[1] usedPower 674351.95946544
scalar OsgEarthNet.cs[1] chargedPower 674351.95946544
scalar OsgEarthNet.cs[1] chargedMobileNodes 215
scalar OsgEarthNet.cs[1] reservations 217
scalar OsgEarthNet.cs[2] usedPower 3706472.9681221
scalar OsgEarthNet.cs[2] chargedPower 3706472.9681221
scalar OsgEarthNet.cs[2] chargedMobileNodes 793
scalar OsgEarthNet.cs[2] reservations 804
scalar OsgEarthNet.cs[3] usedPower 519846.93431326
scalar OsgEarthNet.cs[3] chargedPower 519846.93431326
scalar OsgEarthNet.cs[3] chargedMobileNodes 118
scalar OsgEarthNet.cs[3] reservations 118
scalar OsgEarthNet.cs[4] usedPower 874191.7617589
scalar OsgEarthNet.cs[4] chargedPower 874191.7617589
scalar OsgEarthNet.cs[4] chargedMobileNodes 193
scalar OsgEarthNet.cs[4] reservations 196
scalar OsgEarthNet.cs[5] usedPower 711369.86994175
scalar OsgEarthNet.cs[5] chargedPower 711369.86994175
scalar OsgEarthNet.cs[5] chargedMobileNodes 151
scalar OsgEarthNet.cs[5] reservations 152
scalar OsgEarthNet.cs[6] usedPower 1453250.4160634
scalar OsgEarthNet.cs[6] chargedPower 1453250.4160634
scalar OsgEarthNet.cs[6] chargedMobileNodes 328
scalar OsgEarthNet.cs[6] reservations 339

