version 2
run Szenario_Hotel_Gabelbach-30-20180709-13:50:28-22648
attr configname Szenario_Hotel_Gabelbach
attr datetime 20180709-13:50:28
attr experiment Szenario_Hotel_Gabelbach
attr inifile omnetpp.ini
attr iterationvars "$replM=2, $biWeight=0.4"
attr iterationvarsf replM=2,biWeight=0.4-
attr measurement "$replM=2, $biWeight=0.4"
attr network OsgEarthNet
attr processid 22648
attr repetition 6
attr replication #6
attr resultdir results
attr runnumber 30
attr seedset 30
itervar biWeight 0.4
itervar replM 2
param *.osgEarthScene.scene "\"Szenario_Hotel_Gabelbach.earth\""
param *.playgroundLatitude 50.6830269
param *.playgroundLongitude 10.8538055
param *.playgroundWidth 3500m
param *.playgroundHeight 3500m
param *.numUAVs 100
param *.cs[0].posX 3537m
param *.cs[0].posY 965m
param *.cs[0].posZ 538m
param *.cs[1].posX 312m
param *.cs[1].posY 1262m
param *.cs[1].posZ 539m
param *.cs[2].posX 2185m
param *.cs[2].posY 3026m
param *.cs[2].posZ 777m
param *.cs[3].posX 10m
param *.cs[3].posY 2200m
param *.cs[3].posZ 560m
param *.cs[4].posX 750m
param *.cs[4].posY 200m
param *.cs[4].posZ 540m
param *.cs[5].posX 2450m
param *.cs[5].posY 180m
param *.cs[5].posZ 524m
param *.cs[6].posX 3140m
param *.cs[6].posY 1790m
param *.cs[6].posZ 606m
param *.numCSs 7
param *.uav[*].replacementMethod 2
param *.uav[*].weightedSumWeight 0.4
param *.*.timeStep 10s
param *.uav[*].commandPreviewCommandCount 20
param *.missionControl.missionFiles "\"missions\\\\Szenario_WB_Hotel_Gabelbach_Mission_Hotel.waypoints,missions\\\\Szenario_WB_Hotel_Gabelbach_Mission_Kickelhahn.waypoints,missions\\\\Szenario_WB_Hotel_Gabelbach_Mission_Ilmenau_Sportplatz.waypoints,missions\\\\Szenario_WB_Hotel_Gabelbach_Mission_Manebach_Mitte.waypoints,missions\\\\Szenario_WB_Hotel_Gabelbach_Mission_Manebach_Sued.waypoints\""
param *.missionControl.missionFiles "\"missions\\\\Szenario_WB_Hotel_Gabelbach_Mission_Hotel.waypoints,missions\\\\Szenario_WB_Hotel_Gabelbach_Mission_Kickelhahn.waypoints,missions\\\\Szenario_WB_Hotel_Gabelbach_Mission_Ilmenau_Sportplatz.waypoints,missions\\\\Szenario_WB_Hotel_Gabelbach_Mission_Manebach_Mitte.waypoints,missions\\\\Szenario_WB_Hotel_Gabelbach_Mission_Manebach_Sued.waypoints,missions\\\\Szenario_WB_Hotel_Gabelbach_Hover_HoheSchlaufe.waypoints,missions\\\\Szenario_WB_Hotel_Gabelbach_Hover_Kickelhahn.waypoints,missions\\\\Szenario_WB_Hotel_Gabelbach_Hover_Gabelbachskopf.waypoints,missions\\\\Szenario_WB_Hotel_Gabelbach_Hover_Dachskopf.waypoints\""
param *.uav[0].startX 3537m
param *.uav[0].startY 965m
param *.uav[0].startZ 539m
param *.uav[1].startX 312m
param *.uav[1].startY 1262m
param *.uav[1].startZ 540m
param *.uav[2].startX 2185m
param *.uav[2].startY 3026m
param *.uav[2].startZ 778m
param *.uav[3].startX 3537m
param *.uav[3].startY 965m
param *.uav[3].startZ 539m
param *.uav[4].startX 312m
param *.uav[4].startY 1262m
param *.uav[4].startZ 540m
param *.uav[5].startX 2185m
param *.uav[5].startY 3026m
param *.uav[5].startZ 778m
param *.uav[6].startX 3537m
param *.uav[6].startY 965m
param *.uav[6].startZ 539m
param *.uav[7].startX 312m
param *.uav[7].startY 1262m
param *.uav[7].startZ 540m
param *.uav[8].startX 2185m
param *.uav[8].startY 3026m
param *.uav[8].startZ 778m
param *.uav[9].startX 3537m
param *.uav[9].startY 965m
param *.uav[9].startZ 539m
param *.uav[10].startX 3537m
param *.uav[10].startY 965m
param *.uav[10].startZ 539m
param *.uav[11].startX 312m
param *.uav[11].startY 1262m
param *.uav[11].startZ 540m
param *.uav[12].startX 2185m
param *.uav[12].startY 3026m
param *.uav[12].startZ 778m
param *.uav[13].startX 3537m
param *.uav[13].startY 965m
param *.uav[13].startZ 539m
param *.uav[14].startX 312m
param *.uav[14].startY 1262m
param *.uav[14].startZ 540m
param *.uav[15].startX 2185m
param *.uav[15].startY 3026m
param *.uav[15].startZ 778m
param *.uav[16].startX 3537m
param *.uav[16].startY 965m
param *.uav[16].startZ 539m
param *.uav[17].startX 312m
param *.uav[17].startY 1262m
param *.uav[17].startZ 540m
param *.uav[18].startX 2185m
param *.uav[18].startY 3026m
param *.uav[18].startZ 778m
param *.uav[19].startX 3537m
param *.uav[19].startY 965m
param *.uav[19].startZ 539m
param *.uav[20].startX 3537m
param *.uav[20].startY 965m
param *.uav[20].startZ 539m
param *.uav[21].startX 312m
param *.uav[21].startY 1262m
param *.uav[21].startZ 540m
param *.uav[22].startX 2185m
param *.uav[22].startY 3026m
param *.uav[22].startZ 778m
param *.uav[23].startX 3537m
param *.uav[23].startY 965m
param *.uav[23].startZ 539m
param *.uav[24].startX 312m
param *.uav[24].startY 1262m
param *.uav[24].startZ 540m
param *.uav[25].startX 2185m
param *.uav[25].startY 3026m
param *.uav[25].startZ 778m
param *.uav[26].startX 3537m
param *.uav[26].startY 965m
param *.uav[26].startZ 539m
param *.uav[27].startX 312m
param *.uav[27].startY 1262m
param *.uav[27].startZ 540m
param *.uav[28].startX 2185m
param *.uav[28].startY 3026m
param *.uav[28].startZ 778m
param *.uav[29].startX 3537m
param *.uav[29].startY 965m
param *.uav[29].startZ 539m
param *.uav[30].startX 3537m
param *.uav[30].startY 965m
param *.uav[30].startZ 539m
param *.uav[31].startX 312m
param *.uav[31].startY 1262m
param *.uav[31].startZ 540m
param *.uav[32].startX 2185m
param *.uav[32].startY 3026m
param *.uav[32].startZ 778m
param *.uav[33].startX 3537m
param *.uav[33].startY 965m
param *.uav[33].startZ 539m
param *.uav[34].startX 312m
param *.uav[34].startY 1262m
param *.uav[34].startZ 540m
param *.uav[35].startX 2185m
param *.uav[35].startY 3026m
param *.uav[35].startZ 778m
param *.uav[36].startX 3537m
param *.uav[36].startY 965m
param *.uav[36].startZ 539m
param *.uav[37].startX 312m
param *.uav[37].startY 1262m
param *.uav[37].startZ 540m
param *.uav[38].startX 2185m
param *.uav[38].startY 3026m
param *.uav[38].startZ 778m
param *.uav[39].startX 3537m
param *.uav[39].startY 965m
param *.uav[39].startZ 539m
param *.uav[40].startX 3537m
param *.uav[40].startY 965m
param *.uav[40].startZ 539m
param *.uav[41].startX 312m
param *.uav[41].startY 1262m
param *.uav[41].startZ 540m
param *.uav[42].startX 2185m
param *.uav[42].startY 3026m
param *.uav[42].startZ 778m
param *.uav[43].startX 3537m
param *.uav[43].startY 965m
param *.uav[43].startZ 539m
param *.uav[44].startX 312m
param *.uav[44].startY 1262m
param *.uav[44].startZ 540m
param *.uav[45].startX 2185m
param *.uav[45].startY 3026m
param *.uav[45].startZ 778m
param *.uav[46].startX 3537m
param *.uav[46].startY 965m
param *.uav[46].startZ 539m
param *.uav[47].startX 312m
param *.uav[47].startY 1262m
param *.uav[47].startZ 540m
param *.uav[48].startX 2185m
param *.uav[48].startY 3026m
param *.uav[48].startZ 778m
param *.uav[49].startX 3537m
param *.uav[49].startY 965m
param *.uav[49].startZ 539m
param *.uav[50].startX 3537m
param *.uav[50].startY 965m
param *.uav[50].startZ 539m
param *.uav[51].startX 312m
param *.uav[51].startY 1262m
param *.uav[51].startZ 540m
param *.uav[52].startX 2185m
param *.uav[52].startY 3026m
param *.uav[52].startZ 778m
param *.uav[53].startX 3537m
param *.uav[53].startY 965m
param *.uav[53].startZ 539m
param *.uav[54].startX 312m
param *.uav[54].startY 1262m
param *.uav[54].startZ 540m
param *.uav[55].startX 2185m
param *.uav[55].startY 3026m
param *.uav[55].startZ 778m
param *.uav[56].startX 3537m
param *.uav[56].startY 965m
param *.uav[56].startZ 539m
param *.uav[57].startX 312m
param *.uav[57].startY 1262m
param *.uav[57].startZ 540m
param *.uav[58].startX 2185m
param *.uav[58].startY 3026m
param *.uav[58].startZ 778m
param *.uav[59].startX 3537m
param *.uav[59].startY 965m
param *.uav[59].startZ 539m
param *.uav[60].startX 3537m
param *.uav[60].startY 965m
param *.uav[60].startZ 539m
param *.uav[61].startX 312m
param *.uav[61].startY 1262m
param *.uav[61].startZ 540m
param *.uav[62].startX 2185m
param *.uav[62].startY 3026m
param *.uav[62].startZ 778m
param *.uav[63].startX 3537m
param *.uav[63].startY 965m
param *.uav[63].startZ 539m
param *.uav[64].startX 312m
param *.uav[64].startY 1262m
param *.uav[64].startZ 540m
param *.uav[65].startX 2185m
param *.uav[65].startY 3026m
param *.uav[65].startZ 778m
param *.uav[66].startX 3537m
param *.uav[66].startY 965m
param *.uav[66].startZ 539m
param *.uav[67].startX 312m
param *.uav[67].startY 1262m
param *.uav[67].startZ 540m
param *.uav[68].startX 2185m
param *.uav[68].startY 3026m
param *.uav[68].startZ 778m
param *.uav[69].startX 3537m
param *.uav[69].startY 965m
param *.uav[69].startZ 539m
param *.uav[70].startX 3537m
param *.uav[70].startY 965m
param *.uav[70].startZ 539m
param *.uav[71].startX 312m
param *.uav[71].startY 1262m
param *.uav[71].startZ 540m
param *.uav[72].startX 2185m
param *.uav[72].startY 3026m
param *.uav[72].startZ 778m
param *.uav[73].startX 3537m
param *.uav[73].startY 965m
param *.uav[73].startZ 539m
param *.uav[74].startX 312m
param *.uav[74].startY 1262m
param *.uav[74].startZ 540m
param *.uav[75].startX 2185m
param *.uav[75].startY 3026m
param *.uav[75].startZ 778m
param *.uav[76].startX 3537m
param *.uav[76].startY 965m
param *.uav[76].startZ 539m
param *.uav[77].startX 312m
param *.uav[77].startY 1262m
param *.uav[77].startZ 540m
param *.uav[78].startX 2185m
param *.uav[78].startY 3026m
param *.uav[78].startZ 778m
param *.uav[79].startX 3537m
param *.uav[79].startY 965m
param *.uav[79].startZ 539m
param *.uav[80].startX 3537m
param *.uav[80].startY 965m
param *.uav[80].startZ 539m
param *.uav[81].startX 312m
param *.uav[81].startY 1262m
param *.uav[81].startZ 540m
param *.uav[82].startX 2185m
param *.uav[82].startY 3026m
param *.uav[82].startZ 778m
param *.uav[83].startX 3537m
param *.uav[83].startY 965m
param *.uav[83].startZ 539m
param *.uav[84].startX 312m
param *.uav[84].startY 1262m
param *.uav[84].startZ 540m
param *.uav[85].startX 2185m
param *.uav[85].startY 3026m
param *.uav[85].startZ 778m
param *.uav[86].startX 3537m
param *.uav[86].startY 965m
param *.uav[86].startZ 539m
param *.uav[87].startX 312m
param *.uav[87].startY 1262m
param *.uav[87].startZ 540m
param *.uav[88].startX 2185m
param *.uav[88].startY 3026m
param *.uav[88].startZ 778m
param *.uav[89].startX 3537m
param *.uav[89].startY 965m
param *.uav[89].startZ 539m
param *.uav[90].startX 3537m
param *.uav[90].startY 965m
param *.uav[90].startZ 539m
param *.uav[91].startX 312m
param *.uav[91].startY 1262m
param *.uav[91].startZ 540m
param *.uav[92].startX 2185m
param *.uav[92].startY 3026m
param *.uav[92].startZ 778m
param *.uav[93].startX 3537m
param *.uav[93].startY 965m
param *.uav[93].startZ 539m
param *.uav[94].startX 312m
param *.uav[94].startY 1262m
param *.uav[94].startZ 540m
param *.uav[95].startX 2185m
param *.uav[95].startY 3026m
param *.uav[95].startZ 778m
param *.uav[96].startX 3537m
param *.uav[96].startY 965m
param *.uav[96].startZ 539m
param *.uav[97].startX 312m
param *.uav[97].startY 1262m
param *.uav[97].startZ 540m
param *.uav[98].startX 2185m
param *.uav[98].startY 3026m
param *.uav[98].startZ 778m
param *.uav[99].startX 3537m
param *.uav[99].startY 965m
param *.uav[99].startZ 539m
param *.osgEarthScene.scene "\"boston.earth\""
param *.playgroundLatitude 42.3558
param *.playgroundLongitude -71.0677
param *.playgroundWidth 400m
param *.playgroundHeight 200m
param *.channelController.connectionColor "\"#0000FF40\""
param *.channelController.showConnections false
param *.uav[*].modelURL "\"quadrocopter.small.obj.15.scale.0,0,90.rot\""
param *.uav[*].labelColor "\"#FF7C00CC\""
param *.uav[*].label2Color "\"#FF7C00EE\""
param *.uav[*].batteryCapacity 5200mAh
param *.uav[*].batteryRemaining uav[index].batteryCapacity
param *.uav[*].predictionQuantile 0.95
param *.uav[*].replacementMethod 2
param *.uav[*].weightedSumWeight 0.5
param *.cs[*].modelURL "\"chargingstation_v1.osgt.2.scale.0,0,0.rot.0,0,-15e-1.trans\""
param *.cs[*].spotsWaiting 999
param *.cs[*].spotsCharging 999
param *.cs[*].chargeEffectivenessPercentage 100
param *.cs[*].nonLinearPhaseStartPercentage 85
param *.cs[*].chargeCurrent 6.0A
param *.cs[*].prioritizeFastCharge true
param *.missionControl.replacementSearchMethod 0
param *.*.timeStep 9s

scalar OsgEarthNet.uav[0] utilizationSecMission 760.62515258028
scalar OsgEarthNet.uav[0] utilizationSecMaintenance 291.95923480269
scalar OsgEarthNet.uav[0] utilizationSecCharge 3750
scalar OsgEarthNet.uav[0] utilizationSecIdle 254397.41461262
scalar OsgEarthNet.uav[0] utilizationEnergyMission 3335.5390167236
scalar OsgEarthNet.uav[0] utilizationEnergyMaintenance 1391.4654159546
scalar OsgEarthNet.uav[0] utilizationEnergyCharge 4727.0014648438
scalar OsgEarthNet.uav[0] utilizationEnergyOverdrawMission 0
scalar OsgEarthNet.uav[0] utilizationEnergyOverdrawMaintenance 0
scalar OsgEarthNet.uav[0] utilizationCountMissions 1
scalar OsgEarthNet.uav[0] utilizationCountManeuversMission 12
scalar OsgEarthNet.uav[0] utilizationCountManeuversMaintenance 2
scalar OsgEarthNet.uav[0] utilizationCountChargeState 1
scalar OsgEarthNet.uav[0] utilizationCountOverdrawnAfterMission 0
scalar OsgEarthNet.uav[0] utilizationCountIdleState 2
scalar OsgEarthNet.uav[0] utilizationFail 0
scalar OsgEarthNet.uav[0] simulationTime 259200
scalar OsgEarthNet.uav[1] utilizationSecMission 31573.579038662
scalar OsgEarthNet.uav[1] utilizationSecMaintenance 12971.875104627
scalar OsgEarthNet.uav[1] utilizationSecCharge 167452.54485671
scalar OsgEarthNet.uav[1] utilizationSecIdle 47202
scalar OsgEarthNet.uav[1] utilizationEnergyMission 146073.70790482
scalar OsgEarthNet.uav[1] utilizationEnergyMaintenance 61873.198635101
scalar OsgEarthNet.uav[1] utilizationEnergyCharge 204613.67492676
scalar OsgEarthNet.uav[1] utilizationEnergyOverdrawMission 0
scalar OsgEarthNet.uav[1] utilizationEnergyOverdrawMaintenance 0
scalar OsgEarthNet.uav[1] utilizationCountMissions 49
scalar OsgEarthNet.uav[1] utilizationCountManeuversMission 506
scalar OsgEarthNet.uav[1] utilizationCountManeuversMaintenance 97
scalar OsgEarthNet.uav[1] utilizationCountChargeState 49
scalar OsgEarthNet.uav[1] utilizationCountOverdrawnAfterMission 0
scalar OsgEarthNet.uav[1] utilizationCountIdleState 49
scalar OsgEarthNet.uav[1] utilizationFail 0
scalar OsgEarthNet.uav[1] simulationTime 259200
scalar OsgEarthNet.uav[2] utilizationSecMission 10111.181474771
scalar OsgEarthNet.uav[2] utilizationSecMaintenance 5039.9693676387
scalar OsgEarthNet.uav[2] utilizationSecCharge 53390
scalar OsgEarthNet.uav[2] utilizationSecIdle 190658.84815759
scalar OsgEarthNet.uav[2] utilizationEnergyMission 46445.194104024
scalar OsgEarthNet.uav[2] utilizationEnergyMaintenance 23508.609279633
scalar OsgEarthNet.uav[2] utilizationEnergyCharge 66020.322998047
scalar OsgEarthNet.uav[2] utilizationEnergyOverdrawMission 0
scalar OsgEarthNet.uav[2] utilizationEnergyOverdrawMaintenance 0
scalar OsgEarthNet.uav[2] utilizationCountMissions 15
scalar OsgEarthNet.uav[2] utilizationCountManeuversMission 166
scalar OsgEarthNet.uav[2] utilizationCountManeuversMaintenance 31
scalar OsgEarthNet.uav[2] utilizationCountChargeState 15
scalar OsgEarthNet.uav[2] utilizationCountOverdrawnAfterMission 0
scalar OsgEarthNet.uav[2] utilizationCountIdleState 16
scalar OsgEarthNet.uav[2] utilizationFail 0
scalar OsgEarthNet.uav[2] simulationTime 259200
scalar OsgEarthNet.uav[3] utilizationSecMission 836.77707522227
scalar OsgEarthNet.uav[3] utilizationSecMaintenance 217.0347828456
scalar OsgEarthNet.uav[3] utilizationSecCharge 3660
scalar OsgEarthNet.uav[3] utilizationSecIdle 254486.18714193
scalar OsgEarthNet.uav[3] utilizationEnergyMission 3583.3198928833
scalar OsgEarthNet.uav[3] utilizationEnergyMaintenance 1012.1056022644
scalar OsgEarthNet.uav[3] utilizationEnergyCharge 4595.421875
scalar OsgEarthNet.uav[3] utilizationEnergyOverdrawMission 0
scalar OsgEarthNet.uav[3] utilizationEnergyOverdrawMaintenance 0
scalar OsgEarthNet.uav[3] utilizationCountMissions 1
scalar OsgEarthNet.uav[3] utilizationCountManeuversMission 13
scalar OsgEarthNet.uav[3] utilizationCountManeuversMaintenance 2
scalar OsgEarthNet.uav[3] utilizationCountChargeState 1
scalar OsgEarthNet.uav[3] utilizationCountOverdrawnAfterMission 0
scalar OsgEarthNet.uav[3] utilizationCountIdleState 2
scalar OsgEarthNet.uav[3] utilizationFail 0
scalar OsgEarthNet.uav[3] simulationTime 259200
scalar OsgEarthNet.uav[4] utilizationSecMission 26484.505415919
scalar OsgEarthNet.uav[4] utilizationSecMaintenance 14910.749941238
scalar OsgEarthNet.uav[4] utilizationSecCharge 156453.77965717
scalar OsgEarthNet.uav[4] utilizationSecIdle 61350.963985674
scalar OsgEarthNet.uav[4] utilizationEnergyMission 123306.58493042
scalar OsgEarthNet.uav[4] utilizationEnergyMaintenance 69185.576320648
scalar OsgEarthNet.uav[4] utilizationEnergyCharge 190946.73217773
scalar OsgEarthNet.uav[4] utilizationEnergyOverdrawMission 0
scalar OsgEarthNet.uav[4] utilizationEnergyOverdrawMaintenance 0
scalar OsgEarthNet.uav[4] utilizationCountMissions 46
scalar OsgEarthNet.uav[4] utilizationCountManeuversMission 445
scalar OsgEarthNet.uav[4] utilizationCountManeuversMaintenance 92
scalar OsgEarthNet.uav[4] utilizationCountChargeState 46
scalar OsgEarthNet.uav[4] utilizationCountOverdrawnAfterMission 0
scalar OsgEarthNet.uav[4] utilizationCountIdleState 46
scalar OsgEarthNet.uav[4] utilizationFail 0
scalar OsgEarthNet.uav[4] simulationTime 259200
scalar OsgEarthNet.uav[5] utilizationSecMission 27161.314747216
scalar OsgEarthNet.uav[5] utilizationSecMaintenance 11484.696198972
scalar OsgEarthNet.uav[5] utilizationSecCharge 141577.54048134
scalar OsgEarthNet.uav[5] utilizationSecIdle 78976.447572472
scalar OsgEarthNet.uav[5] utilizationEnergyMission 126107.85176849
scalar OsgEarthNet.uav[5] utilizationEnergyMaintenance 53847.57321167
scalar OsgEarthNet.uav[5] utilizationEnergyCharge 176147.52685547
scalar OsgEarthNet.uav[5] utilizationEnergyOverdrawMission 0
scalar OsgEarthNet.uav[5] utilizationEnergyOverdrawMaintenance 0
scalar OsgEarthNet.uav[5] utilizationCountMissions 40
scalar OsgEarthNet.uav[5] utilizationCountManeuversMission 450
scalar OsgEarthNet.uav[5] utilizationCountManeuversMaintenance 80
scalar OsgEarthNet.uav[5] utilizationCountChargeState 40
scalar OsgEarthNet.uav[5] utilizationCountOverdrawnAfterMission 0
scalar OsgEarthNet.uav[5] utilizationCountIdleState 40
scalar OsgEarthNet.uav[5] utilizationFail 0
scalar OsgEarthNet.uav[5] simulationTime 259200
scalar OsgEarthNet.uav[6] utilizationSecMission 836.77707522227
scalar OsgEarthNet.uav[6] utilizationSecMaintenance 217.0347828456
scalar OsgEarthNet.uav[6] utilizationSecCharge 3870
scalar OsgEarthNet.uav[6] utilizationSecIdle 254276.18714193
scalar OsgEarthNet.uav[6] utilizationEnergyMission 3816.688659668
scalar OsgEarthNet.uav[6] utilizationEnergyMaintenance 1146.9091300964
scalar OsgEarthNet.uav[6] utilizationEnergyCharge 4963.5981445312
scalar OsgEarthNet.uav[6] utilizationEnergyOverdrawMission 0
scalar OsgEarthNet.uav[6] utilizationEnergyOverdrawMaintenance 0
scalar OsgEarthNet.uav[6] utilizationCountMissions 1
scalar OsgEarthNet.uav[6] utilizationCountManeuversMission 13
scalar OsgEarthNet.uav[6] utilizationCountManeuversMaintenance 2
scalar OsgEarthNet.uav[6] utilizationCountChargeState 1
scalar OsgEarthNet.uav[6] utilizationCountOverdrawnAfterMission 0
scalar OsgEarthNet.uav[6] utilizationCountIdleState 2
scalar OsgEarthNet.uav[6] utilizationFail 0
scalar OsgEarthNet.uav[6] simulationTime 259200
scalar OsgEarthNet.uav[7] utilizationSecMission 29139.134945229
scalar OsgEarthNet.uav[7] utilizationSecMaintenance 10304.558197174
scalar OsgEarthNet.uav[7] utilizationSecCharge 147810
scalar OsgEarthNet.uav[7] utilizationSecIdle 71946.305857598
scalar OsgEarthNet.uav[7] utilizationEnergyMission 133581.90523911
scalar OsgEarthNet.uav[7] utilizationEnergyMaintenance 49118.164318085
scalar OsgEarthNet.uav[7] utilizationEnergyCharge 183145.40649414
scalar OsgEarthNet.uav[7] utilizationEnergyOverdrawMission 0
scalar OsgEarthNet.uav[7] utilizationEnergyOverdrawMaintenance 0
scalar OsgEarthNet.uav[7] utilizationCountMissions 41
scalar OsgEarthNet.uav[7] utilizationCountManeuversMission 483
scalar OsgEarthNet.uav[7] utilizationCountManeuversMaintenance 82
scalar OsgEarthNet.uav[7] utilizationCountChargeState 41
scalar OsgEarthNet.uav[7] utilizationCountOverdrawnAfterMission 0
scalar OsgEarthNet.uav[7] utilizationCountIdleState 42
scalar OsgEarthNet.uav[7] utilizationFail 0
scalar OsgEarthNet.uav[7] simulationTime 259200
scalar OsgEarthNet.uav[8] utilizationSecMission 29241.488586382
scalar OsgEarthNet.uav[8] utilizationSecMaintenance 13205.2387363
scalar OsgEarthNet.uav[8] utilizationSecCharge 158305.82141329
scalar OsgEarthNet.uav[8] utilizationSecIdle 58447.450264031
scalar OsgEarthNet.uav[8] utilizationEnergyMission 136750.40330505
scalar OsgEarthNet.uav[8] utilizationEnergyMaintenance 61104.888389587
scalar OsgEarthNet.uav[8] utilizationEnergyCharge 195959.19287109
scalar OsgEarthNet.uav[8] utilizationEnergyOverdrawMission 0
scalar OsgEarthNet.uav[8] utilizationEnergyOverdrawMaintenance 0
scalar OsgEarthNet.uav[8] utilizationCountMissions 45
scalar OsgEarthNet.uav[8] utilizationCountManeuversMission 488
scalar OsgEarthNet.uav[8] utilizationCountManeuversMaintenance 90
scalar OsgEarthNet.uav[8] utilizationCountChargeState 45
scalar OsgEarthNet.uav[8] utilizationCountOverdrawnAfterMission 0
scalar OsgEarthNet.uav[8] utilizationCountIdleState 45
scalar OsgEarthNet.uav[8] utilizationFail 0
scalar OsgEarthNet.uav[8] simulationTime 259200
scalar OsgEarthNet.uav[9] utilizationSecMission 760.62515258028
scalar OsgEarthNet.uav[9] utilizationSecMaintenance 291.95923480269
scalar OsgEarthNet.uav[9] utilizationSecCharge 3900
scalar OsgEarthNet.uav[9] utilizationSecIdle 254247.41461262
scalar OsgEarthNet.uav[9] utilizationEnergyMission 3575.729598999
scalar OsgEarthNet.uav[9] utilizationEnergyMaintenance 1400.3617782593
scalar OsgEarthNet.uav[9] utilizationEnergyCharge 4976.091796875
scalar OsgEarthNet.uav[9] utilizationEnergyOverdrawMission 0
scalar OsgEarthNet.uav[9] utilizationEnergyOverdrawMaintenance 0
scalar OsgEarthNet.uav[9] utilizationCountMissions 1
scalar OsgEarthNet.uav[9] utilizationCountManeuversMission 12
scalar OsgEarthNet.uav[9] utilizationCountManeuversMaintenance 2
scalar OsgEarthNet.uav[9] utilizationCountChargeState 1
scalar OsgEarthNet.uav[9] utilizationCountOverdrawnAfterMission 0
scalar OsgEarthNet.uav[9] utilizationCountIdleState 2
scalar OsgEarthNet.uav[9] utilizationFail 0
scalar OsgEarthNet.uav[9] simulationTime 259200
scalar OsgEarthNet.uav[10] utilizationSecMission 760.62515258028
scalar OsgEarthNet.uav[10] utilizationSecMaintenance 291.95923480269
scalar OsgEarthNet.uav[10] utilizationSecCharge 3820
scalar OsgEarthNet.uav[10] utilizationSecIdle 254327.41461262
scalar OsgEarthNet.uav[10] utilizationEnergyMission 3302.2476196289
scalar OsgEarthNet.uav[10] utilizationEnergyMaintenance 1519.4832382202
scalar OsgEarthNet.uav[10] utilizationEnergyCharge 4821.7309570312
scalar OsgEarthNet.uav[10] utilizationEnergyOverdrawMission 0
scalar OsgEarthNet.uav[10] utilizationEnergyOverdrawMaintenance 0
scalar OsgEarthNet.uav[10] utilizationCountMissions 1
scalar OsgEarthNet.uav[10] utilizationCountManeuversMission 12
scalar OsgEarthNet.uav[10] utilizationCountManeuversMaintenance 2
scalar OsgEarthNet.uav[10] utilizationCountChargeState 1
scalar OsgEarthNet.uav[10] utilizationCountOverdrawnAfterMission 0
scalar OsgEarthNet.uav[10] utilizationCountIdleState 2
scalar OsgEarthNet.uav[10] utilizationFail 0
scalar OsgEarthNet.uav[10] simulationTime 259200
scalar OsgEarthNet.uav[11] utilizationSecMission 25927.353886652
scalar OsgEarthNet.uav[11] utilizationSecMaintenance 11218.913363666
scalar OsgEarthNet.uav[11] utilizationSecCharge 140951.50578832
scalar OsgEarthNet.uav[11] utilizationSecIdle 81102.225961358
scalar OsgEarthNet.uav[11] utilizationEnergyMission 120502.65164948
scalar OsgEarthNet.uav[11] utilizationEnergyMaintenance 54127.738243103
scalar OsgEarthNet.uav[11] utilizationEnergyCharge 174358.11938477
scalar OsgEarthNet.uav[11] utilizationEnergyOverdrawMission 0
scalar OsgEarthNet.uav[11] utilizationEnergyOverdrawMaintenance 0
scalar OsgEarthNet.uav[11] utilizationCountMissions 40
scalar OsgEarthNet.uav[11] utilizationCountManeuversMission 422
scalar OsgEarthNet.uav[11] utilizationCountManeuversMaintenance 80
scalar OsgEarthNet.uav[11] utilizationCountChargeState 40
scalar OsgEarthNet.uav[11] utilizationCountOverdrawnAfterMission 0
scalar OsgEarthNet.uav[11] utilizationCountIdleState 40
scalar OsgEarthNet.uav[11] utilizationFail 0
scalar OsgEarthNet.uav[11] simulationTime 259200
scalar OsgEarthNet.uav[12] utilizationSecMission 887.1741082606
scalar OsgEarthNet.uav[12] utilizationSecMaintenance 171.13387461676
scalar OsgEarthNet.uav[12] utilizationSecCharge 3800
scalar OsgEarthNet.uav[12] utilizationSecIdle 254341.69101712
scalar OsgEarthNet.uav[12] utilizationEnergyMission 4135.6358795166
scalar OsgEarthNet.uav[12] utilizationEnergyMaintenance 702.50409698486
scalar OsgEarthNet.uav[12] utilizationEnergyCharge 4824.6479492188
scalar OsgEarthNet.uav[12] utilizationEnergyOverdrawMission 0
scalar OsgEarthNet.uav[12] utilizationEnergyOverdrawMaintenance 0
scalar OsgEarthNet.uav[12] utilizationCountMissions 1
scalar OsgEarthNet.uav[12] utilizationCountManeuversMission 14
scalar OsgEarthNet.uav[12] utilizationCountManeuversMaintenance 2
scalar OsgEarthNet.uav[12] utilizationCountChargeState 1
scalar OsgEarthNet.uav[12] utilizationCountOverdrawnAfterMission 0
scalar OsgEarthNet.uav[12] utilizationCountIdleState 2
scalar OsgEarthNet.uav[12] utilizationFail 0
scalar OsgEarthNet.uav[12] simulationTime 259200
scalar OsgEarthNet.uav[13] utilizationSecMission 23149.385010994
scalar OsgEarthNet.uav[13] utilizationSecMaintenance 10946.182065306
scalar OsgEarthNet.uav[13] utilizationSecCharge 129084.48865802
scalar OsgEarthNet.uav[13] utilizationSecIdle 96019.943265683
scalar OsgEarthNet.uav[13] utilizationEnergyMission 105390.80280304
scalar OsgEarthNet.uav[13] utilizationEnergyMaintenance 52405.222999573
scalar OsgEarthNet.uav[13] utilizationEnergyCharge 158051.37231445
scalar OsgEarthNet.uav[13] utilizationEnergyOverdrawMission 0
scalar OsgEarthNet.uav[13] utilizationEnergyOverdrawMaintenance 0
scalar OsgEarthNet.uav[13] utilizationCountMissions 37
scalar OsgEarthNet.uav[13] utilizationCountManeuversMission 385
scalar OsgEarthNet.uav[13] utilizationCountManeuversMaintenance 74
scalar OsgEarthNet.uav[13] utilizationCountChargeState 37
scalar OsgEarthNet.uav[13] utilizationCountOverdrawnAfterMission 0
scalar OsgEarthNet.uav[13] utilizationCountIdleState 37
scalar OsgEarthNet.uav[13] utilizationFail 0
scalar OsgEarthNet.uav[13] simulationTime 259200
scalar OsgEarthNet.uav[14] utilizationSecMission 1460.5617445433
scalar OsgEarthNet.uav[14] utilizationSecMaintenance 478.24517380799
scalar OsgEarthNet.uav[14] utilizationSecCharge 7140
scalar OsgEarthNet.uav[14] utilizationSecIdle 250121.19208165
scalar OsgEarthNet.uav[14] utilizationEnergyMission 6674.901512146
scalar OsgEarthNet.uav[14] utilizationEnergyMaintenance 2190.4866676331
scalar OsgEarthNet.uav[14] utilizationEnergyCharge 8865.3881835938
scalar OsgEarthNet.uav[14] utilizationEnergyOverdrawMission 0
scalar OsgEarthNet.uav[14] utilizationEnergyOverdrawMaintenance 0
scalar OsgEarthNet.uav[14] utilizationCountMissions 2
scalar OsgEarthNet.uav[14] utilizationCountManeuversMission 25
scalar OsgEarthNet.uav[14] utilizationCountManeuversMaintenance 4
scalar OsgEarthNet.uav[14] utilizationCountChargeState 2
scalar OsgEarthNet.uav[14] utilizationCountOverdrawnAfterMission 0
scalar OsgEarthNet.uav[14] utilizationCountIdleState 3
scalar OsgEarthNet.uav[14] utilizationFail 0
scalar OsgEarthNet.uav[14] simulationTime 259200
scalar OsgEarthNet.uav[15] utilizationSecMission 27715.638502689
scalar OsgEarthNet.uav[15] utilizationSecMaintenance 11830.440947976
scalar OsgEarthNet.uav[15] utilizationSecCharge 146312.24649995
scalar OsgEarthNet.uav[15] utilizationSecIdle 73341.673049383
scalar OsgEarthNet.uav[15] utilizationEnergyMission 129176.43148804
scalar OsgEarthNet.uav[15] utilizationEnergyMaintenance 55814.813510895
scalar OsgEarthNet.uav[15] utilizationEnergyCharge 180791.98071289
scalar OsgEarthNet.uav[15] utilizationEnergyOverdrawMission 0
scalar OsgEarthNet.uav[15] utilizationEnergyOverdrawMaintenance 0
scalar OsgEarthNet.uav[15] utilizationCountMissions 42
scalar OsgEarthNet.uav[15] utilizationCountManeuversMission 443
scalar OsgEarthNet.uav[15] utilizationCountManeuversMaintenance 84
scalar OsgEarthNet.uav[15] utilizationCountChargeState 42
scalar OsgEarthNet.uav[15] utilizationCountOverdrawnAfterMission 0
scalar OsgEarthNet.uav[15] utilizationCountIdleState 42
scalar OsgEarthNet.uav[15] utilizationFail 0
scalar OsgEarthNet.uav[15] simulationTime 259200
scalar OsgEarthNet.uav[16] utilizationSecMission 836.77707522227
scalar OsgEarthNet.uav[16] utilizationSecMaintenance 217.0347828456
scalar OsgEarthNet.uav[16] utilizationSecCharge 3840
scalar OsgEarthNet.uav[16] utilizationSecIdle 254306.18714193
scalar OsgEarthNet.uav[16] utilizationEnergyMission 3739.2078094482
scalar OsgEarthNet.uav[16] utilizationEnergyMaintenance 1162.4704093933
scalar OsgEarthNet.uav[16] utilizationEnergyCharge 4901.6801757812
scalar OsgEarthNet.uav[16] utilizationEnergyOverdrawMission 0
scalar OsgEarthNet.uav[16] utilizationEnergyOverdrawMaintenance 0
scalar OsgEarthNet.uav[16] utilizationCountMissions 1
scalar OsgEarthNet.uav[16] utilizationCountManeuversMission 13
scalar OsgEarthNet.uav[16] utilizationCountManeuversMaintenance 2
scalar OsgEarthNet.uav[16] utilizationCountChargeState 1
scalar OsgEarthNet.uav[16] utilizationCountOverdrawnAfterMission 0
scalar OsgEarthNet.uav[16] utilizationCountIdleState 2
scalar OsgEarthNet.uav[16] utilizationFail 0
scalar OsgEarthNet.uav[16] simulationTime 259200
scalar OsgEarthNet.uav[17] utilizationSecMission 30633.159957238
scalar OsgEarthNet.uav[17] utilizationSecMaintenance 11415.74953683
scalar OsgEarthNet.uav[17] utilizationSecCharge 159050
scalar OsgEarthNet.uav[17] utilizationSecIdle 58101.089505932
scalar OsgEarthNet.uav[17] utilizationEnergyMission 141104.99647522
scalar OsgEarthNet.uav[17] utilizationEnergyMaintenance 53914.425712585
scalar OsgEarthNet.uav[17] utilizationEnergyCharge 195754.34204102
scalar OsgEarthNet.uav[17] utilizationEnergyOverdrawMission 0
scalar OsgEarthNet.uav[17] utilizationEnergyOverdrawMaintenance 0
scalar OsgEarthNet.uav[17] utilizationCountMissions 45
scalar OsgEarthNet.uav[17] utilizationCountManeuversMission 497
scalar OsgEarthNet.uav[17] utilizationCountManeuversMaintenance 90
scalar OsgEarthNet.uav[17] utilizationCountChargeState 45
scalar OsgEarthNet.uav[17] utilizationCountOverdrawnAfterMission 0
scalar OsgEarthNet.uav[17] utilizationCountIdleState 46
scalar OsgEarthNet.uav[17] utilizationFail 0
scalar OsgEarthNet.uav[17] simulationTime 259200
scalar OsgEarthNet.uav[18] utilizationSecMission 750.20472747826
scalar OsgEarthNet.uav[18] utilizationSecMaintenance 300.8347882699
scalar OsgEarthNet.uav[18] utilizationSecCharge 3810
scalar OsgEarthNet.uav[18] utilizationSecIdle 254338.95948425
scalar OsgEarthNet.uav[18] utilizationEnergyMission 3459.3718414307
scalar OsgEarthNet.uav[18] utilizationEnergyMaintenance 1354.4187736511
scalar OsgEarthNet.uav[18] utilizationEnergyCharge 4813.7900390625
scalar OsgEarthNet.uav[18] utilizationEnergyOverdrawMission 0
scalar OsgEarthNet.uav[18] utilizationEnergyOverdrawMaintenance 0
scalar OsgEarthNet.uav[18] utilizationCountMissions 1
scalar OsgEarthNet.uav[18] utilizationCountManeuversMission 11
scalar OsgEarthNet.uav[18] utilizationCountManeuversMaintenance 2
scalar OsgEarthNet.uav[18] utilizationCountChargeState 1
scalar OsgEarthNet.uav[18] utilizationCountOverdrawnAfterMission 0
scalar OsgEarthNet.uav[18] utilizationCountIdleState 2
scalar OsgEarthNet.uav[18] utilizationFail 0
scalar OsgEarthNet.uav[18] simulationTime 259200
scalar OsgEarthNet.uav[19] utilizationSecMission 760.62515258028
scalar OsgEarthNet.uav[19] utilizationSecMaintenance 291.95923480269
scalar OsgEarthNet.uav[19] utilizationSecCharge 3770
scalar OsgEarthNet.uav[19] utilizationSecIdle 254377.41461262
scalar OsgEarthNet.uav[19] utilizationEnergyMission 3455.5547332764
scalar OsgEarthNet.uav[19] utilizationEnergyMaintenance 1338.0428085327
scalar OsgEarthNet.uav[19] utilizationEnergyCharge 4793.6010742188
scalar OsgEarthNet.uav[19] utilizationEnergyOverdrawMission 0
scalar OsgEarthNet.uav[19] utilizationEnergyOverdrawMaintenance 0
scalar OsgEarthNet.uav[19] utilizationCountMissions 1
scalar OsgEarthNet.uav[19] utilizationCountManeuversMission 12
scalar OsgEarthNet.uav[19] utilizationCountManeuversMaintenance 2
scalar OsgEarthNet.uav[19] utilizationCountChargeState 1
scalar OsgEarthNet.uav[19] utilizationCountOverdrawnAfterMission 0
scalar OsgEarthNet.uav[19] utilizationCountIdleState 2
scalar OsgEarthNet.uav[19] utilizationFail 0
scalar OsgEarthNet.uav[19] simulationTime 259200
scalar OsgEarthNet.uav[20] utilizationSecMission 28035.326005674
scalar OsgEarthNet.uav[20] utilizationSecMaintenance 13286.539988936
scalar OsgEarthNet.uav[20] utilizationSecCharge 156110
scalar OsgEarthNet.uav[20] utilizationSecIdle 61768.13300539
scalar OsgEarthNet.uav[20] utilizationEnergyMission 128905.02916336
scalar OsgEarthNet.uav[20] utilizationEnergyMaintenance 63156.057048798
scalar OsgEarthNet.uav[20] utilizationEnergyCharge 192271.04516602
scalar OsgEarthNet.uav[20] utilizationEnergyOverdrawMission 0
scalar OsgEarthNet.uav[20] utilizationEnergyOverdrawMaintenance 0
scalar OsgEarthNet.uav[20] utilizationCountMissions 44
scalar OsgEarthNet.uav[20] utilizationCountManeuversMission 454
scalar OsgEarthNet.uav[20] utilizationCountManeuversMaintenance 88
scalar OsgEarthNet.uav[20] utilizationCountChargeState 44
scalar OsgEarthNet.uav[20] utilizationCountOverdrawnAfterMission 0
scalar OsgEarthNet.uav[20] utilizationCountIdleState 45
scalar OsgEarthNet.uav[20] utilizationFail 0
scalar OsgEarthNet.uav[20] simulationTime 259200
scalar OsgEarthNet.uav[21] utilizationSecMission 29821.546867752
scalar OsgEarthNet.uav[21] utilizationSecMaintenance 13981.671070719
scalar OsgEarthNet.uav[21] utilizationSecCharge 161520
scalar OsgEarthNet.uav[21] utilizationSecIdle 53876.781061529
scalar OsgEarthNet.uav[21] utilizationEnergyMission 139163.03749084
scalar OsgEarthNet.uav[21] utilizationEnergyMaintenance 65753.084449493
scalar OsgEarthNet.uav[21] utilizationEnergyCharge 200287.99438477
scalar OsgEarthNet.uav[21] utilizationEnergyOverdrawMission 0
scalar OsgEarthNet.uav[21] utilizationEnergyOverdrawMaintenance 0
scalar OsgEarthNet.uav[21] utilizationCountMissions 46
scalar OsgEarthNet.uav[21] utilizationCountManeuversMission 498
scalar OsgEarthNet.uav[21] utilizationCountManeuversMaintenance 92
scalar OsgEarthNet.uav[21] utilizationCountChargeState 45
scalar OsgEarthNet.uav[21] utilizationCountOverdrawnAfterMission 0
scalar OsgEarthNet.uav[21] utilizationCountIdleState 46
scalar OsgEarthNet.uav[21] utilizationFail 0
scalar OsgEarthNet.uav[21] simulationTime 259200
scalar OsgEarthNet.uav[22] utilizationSecMission 28188.934994342
scalar OsgEarthNet.uav[22] utilizationSecMaintenance 13020.739247629
scalar OsgEarthNet.uav[22] utilizationSecCharge 153488.87179931
scalar OsgEarthNet.uav[22] utilizationSecIdle 64501.452958717
scalar OsgEarthNet.uav[22] utilizationEnergyMission 130295.07128906
scalar OsgEarthNet.uav[22] utilizationEnergyMaintenance 61154.303050995
scalar OsgEarthNet.uav[22] utilizationEnergyCharge 189569.20214844
scalar OsgEarthNet.uav[22] utilizationEnergyOverdrawMission 0
scalar OsgEarthNet.uav[22] utilizationEnergyOverdrawMaintenance 0
scalar OsgEarthNet.uav[22] utilizationCountMissions 44
scalar OsgEarthNet.uav[22] utilizationCountManeuversMission 461
scalar OsgEarthNet.uav[22] utilizationCountManeuversMaintenance 88
scalar OsgEarthNet.uav[22] utilizationCountChargeState 44
scalar OsgEarthNet.uav[22] utilizationCountOverdrawnAfterMission 0
scalar OsgEarthNet.uav[22] utilizationCountIdleState 44
scalar OsgEarthNet.uav[22] utilizationFail 0
scalar OsgEarthNet.uav[22] simulationTime 259200
scalar OsgEarthNet.uav[23] utilizationSecMission 1523.8803922047
scalar OsgEarthNet.uav[23] utilizationSecMaintenance 574.19850952187
scalar OsgEarthNet.uav[23] utilizationSecCharge 7540
scalar OsgEarthNet.uav[23] utilizationSecIdle 249561.92009827
scalar OsgEarthNet.uav[23] utilizationEnergyMission 6636.2513427734
scalar OsgEarthNet.uav[23] utilizationEnergyMaintenance 3048.1709823608
scalar OsgEarthNet.uav[23] utilizationEnergyCharge 9525.9208984375
scalar OsgEarthNet.uav[23] utilizationEnergyOverdrawMission 0
scalar OsgEarthNet.uav[23] utilizationEnergyOverdrawMaintenance 0
scalar OsgEarthNet.uav[23] utilizationCountMissions 2
scalar OsgEarthNet.uav[23] utilizationCountManeuversMission 23
scalar OsgEarthNet.uav[23] utilizationCountManeuversMaintenance 4
scalar OsgEarthNet.uav[23] utilizationCountChargeState 2
scalar OsgEarthNet.uav[23] utilizationCountOverdrawnAfterMission 0
scalar OsgEarthNet.uav[23] utilizationCountIdleState 3
scalar OsgEarthNet.uav[23] utilizationFail 0
scalar OsgEarthNet.uav[23] simulationTime 259200
scalar OsgEarthNet.uav[24] utilizationSecMission 31178.92353328
scalar OsgEarthNet.uav[24] utilizationSecMaintenance 13209.073959998
scalar OsgEarthNet.uav[24] utilizationSecCharge 163010
scalar OsgEarthNet.uav[24] utilizationSecIdle 51802.001506722
scalar OsgEarthNet.uav[24] utilizationEnergyMission 143720.35456085
scalar OsgEarthNet.uav[24] utilizationEnergyMaintenance 61514.745573668
scalar OsgEarthNet.uav[24] utilizationEnergyCharge 200543.25146484
scalar OsgEarthNet.uav[24] utilizationEnergyOverdrawMission 0
scalar OsgEarthNet.uav[24] utilizationEnergyOverdrawMaintenance 0
scalar OsgEarthNet.uav[24] utilizationCountMissions 47
scalar OsgEarthNet.uav[24] utilizationCountManeuversMission 510
scalar OsgEarthNet.uav[24] utilizationCountManeuversMaintenance 94
scalar OsgEarthNet.uav[24] utilizationCountChargeState 46
scalar OsgEarthNet.uav[24] utilizationCountOverdrawnAfterMission 0
scalar OsgEarthNet.uav[24] utilizationCountIdleState 47
scalar OsgEarthNet.uav[24] utilizationFail 0
scalar OsgEarthNet.uav[24] simulationTime 259200
scalar OsgEarthNet.uav[25] utilizationSecMission 844.68187799363
scalar OsgEarthNet.uav[25] utilizationSecMaintenance 168.94893785192
scalar OsgEarthNet.uav[25] utilizationSecCharge 3830
scalar OsgEarthNet.uav[25] utilizationSecIdle 254356.36818415
scalar OsgEarthNet.uav[25] utilizationEnergyMission 3897.5781097412
scalar OsgEarthNet.uav[25] utilizationEnergyMaintenance 745.01673507691
scalar OsgEarthNet.uav[25] utilizationEnergyCharge 4879.5185546875
scalar OsgEarthNet.uav[25] utilizationEnergyOverdrawMission 0
scalar OsgEarthNet.uav[25] utilizationEnergyOverdrawMaintenance 0
scalar OsgEarthNet.uav[25] utilizationCountMissions 1
scalar OsgEarthNet.uav[25] utilizationCountManeuversMission 13
scalar OsgEarthNet.uav[25] utilizationCountManeuversMaintenance 2
scalar OsgEarthNet.uav[25] utilizationCountChargeState 1
scalar OsgEarthNet.uav[25] utilizationCountOverdrawnAfterMission 0
scalar OsgEarthNet.uav[25] utilizationCountIdleState 2
scalar OsgEarthNet.uav[25] utilizationFail 0
scalar OsgEarthNet.uav[25] simulationTime 259200
scalar OsgEarthNet.uav[26] utilizationSecMission 760.62515258028
scalar OsgEarthNet.uav[26] utilizationSecMaintenance 291.95923480269
scalar OsgEarthNet.uav[26] utilizationSecCharge 3810
scalar OsgEarthNet.uav[26] utilizationSecIdle 254337.41461262
scalar OsgEarthNet.uav[26] utilizationEnergyMission 3465.9969177246
scalar OsgEarthNet.uav[26] utilizationEnergyMaintenance 1380.3006820679
scalar OsgEarthNet.uav[26] utilizationEnergyCharge 4846.2958984375
scalar OsgEarthNet.uav[26] utilizationEnergyOverdrawMission 0
scalar OsgEarthNet.uav[26] utilizationEnergyOverdrawMaintenance 0
scalar OsgEarthNet.uav[26] utilizationCountMissions 1
scalar OsgEarthNet.uav[26] utilizationCountManeuversMission 12
scalar OsgEarthNet.uav[26] utilizationCountManeuversMaintenance 2
scalar OsgEarthNet.uav[26] utilizationCountChargeState 1
scalar OsgEarthNet.uav[26] utilizationCountOverdrawnAfterMission 0
scalar OsgEarthNet.uav[26] utilizationCountIdleState 2
scalar OsgEarthNet.uav[26] utilizationFail 0
scalar OsgEarthNet.uav[26] simulationTime 259200
scalar OsgEarthNet.uav[27] utilizationSecMission 25671.055943324
scalar OsgEarthNet.uav[27] utilizationSecMaintenance 14143.349818932
scalar OsgEarthNet.uav[27] utilizationSecCharge 152730
scalar OsgEarthNet.uav[27] utilizationSecIdle 66655.593237744
scalar OsgEarthNet.uav[27] utilizationEnergyMission 119578.79436493
scalar OsgEarthNet.uav[27] utilizationEnergyMaintenance 67146.217773438
scalar OsgEarthNet.uav[27] utilizationEnergyCharge 186599.04321289
scalar OsgEarthNet.uav[27] utilizationEnergyOverdrawMission 0
scalar OsgEarthNet.uav[27] utilizationEnergyOverdrawMaintenance 0
scalar OsgEarthNet.uav[27] utilizationCountMissions 44
scalar OsgEarthNet.uav[27] utilizationCountManeuversMission 415
scalar OsgEarthNet.uav[27] utilizationCountManeuversMaintenance 88
scalar OsgEarthNet.uav[27] utilizationCountChargeState 44
scalar OsgEarthNet.uav[27] utilizationCountOverdrawnAfterMission 0
scalar OsgEarthNet.uav[27] utilizationCountIdleState 45
scalar OsgEarthNet.uav[27] utilizationFail 0
scalar OsgEarthNet.uav[27] simulationTime 259200
scalar OsgEarthNet.uav[28] utilizationSecMission 694.00169469977
scalar OsgEarthNet.uav[28] utilizationSecMaintenance 338.49695459722
scalar OsgEarthNet.uav[28] utilizationSecCharge 3750
scalar OsgEarthNet.uav[28] utilizationSecIdle 254417.5003507
scalar OsgEarthNet.uav[28] utilizationEnergyMission 3281.3051681519
scalar OsgEarthNet.uav[28] utilizationEnergyMaintenance 1443.5235099792
scalar OsgEarthNet.uav[28] utilizationEnergyCharge 4724.830078125
scalar OsgEarthNet.uav[28] utilizationEnergyOverdrawMission 0
scalar OsgEarthNet.uav[28] utilizationEnergyOverdrawMaintenance 0
scalar OsgEarthNet.uav[28] utilizationCountMissions 1
scalar OsgEarthNet.uav[28] utilizationCountManeuversMission 13
scalar OsgEarthNet.uav[28] utilizationCountManeuversMaintenance 2
scalar OsgEarthNet.uav[28] utilizationCountChargeState 1
scalar OsgEarthNet.uav[28] utilizationCountOverdrawnAfterMission 0
scalar OsgEarthNet.uav[28] utilizationCountIdleState 2
scalar OsgEarthNet.uav[28] utilizationFail 0
scalar OsgEarthNet.uav[28] simulationTime 259200
scalar OsgEarthNet.uav[29] utilizationSecMission 30679.168879736
scalar OsgEarthNet.uav[29] utilizationSecMaintenance 13280.232694077
scalar OsgEarthNet.uav[29] utilizationSecCharge 165320
scalar OsgEarthNet.uav[29] utilizationSecIdle 49920.597426188
scalar OsgEarthNet.uav[29] utilizationEnergyMission 142586.67789459
scalar OsgEarthNet.uav[29] utilizationEnergyMaintenance 62603.610462189
scalar OsgEarthNet.uav[29] utilizationEnergyCharge 205016.11230469
scalar OsgEarthNet.uav[29] utilizationEnergyOverdrawMission 0
scalar OsgEarthNet.uav[29] utilizationEnergyOverdrawMaintenance 0
scalar OsgEarthNet.uav[29] utilizationCountMissions 46
scalar OsgEarthNet.uav[29] utilizationCountManeuversMission 510
scalar OsgEarthNet.uav[29] utilizationCountManeuversMaintenance 91
scalar OsgEarthNet.uav[29] utilizationCountChargeState 46
scalar OsgEarthNet.uav[29] utilizationCountOverdrawnAfterMission 0
scalar OsgEarthNet.uav[29] utilizationCountIdleState 47
scalar OsgEarthNet.uav[29] utilizationFail 0
scalar OsgEarthNet.uav[29] simulationTime 259200
scalar OsgEarthNet.uav[30] utilizationSecMission 179.21601502944
scalar OsgEarthNet.uav[30] utilizationSecMaintenance 354.43405905663
scalar OsgEarthNet.uav[30] utilizationSecCharge 2540
scalar OsgEarthNet.uav[30] utilizationSecIdle 256126.34892591
scalar OsgEarthNet.uav[30] utilizationEnergyMission 802.65734863281
scalar OsgEarthNet.uav[30] utilizationEnergyMaintenance 1814.4699020386
scalar OsgEarthNet.uav[30] utilizationEnergyCharge 2617.1267089844
scalar OsgEarthNet.uav[30] utilizationEnergyOverdrawMission 0
scalar OsgEarthNet.uav[30] utilizationEnergyOverdrawMaintenance 0
scalar OsgEarthNet.uav[30] utilizationCountMissions 1
scalar OsgEarthNet.uav[30] utilizationCountManeuversMission 3
scalar OsgEarthNet.uav[30] utilizationCountManeuversMaintenance 2
scalar OsgEarthNet.uav[30] utilizationCountChargeState 1
scalar OsgEarthNet.uav[30] utilizationCountOverdrawnAfterMission 0
scalar OsgEarthNet.uav[30] utilizationCountIdleState 2
scalar OsgEarthNet.uav[30] utilizationFail 0
scalar OsgEarthNet.uav[30] simulationTime 259200
scalar OsgEarthNet.uav[31] utilizationSecMission 28270.593448641
scalar OsgEarthNet.uav[31] utilizationSecMaintenance 11943.659851027
scalar OsgEarthNet.uav[31] utilizationSecCharge 150325.04474666
scalar OsgEarthNet.uav[31] utilizationSecIdle 68660.700953676
scalar OsgEarthNet.uav[31] utilizationEnergyMission 131707.58883286
scalar OsgEarthNet.uav[31] utilizationEnergyMaintenance 57166.016452789
scalar OsgEarthNet.uav[31] utilizationEnergyCharge 185709.70117188
scalar OsgEarthNet.uav[31] utilizationEnergyOverdrawMission 0
scalar OsgEarthNet.uav[31] utilizationEnergyOverdrawMaintenance 0
scalar OsgEarthNet.uav[31] utilizationCountMissions 43
scalar OsgEarthNet.uav[31] utilizationCountManeuversMission 474
scalar OsgEarthNet.uav[31] utilizationCountManeuversMaintenance 86
scalar OsgEarthNet.uav[31] utilizationCountChargeState 43
scalar OsgEarthNet.uav[31] utilizationCountOverdrawnAfterMission 0
scalar OsgEarthNet.uav[31] utilizationCountIdleState 43
scalar OsgEarthNet.uav[31] utilizationFail 0
scalar OsgEarthNet.uav[31] simulationTime 259200
scalar OsgEarthNet.uav[32] utilizationSecMission 887.1741082606
scalar OsgEarthNet.uav[32] utilizationSecMaintenance 181.20511066264
scalar OsgEarthNet.uav[32] utilizationSecCharge 3720
scalar OsgEarthNet.uav[32] utilizationSecIdle 254411.61978108
scalar OsgEarthNet.uav[32] utilizationEnergyMission 3918.7120513916
scalar OsgEarthNet.uav[32] utilizationEnergyMaintenance 850.01963424683
scalar OsgEarthNet.uav[32] utilizationEnergyCharge 4680.4150390625
scalar OsgEarthNet.uav[32] utilizationEnergyOverdrawMission 0
scalar OsgEarthNet.uav[32] utilizationEnergyOverdrawMaintenance 0
scalar OsgEarthNet.uav[32] utilizationCountMissions 1
scalar OsgEarthNet.uav[32] utilizationCountManeuversMission 14
scalar OsgEarthNet.uav[32] utilizationCountManeuversMaintenance 2
scalar OsgEarthNet.uav[32] utilizationCountChargeState 1
scalar OsgEarthNet.uav[32] utilizationCountOverdrawnAfterMission 0
scalar OsgEarthNet.uav[32] utilizationCountIdleState 2
scalar OsgEarthNet.uav[32] utilizationFail 0
scalar OsgEarthNet.uav[32] simulationTime 259200
scalar OsgEarthNet.uav[33] utilizationSecMission 698.84532193436
scalar OsgEarthNet.uav[33] utilizationSecMaintenance 323.03163670533
scalar OsgEarthNet.uav[33] utilizationSecCharge 3790
scalar OsgEarthNet.uav[33] utilizationSecIdle 254388.12204136
scalar OsgEarthNet.uav[33] utilizationEnergyMission 3356.9033508301
scalar OsgEarthNet.uav[33] utilizationEnergyMaintenance 1441.5894088745
scalar OsgEarthNet.uav[33] utilizationEnergyCharge 4798.4912109375
scalar OsgEarthNet.uav[33] utilizationEnergyOverdrawMission 0
scalar OsgEarthNet.uav[33] utilizationEnergyOverdrawMaintenance 0
scalar OsgEarthNet.uav[33] utilizationCountMissions 1
scalar OsgEarthNet.uav[33] utilizationCountManeuversMission 10
scalar OsgEarthNet.uav[33] utilizationCountManeuversMaintenance 2
scalar OsgEarthNet.uav[33] utilizationCountChargeState 1
scalar OsgEarthNet.uav[33] utilizationCountOverdrawnAfterMission 0
scalar OsgEarthNet.uav[33] utilizationCountIdleState 2
scalar OsgEarthNet.uav[33] utilizationFail 0
scalar OsgEarthNet.uav[33] simulationTime 259200
scalar OsgEarthNet.uav[34] utilizationSecMission 28924.205761458
scalar OsgEarthNet.uav[34] utilizationSecMaintenance 12997.439635663
scalar OsgEarthNet.uav[34] utilizationSecCharge 156840
scalar OsgEarthNet.uav[34] utilizationSecIdle 60438.353602879
scalar OsgEarthNet.uav[34] utilizationEnergyMission 133840.93102555
scalar OsgEarthNet.uav[34] utilizationEnergyMaintenance 61710.833835602
scalar OsgEarthNet.uav[34] utilizationEnergyCharge 193826.04150391
scalar OsgEarthNet.uav[34] utilizationEnergyOverdrawMission 0
scalar OsgEarthNet.uav[34] utilizationEnergyOverdrawMaintenance 0
scalar OsgEarthNet.uav[34] utilizationCountMissions 44
scalar OsgEarthNet.uav[34] utilizationCountManeuversMission 460
scalar OsgEarthNet.uav[34] utilizationCountManeuversMaintenance 89
scalar OsgEarthNet.uav[34] utilizationCountChargeState 44
scalar OsgEarthNet.uav[34] utilizationCountOverdrawnAfterMission 0
scalar OsgEarthNet.uav[34] utilizationCountIdleState 45
scalar OsgEarthNet.uav[34] utilizationFail 0
scalar OsgEarthNet.uav[34] simulationTime 259200
scalar OsgEarthNet.uav[35] utilizationSecMission 887.1741082606
scalar OsgEarthNet.uav[35] utilizationSecMaintenance 171.13387461676
scalar OsgEarthNet.uav[35] utilizationSecCharge 3820
scalar OsgEarthNet.uav[35] utilizationSecIdle 254321.69101712
scalar OsgEarthNet.uav[35] utilizationEnergyMission 4221.8282318115
scalar OsgEarthNet.uav[35] utilizationEnergyMaintenance 768.36894989014
scalar OsgEarthNet.uav[35] utilizationEnergyCharge 4845.8266601562
scalar OsgEarthNet.uav[35] utilizationEnergyOverdrawMission 0
scalar OsgEarthNet.uav[35] utilizationEnergyOverdrawMaintenance 0
scalar OsgEarthNet.uav[35] utilizationCountMissions 1
scalar OsgEarthNet.uav[35] utilizationCountManeuversMission 14
scalar OsgEarthNet.uav[35] utilizationCountManeuversMaintenance 2
scalar OsgEarthNet.uav[35] utilizationCountChargeState 1
scalar OsgEarthNet.uav[35] utilizationCountOverdrawnAfterMission 0
scalar OsgEarthNet.uav[35] utilizationCountIdleState 2
scalar OsgEarthNet.uav[35] utilizationFail 0
scalar OsgEarthNet.uav[35] simulationTime 259200
scalar OsgEarthNet.uav[36] utilizationSecMission 760.62515258028
scalar OsgEarthNet.uav[36] utilizationSecMaintenance 291.95923480269
scalar OsgEarthNet.uav[36] utilizationSecCharge 3740
scalar OsgEarthNet.uav[36] utilizationSecIdle 254407.41461262
scalar OsgEarthNet.uav[36] utilizationEnergyMission 3473.3073196411
scalar OsgEarthNet.uav[36] utilizationEnergyMaintenance 1239.4314193726
scalar OsgEarthNet.uav[36] utilizationEnergyCharge 4712.7368164062
scalar OsgEarthNet.uav[36] utilizationEnergyOverdrawMission 0
scalar OsgEarthNet.uav[36] utilizationEnergyOverdrawMaintenance 0
scalar OsgEarthNet.uav[36] utilizationCountMissions 1
scalar OsgEarthNet.uav[36] utilizationCountManeuversMission 12
scalar OsgEarthNet.uav[36] utilizationCountManeuversMaintenance 2
scalar OsgEarthNet.uav[36] utilizationCountChargeState 1
scalar OsgEarthNet.uav[36] utilizationCountOverdrawnAfterMission 0
scalar OsgEarthNet.uav[36] utilizationCountIdleState 2
scalar OsgEarthNet.uav[36] utilizationFail 0
scalar OsgEarthNet.uav[36] simulationTime 259200
scalar OsgEarthNet.uav[37] utilizationSecMission 28635.57488046
scalar OsgEarthNet.uav[37] utilizationSecMaintenance 14376.249048605
scalar OsgEarthNet.uav[37] utilizationSecCharge 160423.4693719
scalar OsgEarthNet.uav[37] utilizationSecIdle 55764.705699036
scalar OsgEarthNet.uav[37] utilizationEnergyMission 132031.01016617
scalar OsgEarthNet.uav[37] utilizationEnergyMaintenance 67589.445861816
scalar OsgEarthNet.uav[37] utilizationEnergyCharge 196190.20214844
scalar OsgEarthNet.uav[37] utilizationEnergyOverdrawMission 0
scalar OsgEarthNet.uav[37] utilizationEnergyOverdrawMaintenance 0
scalar OsgEarthNet.uav[37] utilizationCountMissions 47
scalar OsgEarthNet.uav[37] utilizationCountManeuversMission 475
scalar OsgEarthNet.uav[37] utilizationCountManeuversMaintenance 94
scalar OsgEarthNet.uav[37] utilizationCountChargeState 47
scalar OsgEarthNet.uav[37] utilizationCountOverdrawnAfterMission 0
scalar OsgEarthNet.uav[37] utilizationCountIdleState 47
scalar OsgEarthNet.uav[37] utilizationFail 0
scalar OsgEarthNet.uav[37] simulationTime 259200
scalar OsgEarthNet.uav[38] utilizationSecMission 750.20472747826
scalar OsgEarthNet.uav[38] utilizationSecMaintenance 300.8347882699
scalar OsgEarthNet.uav[38] utilizationSecCharge 3880
scalar OsgEarthNet.uav[38] utilizationSecIdle 254268.95948425
scalar OsgEarthNet.uav[38] utilizationEnergyMission 3719.4095306397
scalar OsgEarthNet.uav[38] utilizationEnergyMaintenance 1219.0228080749
scalar OsgEarthNet.uav[38] utilizationEnergyCharge 4938.4301757812
scalar OsgEarthNet.uav[38] utilizationEnergyOverdrawMission 0
scalar OsgEarthNet.uav[38] utilizationEnergyOverdrawMaintenance 0
scalar OsgEarthNet.uav[38] utilizationCountMissions 1
scalar OsgEarthNet.uav[38] utilizationCountManeuversMission 11
scalar OsgEarthNet.uav[38] utilizationCountManeuversMaintenance 2
scalar OsgEarthNet.uav[38] utilizationCountChargeState 1
scalar OsgEarthNet.uav[38] utilizationCountOverdrawnAfterMission 0
scalar OsgEarthNet.uav[38] utilizationCountIdleState 2
scalar OsgEarthNet.uav[38] utilizationFail 0
scalar OsgEarthNet.uav[38] simulationTime 259200
scalar OsgEarthNet.uav[39] utilizationSecMission 4473.9520018357
scalar OsgEarthNet.uav[39] utilizationSecMaintenance 1427.3225035608
scalar OsgEarthNet.uav[39] utilizationSecCharge 22110
scalar OsgEarthNet.uav[39] utilizationSecIdle 231188.7244946
scalar OsgEarthNet.uav[39] utilizationEnergyMission 20720.336219788
scalar OsgEarthNet.uav[39] utilizationEnergyMaintenance 6866.7556037903
scalar OsgEarthNet.uav[39] utilizationEnergyCharge 27636.75
scalar OsgEarthNet.uav[39] utilizationEnergyOverdrawMission 0
scalar OsgEarthNet.uav[39] utilizationEnergyOverdrawMaintenance 0
scalar OsgEarthNet.uav[39] utilizationCountMissions 6
scalar OsgEarthNet.uav[39] utilizationCountManeuversMission 73
scalar OsgEarthNet.uav[39] utilizationCountManeuversMaintenance 12
scalar OsgEarthNet.uav[39] utilizationCountChargeState 6
scalar OsgEarthNet.uav[39] utilizationCountOverdrawnAfterMission 0
scalar OsgEarthNet.uav[39] utilizationCountIdleState 7
scalar OsgEarthNet.uav[39] utilizationFail 0
scalar OsgEarthNet.uav[39] simulationTime 259200
scalar OsgEarthNet.uav[40] utilizationSecMission 684.4732299383
scalar OsgEarthNet.uav[40] utilizationSecMaintenance 298.56834692969
scalar OsgEarthNet.uav[40] utilizationSecCharge 3710
scalar OsgEarthNet.uav[40] utilizationSecIdle 254506.95742313
scalar OsgEarthNet.uav[40] utilizationEnergyMission 3284.2578277588
scalar OsgEarthNet.uav[40] utilizationEnergyMaintenance 1384.8386459351
scalar OsgEarthNet.uav[40] utilizationEnergyCharge 4669.095703125
scalar OsgEarthNet.uav[40] utilizationEnergyOverdrawMission 0
scalar OsgEarthNet.uav[40] utilizationEnergyOverdrawMaintenance 0
scalar OsgEarthNet.uav[40] utilizationCountMissions 1
scalar OsgEarthNet.uav[40] utilizationCountManeuversMission 11
scalar OsgEarthNet.uav[40] utilizationCountManeuversMaintenance 2
scalar OsgEarthNet.uav[40] utilizationCountChargeState 1
scalar OsgEarthNet.uav[40] utilizationCountOverdrawnAfterMission 0
scalar OsgEarthNet.uav[40] utilizationCountIdleState 2
scalar OsgEarthNet.uav[40] utilizationFail 0
scalar OsgEarthNet.uav[40] simulationTime 259200
scalar OsgEarthNet.uav[41] utilizationSecMission 29674.231000217
scalar OsgEarthNet.uav[41] utilizationSecMaintenance 12189.549893412
scalar OsgEarthNet.uav[41] utilizationSecCharge 156030
scalar OsgEarthNet.uav[41] utilizationSecIdle 61306.21810637
scalar OsgEarthNet.uav[41] utilizationEnergyMission 137153.29705048
scalar OsgEarthNet.uav[41] utilizationEnergyMaintenance 56387.060455322
scalar OsgEarthNet.uav[41] utilizationEnergyCharge 194001.54125977
scalar OsgEarthNet.uav[41] utilizationEnergyOverdrawMission 0
scalar OsgEarthNet.uav[41] utilizationEnergyOverdrawMaintenance 0
scalar OsgEarthNet.uav[41] utilizationCountMissions 43
scalar OsgEarthNet.uav[41] utilizationCountManeuversMission 480
scalar OsgEarthNet.uav[41] utilizationCountManeuversMaintenance 86
scalar OsgEarthNet.uav[41] utilizationCountChargeState 43
scalar OsgEarthNet.uav[41] utilizationCountOverdrawnAfterMission 0
scalar OsgEarthNet.uav[41] utilizationCountIdleState 44
scalar OsgEarthNet.uav[41] utilizationFail 0
scalar OsgEarthNet.uav[41] simulationTime 259200
scalar OsgEarthNet.uav[42] utilizationSecMission 31936.60879124
scalar OsgEarthNet.uav[42] utilizationSecMaintenance 13164.462923501
scalar OsgEarthNet.uav[42] utilizationSecCharge 167216.92728526
scalar OsgEarthNet.uav[42] utilizationSecIdle 46882
scalar OsgEarthNet.uav[42] utilizationEnergyMission 148980.4590743
scalar OsgEarthNet.uav[42] utilizationEnergyMaintenance 61459.795005798
scalar OsgEarthNet.uav[42] utilizationEnergyCharge 209713.40209961
scalar OsgEarthNet.uav[42] utilizationEnergyOverdrawMission 0
scalar OsgEarthNet.uav[42] utilizationEnergyOverdrawMaintenance 0
scalar OsgEarthNet.uav[42] utilizationCountMissions 46
scalar OsgEarthNet.uav[42] utilizationCountManeuversMission 527
scalar OsgEarthNet.uav[42] utilizationCountManeuversMaintenance 91
scalar OsgEarthNet.uav[42] utilizationCountChargeState 46
scalar OsgEarthNet.uav[42] utilizationCountOverdrawnAfterMission 0
scalar OsgEarthNet.uav[42] utilizationCountIdleState 46
scalar OsgEarthNet.uav[42] utilizationFail 0
scalar OsgEarthNet.uav[42] simulationTime 259200
scalar OsgEarthNet.uav[43] utilizationSecMission 684.4732299383
scalar OsgEarthNet.uav[43] utilizationSecMaintenance 298.56834692969
scalar OsgEarthNet.uav[43] utilizationSecCharge 3830
scalar OsgEarthNet.uav[43] utilizationSecIdle 254386.95742313
scalar OsgEarthNet.uav[43] utilizationEnergyMission 3386.8788299561
scalar OsgEarthNet.uav[43] utilizationEnergyMaintenance 1441.0078659058
scalar OsgEarthNet.uav[43] utilizationEnergyCharge 4827.8881835938
scalar OsgEarthNet.uav[43] utilizationEnergyOverdrawMission 0
scalar OsgEarthNet.uav[43] utilizationEnergyOverdrawMaintenance 0
scalar OsgEarthNet.uav[43] utilizationCountMissions 1
scalar OsgEarthNet.uav[43] utilizationCountManeuversMission 11
scalar OsgEarthNet.uav[43] utilizationCountManeuversMaintenance 2
scalar OsgEarthNet.uav[43] utilizationCountChargeState 1
scalar OsgEarthNet.uav[43] utilizationCountOverdrawnAfterMission 0
scalar OsgEarthNet.uav[43] utilizationCountIdleState 2
scalar OsgEarthNet.uav[43] utilizationFail 0
scalar OsgEarthNet.uav[43] simulationTime 259200
scalar OsgEarthNet.uav[44] utilizationSecMission 26196.72177466
scalar OsgEarthNet.uav[44] utilizationSecMaintenance 12458.806548428
scalar OsgEarthNet.uav[44] utilizationSecCharge 146890
scalar OsgEarthNet.uav[44] utilizationSecIdle 73654.470676911
scalar OsgEarthNet.uav[44] utilizationEnergyMission 121845.43157196
scalar OsgEarthNet.uav[44] utilizationEnergyMaintenance 58022.088783264
scalar OsgEarthNet.uav[44] utilizationEnergyCharge 179743.47851562
scalar OsgEarthNet.uav[44] utilizationEnergyOverdrawMission 0
scalar OsgEarthNet.uav[44] utilizationEnergyOverdrawMaintenance 0
scalar OsgEarthNet.uav[44] utilizationCountMissions 42
scalar OsgEarthNet.uav[44] utilizationCountManeuversMission 427
scalar OsgEarthNet.uav[44] utilizationCountManeuversMaintenance 84
scalar OsgEarthNet.uav[44] utilizationCountChargeState 42
scalar OsgEarthNet.uav[44] utilizationCountOverdrawnAfterMission 0
scalar OsgEarthNet.uav[44] utilizationCountIdleState 43
scalar OsgEarthNet.uav[44] utilizationFail 0
scalar OsgEarthNet.uav[44] simulationTime 259200
scalar OsgEarthNet.uav[45] utilizationSecMission 766.82734763767
scalar OsgEarthNet.uav[45] utilizationSecMaintenance 306.92101052153
scalar OsgEarthNet.uav[45] utilizationSecCharge 3860
scalar OsgEarthNet.uav[45] utilizationSecIdle 254266.25064184
scalar OsgEarthNet.uav[45] utilizationEnergyMission 3506.2680053711
scalar OsgEarthNet.uav[45] utilizationEnergyMaintenance 1368.9684677124
scalar OsgEarthNet.uav[45] utilizationEnergyCharge 4900.3374023438
scalar OsgEarthNet.uav[45] utilizationEnergyOverdrawMission 0
scalar OsgEarthNet.uav[45] utilizationEnergyOverdrawMaintenance 0
scalar OsgEarthNet.uav[45] utilizationCountMissions 1
scalar OsgEarthNet.uav[45] utilizationCountManeuversMission 14
scalar OsgEarthNet.uav[45] utilizationCountManeuversMaintenance 2
scalar OsgEarthNet.uav[45] utilizationCountChargeState 1
scalar OsgEarthNet.uav[45] utilizationCountOverdrawnAfterMission 0
scalar OsgEarthNet.uav[45] utilizationCountIdleState 2
scalar OsgEarthNet.uav[45] utilizationFail 0
scalar OsgEarthNet.uav[45] simulationTime 259200
scalar OsgEarthNet.uav[46] utilizationSecMission 670.50650402609
scalar OsgEarthNet.uav[46] utilizationSecMaintenance 362.30145289341
scalar OsgEarthNet.uav[46] utilizationSecCharge 3880
scalar OsgEarthNet.uav[46] utilizationSecIdle 254287.19104308
scalar OsgEarthNet.uav[46] utilizationEnergyMission 3282.6573638916
scalar OsgEarthNet.uav[46] utilizationEnergyMaintenance 1683.9193229675
scalar OsgEarthNet.uav[46] utilizationEnergyCharge 4966.5732421875
scalar OsgEarthNet.uav[46] utilizationEnergyOverdrawMission 0
scalar OsgEarthNet.uav[46] utilizationEnergyOverdrawMaintenance 0
scalar OsgEarthNet.uav[46] utilizationCountMissions 1
scalar OsgEarthNet.uav[46] utilizationCountManeuversMission 10
scalar OsgEarthNet.uav[46] utilizationCountManeuversMaintenance 2
scalar OsgEarthNet.uav[46] utilizationCountChargeState 1
scalar OsgEarthNet.uav[46] utilizationCountOverdrawnAfterMission 0
scalar OsgEarthNet.uav[46] utilizationCountIdleState 2
scalar OsgEarthNet.uav[46] utilizationFail 0
scalar OsgEarthNet.uav[46] simulationTime 259200
scalar OsgEarthNet.uav[47] utilizationSecMission 27991.406551612
scalar OsgEarthNet.uav[47] utilizationSecMaintenance 12911.282167719
scalar OsgEarthNet.uav[47] utilizationSecCharge 151363.64210268
scalar OsgEarthNet.uav[47] utilizationSecIdle 66933.668177988
scalar OsgEarthNet.uav[47] utilizationEnergyMission 130323.52728271
scalar OsgEarthNet.uav[47] utilizationEnergyMaintenance 60539.19960022
scalar OsgEarthNet.uav[47] utilizationEnergyCharge 187629.39135742
scalar OsgEarthNet.uav[47] utilizationEnergyOverdrawMission 0
scalar OsgEarthNet.uav[47] utilizationEnergyOverdrawMaintenance 0
scalar OsgEarthNet.uav[47] utilizationCountMissions 43
scalar OsgEarthNet.uav[47] utilizationCountManeuversMission 446
scalar OsgEarthNet.uav[47] utilizationCountManeuversMaintenance 86
scalar OsgEarthNet.uav[47] utilizationCountChargeState 43
scalar OsgEarthNet.uav[47] utilizationCountOverdrawnAfterMission 0
scalar OsgEarthNet.uav[47] utilizationCountIdleState 43
scalar OsgEarthNet.uav[47] utilizationFail 0
scalar OsgEarthNet.uav[47] simulationTime 259200
scalar OsgEarthNet.uav[48] utilizationSecMission 694.00169469977
scalar OsgEarthNet.uav[48] utilizationSecMaintenance 338.49695459722
scalar OsgEarthNet.uav[48] utilizationSecCharge 3830
scalar OsgEarthNet.uav[48] utilizationSecIdle 254337.5003507
scalar OsgEarthNet.uav[48] utilizationEnergyMission 3370.9609985352
scalar OsgEarthNet.uav[48] utilizationEnergyMaintenance 1488.5687980652
scalar OsgEarthNet.uav[48] utilizationEnergyCharge 4859.529296875
scalar OsgEarthNet.uav[48] utilizationEnergyOverdrawMission 0
scalar OsgEarthNet.uav[48] utilizationEnergyOverdrawMaintenance 0
scalar OsgEarthNet.uav[48] utilizationCountMissions 1
scalar OsgEarthNet.uav[48] utilizationCountManeuversMission 13
scalar OsgEarthNet.uav[48] utilizationCountManeuversMaintenance 2
scalar OsgEarthNet.uav[48] utilizationCountChargeState 1
scalar OsgEarthNet.uav[48] utilizationCountOverdrawnAfterMission 0
scalar OsgEarthNet.uav[48] utilizationCountIdleState 2
scalar OsgEarthNet.uav[48] utilizationFail 0
scalar OsgEarthNet.uav[48] simulationTime 259200
scalar OsgEarthNet.uav[49] utilizationSecMission 684.4732299383
scalar OsgEarthNet.uav[49] utilizationSecMaintenance 298.56834692969
scalar OsgEarthNet.uav[49] utilizationSecCharge 3900
scalar OsgEarthNet.uav[49] utilizationSecIdle 254316.95742313
scalar OsgEarthNet.uav[49] utilizationEnergyMission 3450.2129364014
scalar OsgEarthNet.uav[49] utilizationEnergyMaintenance 1498.4487533569
scalar OsgEarthNet.uav[49] utilizationEnergyCharge 4948.66015625
scalar OsgEarthNet.uav[49] utilizationEnergyOverdrawMission 0
scalar OsgEarthNet.uav[49] utilizationEnergyOverdrawMaintenance 0
scalar OsgEarthNet.uav[49] utilizationCountMissions 1
scalar OsgEarthNet.uav[49] utilizationCountManeuversMission 11
scalar OsgEarthNet.uav[49] utilizationCountManeuversMaintenance 2
scalar OsgEarthNet.uav[49] utilizationCountChargeState 1
scalar OsgEarthNet.uav[49] utilizationCountOverdrawnAfterMission 0
scalar OsgEarthNet.uav[49] utilizationCountIdleState 2
scalar OsgEarthNet.uav[49] utilizationFail 0
scalar OsgEarthNet.uav[49] simulationTime 259200
scalar OsgEarthNet.uav[50] utilizationSecMission 684.4732299383
scalar OsgEarthNet.uav[50] utilizationSecMaintenance 298.56834692969
scalar OsgEarthNet.uav[50] utilizationSecCharge 3760
scalar OsgEarthNet.uav[50] utilizationSecIdle 254456.95742313
scalar OsgEarthNet.uav[50] utilizationEnergyMission 3261.5389251709
scalar OsgEarthNet.uav[50] utilizationEnergyMaintenance 1471.8121566772
scalar OsgEarthNet.uav[50] utilizationEnergyCharge 4733.349609375
scalar OsgEarthNet.uav[50] utilizationEnergyOverdrawMission 0
scalar OsgEarthNet.uav[50] utilizationEnergyOverdrawMaintenance 0
scalar OsgEarthNet.uav[50] utilizationCountMissions 1
scalar OsgEarthNet.uav[50] utilizationCountManeuversMission 11
scalar OsgEarthNet.uav[50] utilizationCountManeuversMaintenance 2
scalar OsgEarthNet.uav[50] utilizationCountChargeState 1
scalar OsgEarthNet.uav[50] utilizationCountOverdrawnAfterMission 0
scalar OsgEarthNet.uav[50] utilizationCountIdleState 2
scalar OsgEarthNet.uav[50] utilizationFail 0
scalar OsgEarthNet.uav[50] simulationTime 259200
scalar OsgEarthNet.uav[51] utilizationSecMission 22039.778762097
scalar OsgEarthNet.uav[51] utilizationSecMaintenance 10006.391641913
scalar OsgEarthNet.uav[51] utilizationSecCharge 120777.11683547
scalar OsgEarthNet.uav[51] utilizationSecIdle 106376.71176052
scalar OsgEarthNet.uav[51] utilizationEnergyMission 102617.47911072
scalar OsgEarthNet.uav[51] utilizationEnergyMaintenance 46505.260196686
scalar OsgEarthNet.uav[51] utilizationEnergyCharge 148339.52856445
scalar OsgEarthNet.uav[51] utilizationEnergyOverdrawMission 0
scalar OsgEarthNet.uav[51] utilizationEnergyOverdrawMaintenance 0
scalar OsgEarthNet.uav[51] utilizationCountMissions 35
scalar OsgEarthNet.uav[51] utilizationCountManeuversMission 365
scalar OsgEarthNet.uav[51] utilizationCountManeuversMaintenance 70
scalar OsgEarthNet.uav[51] utilizationCountChargeState 35
scalar OsgEarthNet.uav[51] utilizationCountOverdrawnAfterMission 0
scalar OsgEarthNet.uav[51] utilizationCountIdleState 35
scalar OsgEarthNet.uav[51] utilizationFail 0
scalar OsgEarthNet.uav[51] simulationTime 259200
scalar OsgEarthNet.uav[52] utilizationSecMission 750.20472747826
scalar OsgEarthNet.uav[52] utilizationSecMaintenance 300.8347882699
scalar OsgEarthNet.uav[52] utilizationSecCharge 3700
scalar OsgEarthNet.uav[52] utilizationSecIdle 254448.95948425
scalar OsgEarthNet.uav[52] utilizationEnergyMission 3320.3793640137
scalar OsgEarthNet.uav[52] utilizationEnergyMaintenance 1267.9069328308
scalar OsgEarthNet.uav[52] utilizationEnergyCharge 4588.2890625
scalar OsgEarthNet.uav[52] utilizationEnergyOverdrawMission 0
scalar OsgEarthNet.uav[52] utilizationEnergyOverdrawMaintenance 0
scalar OsgEarthNet.uav[52] utilizationCountMissions 1
scalar OsgEarthNet.uav[52] utilizationCountManeuversMission 11
scalar OsgEarthNet.uav[52] utilizationCountManeuversMaintenance 2
scalar OsgEarthNet.uav[52] utilizationCountChargeState 1
scalar OsgEarthNet.uav[52] utilizationCountOverdrawnAfterMission 0
scalar OsgEarthNet.uav[52] utilizationCountIdleState 2
scalar OsgEarthNet.uav[52] utilizationFail 0
scalar OsgEarthNet.uav[52] simulationTime 259200
scalar OsgEarthNet.uav[53] utilizationSecMission 750.20472747826
scalar OsgEarthNet.uav[53] utilizationSecMaintenance 261.68051383311
scalar OsgEarthNet.uav[53] utilizationSecCharge 3710
scalar OsgEarthNet.uav[53] utilizationSecIdle 254478.11375869
scalar OsgEarthNet.uav[53] utilizationEnergyMission 3447.9658508301
scalar OsgEarthNet.uav[53] utilizationEnergyMaintenance 1232.5950431824
scalar OsgEarthNet.uav[53] utilizationEnergyCharge 4680.5561523438
scalar OsgEarthNet.uav[53] utilizationEnergyOverdrawMission 0
scalar OsgEarthNet.uav[53] utilizationEnergyOverdrawMaintenance 0
scalar OsgEarthNet.uav[53] utilizationCountMissions 1
scalar OsgEarthNet.uav[53] utilizationCountManeuversMission 11
scalar OsgEarthNet.uav[53] utilizationCountManeuversMaintenance 2
scalar OsgEarthNet.uav[53] utilizationCountChargeState 1
scalar OsgEarthNet.uav[53] utilizationCountOverdrawnAfterMission 0
scalar OsgEarthNet.uav[53] utilizationCountIdleState 2
scalar OsgEarthNet.uav[53] utilizationFail 0
scalar OsgEarthNet.uav[53] simulationTime 259200
scalar OsgEarthNet.uav[54] utilizationSecMission 22081.557159843
scalar OsgEarthNet.uav[54] utilizationSecMaintenance 10637.003202839
scalar OsgEarthNet.uav[54] utilizationSecCharge 121660
scalar OsgEarthNet.uav[54] utilizationSecIdle 104821.43863732
scalar OsgEarthNet.uav[54] utilizationEnergyMission 102296.78825767
scalar OsgEarthNet.uav[54] utilizationEnergyMaintenance 50071.543106079
scalar OsgEarthNet.uav[54] utilizationEnergyCharge 150486.81689453
scalar OsgEarthNet.uav[54] utilizationEnergyOverdrawMission 0
scalar OsgEarthNet.uav[54] utilizationEnergyOverdrawMaintenance 0
scalar OsgEarthNet.uav[54] utilizationCountMissions 34
scalar OsgEarthNet.uav[54] utilizationCountManeuversMission 365
scalar OsgEarthNet.uav[54] utilizationCountManeuversMaintenance 69
scalar OsgEarthNet.uav[54] utilizationCountChargeState 34
scalar OsgEarthNet.uav[54] utilizationCountOverdrawnAfterMission 0
scalar OsgEarthNet.uav[54] utilizationCountIdleState 35
scalar OsgEarthNet.uav[54] utilizationFail 0
scalar OsgEarthNet.uav[54] simulationTime 259200
scalar OsgEarthNet.uav[55] utilizationSecMission 11901.203743347
scalar OsgEarthNet.uav[55] utilizationSecMaintenance 3704.2903478282
scalar OsgEarthNet.uav[55] utilizationSecCharge 53951.765961025
scalar OsgEarthNet.uav[55] utilizationSecIdle 189642.7389478
scalar OsgEarthNet.uav[55] utilizationEnergyMission 53474.50346756
scalar OsgEarthNet.uav[55] utilizationEnergyMaintenance 17239.335643768
scalar OsgEarthNet.uav[55] utilizationEnergyCharge 66745.143218994
scalar OsgEarthNet.uav[55] utilizationEnergyOverdrawMission 0
scalar OsgEarthNet.uav[55] utilizationEnergyOverdrawMaintenance 0
scalar OsgEarthNet.uav[55] utilizationCountMissions 16
scalar OsgEarthNet.uav[55] utilizationCountManeuversMission 188
scalar OsgEarthNet.uav[55] utilizationCountManeuversMaintenance 32
scalar OsgEarthNet.uav[55] utilizationCountChargeState 16
scalar OsgEarthNet.uav[55] utilizationCountOverdrawnAfterMission 0
scalar OsgEarthNet.uav[55] utilizationCountIdleState 16
scalar OsgEarthNet.uav[55] utilizationFail 0
scalar OsgEarthNet.uav[55] simulationTime 259200
scalar OsgEarthNet.uav[56] utilizationSecMission 664.13705230755
scalar OsgEarthNet.uav[56] utilizationSecMaintenance 395.66948748195
scalar OsgEarthNet.uav[56] utilizationSecCharge 3830
scalar OsgEarthNet.uav[56] utilizationSecIdle 254310.19246021
scalar OsgEarthNet.uav[56] utilizationEnergyMission 2899.8363037109
scalar OsgEarthNet.uav[56] utilizationEnergyMaintenance 2000.524181366
scalar OsgEarthNet.uav[56] utilizationEnergyCharge 4852.8002929688
scalar OsgEarthNet.uav[56] utilizationEnergyOverdrawMission 0
scalar OsgEarthNet.uav[56] utilizationEnergyOverdrawMaintenance 0
scalar OsgEarthNet.uav[56] utilizationCountMissions 1
scalar OsgEarthNet.uav[56] utilizationCountManeuversMission 10
scalar OsgEarthNet.uav[56] utilizationCountManeuversMaintenance 2
scalar OsgEarthNet.uav[56] utilizationCountChargeState 1
scalar OsgEarthNet.uav[56] utilizationCountOverdrawnAfterMission 0
scalar OsgEarthNet.uav[56] utilizationCountIdleState 2
scalar OsgEarthNet.uav[56] utilizationFail 0
scalar OsgEarthNet.uav[56] simulationTime 259200
scalar OsgEarthNet.uav[57] utilizationSecMission 25256.158808045
scalar OsgEarthNet.uav[57] utilizationSecMaintenance 12923.81991781
scalar OsgEarthNet.uav[57] utilizationSecCharge 138660
scalar OsgEarthNet.uav[57] utilizationSecIdle 82360.020274145
scalar OsgEarthNet.uav[57] utilizationEnergyMission 115050.17916107
scalar OsgEarthNet.uav[57] utilizationEnergyMaintenance 60515.067013312
scalar OsgEarthNet.uav[57] utilizationEnergyCharge 171074.15063477
scalar OsgEarthNet.uav[57] utilizationEnergyOverdrawMission 0
scalar OsgEarthNet.uav[57] utilizationEnergyOverdrawMaintenance 0
scalar OsgEarthNet.uav[57] utilizationCountMissions 40
scalar OsgEarthNet.uav[57] utilizationCountManeuversMission 424
scalar OsgEarthNet.uav[57] utilizationCountManeuversMaintenance 80
scalar OsgEarthNet.uav[57] utilizationCountChargeState 39
scalar OsgEarthNet.uav[57] utilizationCountOverdrawnAfterMission 0
scalar OsgEarthNet.uav[57] utilizationCountIdleState 40
scalar OsgEarthNet.uav[57] utilizationFail 0
scalar OsgEarthNet.uav[57] simulationTime 259200
scalar OsgEarthNet.uav[58] utilizationSecMission 31331.448681969
scalar OsgEarthNet.uav[58] utilizationSecMaintenance 12202.177569231
scalar OsgEarthNet.uav[58] utilizationSecCharge 161611.87480762
scalar OsgEarthNet.uav[58] utilizationSecIdle 54054.497941176
scalar OsgEarthNet.uav[58] utilizationEnergyMission 144237.17816162
scalar OsgEarthNet.uav[58] utilizationEnergyMaintenance 57087.828479767
scalar OsgEarthNet.uav[58] utilizationEnergyCharge 200924.24829102
scalar OsgEarthNet.uav[58] utilizationEnergyOverdrawMission 0
scalar OsgEarthNet.uav[58] utilizationEnergyOverdrawMaintenance 0
scalar OsgEarthNet.uav[58] utilizationCountMissions 45
scalar OsgEarthNet.uav[58] utilizationCountManeuversMission 495
scalar OsgEarthNet.uav[58] utilizationCountManeuversMaintenance 90
scalar OsgEarthNet.uav[58] utilizationCountChargeState 45
scalar OsgEarthNet.uav[58] utilizationCountOverdrawnAfterMission 0
scalar OsgEarthNet.uav[58] utilizationCountIdleState 45
scalar OsgEarthNet.uav[58] utilizationFail 0
scalar OsgEarthNet.uav[58] simulationTime 259200
scalar OsgEarthNet.uav[59] utilizationSecMission 15550.60245158
scalar OsgEarthNet.uav[59] utilizationSecMaintenance 7017.7126664127
scalar OsgEarthNet.uav[59] utilizationSecCharge 84360
scalar OsgEarthNet.uav[59] utilizationSecIdle 152271.68388201
scalar OsgEarthNet.uav[59] utilizationEnergyMission 73074.175056457
scalar OsgEarthNet.uav[59] utilizationEnergyMaintenance 32805.729858398
scalar OsgEarthNet.uav[59] utilizationEnergyCharge 105522.92993164
scalar OsgEarthNet.uav[59] utilizationEnergyOverdrawMission 0
scalar OsgEarthNet.uav[59] utilizationEnergyOverdrawMaintenance 0
scalar OsgEarthNet.uav[59] utilizationCountMissions 23
scalar OsgEarthNet.uav[59] utilizationCountManeuversMission 258
scalar OsgEarthNet.uav[59] utilizationCountManeuversMaintenance 46
scalar OsgEarthNet.uav[59] utilizationCountChargeState 23
scalar OsgEarthNet.uav[59] utilizationCountOverdrawnAfterMission 0
scalar OsgEarthNet.uav[59] utilizationCountIdleState 24
scalar OsgEarthNet.uav[59] utilizationFail 0
scalar OsgEarthNet.uav[59] simulationTime 259200
scalar OsgEarthNet.uav[60] utilizationSecMission 684.4732299383
scalar OsgEarthNet.uav[60] utilizationSecMaintenance 298.56834692969
scalar OsgEarthNet.uav[60] utilizationSecCharge 3800
scalar OsgEarthNet.uav[60] utilizationSecIdle 254416.95742313
scalar OsgEarthNet.uav[60] utilizationEnergyMission 3288.9708557129
scalar OsgEarthNet.uav[60] utilizationEnergyMaintenance 1514.9556503296
scalar OsgEarthNet.uav[60] utilizationEnergyCharge 4803.9248046875
scalar OsgEarthNet.uav[60] utilizationEnergyOverdrawMission 0
scalar OsgEarthNet.uav[60] utilizationEnergyOverdrawMaintenance 0
scalar OsgEarthNet.uav[60] utilizationCountMissions 1
scalar OsgEarthNet.uav[60] utilizationCountManeuversMission 11
scalar OsgEarthNet.uav[60] utilizationCountManeuversMaintenance 2
scalar OsgEarthNet.uav[60] utilizationCountChargeState 1
scalar OsgEarthNet.uav[60] utilizationCountOverdrawnAfterMission 0
scalar OsgEarthNet.uav[60] utilizationCountIdleState 2
scalar OsgEarthNet.uav[60] utilizationFail 0
scalar OsgEarthNet.uav[60] simulationTime 259200
scalar OsgEarthNet.uav[61] utilizationSecMission 21749.793015033
scalar OsgEarthNet.uav[61] utilizationSecMaintenance 8829.3191555954
scalar OsgEarthNet.uav[61] utilizationSecCharge 115960
scalar OsgEarthNet.uav[61] utilizationSecIdle 112660.88682937
scalar OsgEarthNet.uav[61] utilizationEnergyMission 100803.47130585
scalar OsgEarthNet.uav[61] utilizationEnergyMaintenance 41857.033893585
scalar OsgEarthNet.uav[61] utilizationEnergyCharge 142331.96362305
scalar OsgEarthNet.uav[61] utilizationEnergyOverdrawMission 0
scalar OsgEarthNet.uav[61] utilizationEnergyOverdrawMaintenance 0
scalar OsgEarthNet.uav[61] utilizationCountMissions 33
scalar OsgEarthNet.uav[61] utilizationCountManeuversMission 353
scalar OsgEarthNet.uav[61] utilizationCountManeuversMaintenance 66
scalar OsgEarthNet.uav[61] utilizationCountChargeState 33
scalar OsgEarthNet.uav[61] utilizationCountOverdrawnAfterMission 0
scalar OsgEarthNet.uav[61] utilizationCountIdleState 34
scalar OsgEarthNet.uav[61] utilizationFail 0
scalar OsgEarthNet.uav[61] simulationTime 259200
scalar OsgEarthNet.uav[62] utilizationSecMission 15359.54634521
scalar OsgEarthNet.uav[62] utilizationSecMaintenance 8736.4853376542
scalar OsgEarthNet.uav[62] utilizationSecCharge 92514.508969046
scalar OsgEarthNet.uav[62] utilizationSecIdle 142589.45834809
scalar OsgEarthNet.uav[62] utilizationEnergyMission 70396.951522827
scalar OsgEarthNet.uav[62] utilizationEnergyMaintenance 41712.713272095
scalar OsgEarthNet.uav[62] utilizationEnergyCharge 112365.62573242
scalar OsgEarthNet.uav[62] utilizationEnergyOverdrawMission 0
scalar OsgEarthNet.uav[62] utilizationEnergyOverdrawMaintenance 0
scalar OsgEarthNet.uav[62] utilizationCountMissions 27
scalar OsgEarthNet.uav[62] utilizationCountManeuversMission 254
scalar OsgEarthNet.uav[62] utilizationCountManeuversMaintenance 54
scalar OsgEarthNet.uav[62] utilizationCountChargeState 27
scalar OsgEarthNet.uav[62] utilizationCountOverdrawnAfterMission 0
scalar OsgEarthNet.uav[62] utilizationCountIdleState 27
scalar OsgEarthNet.uav[62] utilizationFail 0
scalar OsgEarthNet.uav[62] simulationTime 259200
scalar OsgEarthNet.uav[63] utilizationSecMission 760.62515258028
scalar OsgEarthNet.uav[63] utilizationSecMaintenance 291.95923480269
scalar OsgEarthNet.uav[63] utilizationSecCharge 3780
scalar OsgEarthNet.uav[63] utilizationSecIdle 254367.41461262
scalar OsgEarthNet.uav[63] utilizationEnergyMission 3470.0950927734
scalar OsgEarthNet.uav[63] utilizationEnergyMaintenance 1316.7131271362
scalar OsgEarthNet.uav[63] utilizationEnergyCharge 4786.80859375
scalar OsgEarthNet.uav[63] utilizationEnergyOverdrawMission 0
scalar OsgEarthNet.uav[63] utilizationEnergyOverdrawMaintenance 0
scalar OsgEarthNet.uav[63] utilizationCountMissions 1
scalar OsgEarthNet.uav[63] utilizationCountManeuversMission 12
scalar OsgEarthNet.uav[63] utilizationCountManeuversMaintenance 2
scalar OsgEarthNet.uav[63] utilizationCountChargeState 1
scalar OsgEarthNet.uav[63] utilizationCountOverdrawnAfterMission 0
scalar OsgEarthNet.uav[63] utilizationCountIdleState 2
scalar OsgEarthNet.uav[63] utilizationFail 0
scalar OsgEarthNet.uav[63] simulationTime 259200
scalar OsgEarthNet.uav[64] utilizationSecMission 4099.1768540215
scalar OsgEarthNet.uav[64] utilizationSecMaintenance 2182.3662263256
scalar OsgEarthNet.uav[64] utilizationSecCharge 24570
scalar OsgEarthNet.uav[64] utilizationSecIdle 228348.45591965
scalar OsgEarthNet.uav[64] utilizationEnergyMission 19244.077453613
scalar OsgEarthNet.uav[64] utilizationEnergyMaintenance 10598.504364014
scalar OsgEarthNet.uav[64] utilizationEnergyCharge 30032.219970703
scalar OsgEarthNet.uav[64] utilizationEnergyOverdrawMission 0
scalar OsgEarthNet.uav[64] utilizationEnergyOverdrawMaintenance 0
scalar OsgEarthNet.uav[64] utilizationCountMissions 7
scalar OsgEarthNet.uav[64] utilizationCountManeuversMission 69
scalar OsgEarthNet.uav[64] utilizationCountManeuversMaintenance 14
scalar OsgEarthNet.uav[64] utilizationCountChargeState 7
scalar OsgEarthNet.uav[64] utilizationCountOverdrawnAfterMission 0
scalar OsgEarthNet.uav[64] utilizationCountIdleState 8
scalar OsgEarthNet.uav[64] utilizationFail 0
scalar OsgEarthNet.uav[64] simulationTime 259200
scalar OsgEarthNet.uav[65] utilizationSecMission 694.00169469977
scalar OsgEarthNet.uav[65] utilizationSecMaintenance 338.49695459722
scalar OsgEarthNet.uav[65] utilizationSecCharge 3790
scalar OsgEarthNet.uav[65] utilizationSecIdle 254377.5003507
[...]
scalar OsgEarthNet.uav[82] utilizationSecIdle 51422
scalar OsgEarthNet.uav[82] utilizationEnergyMission 146133.4771242
scalar OsgEarthNet.uav[82] utilizationEnergyMaintenance 59553.534080505
scalar OsgEarthNet.uav[82] utilizationEnergyCharge 204819.96801758
scalar OsgEarthNet.uav[82] utilizationEnergyOverdrawMission 0
scalar OsgEarthNet.uav[82] utilizationEnergyOverdrawMaintenance 0
scalar OsgEarthNet.uav[82] utilizationCountMissions 45
scalar OsgEarthNet.uav[82] utilizationCountManeuversMission 509
scalar OsgEarthNet.uav[82] utilizationCountManeuversMaintenance 89
scalar OsgEarthNet.uav[82] utilizationCountChargeState 45
scalar OsgEarthNet.uav[82] utilizationCountOverdrawnAfterMission 0
scalar OsgEarthNet.uav[82] utilizationCountIdleState 45
scalar OsgEarthNet.uav[82] utilizationFail 0
scalar OsgEarthNet.uav[82] simulationTime 259200
scalar OsgEarthNet.uav[83] utilizationSecMission 750.20472747826
scalar OsgEarthNet.uav[83] utilizationSecMaintenance 261.68051383311
scalar OsgEarthNet.uav[83] utilizationSecCharge 3670
scalar OsgEarthNet.uav[83] utilizationSecIdle 254518.11375869
scalar OsgEarthNet.uav[83] utilizationEnergyMission 3338.2053527832
scalar OsgEarthNet.uav[83] utilizationEnergyMaintenance 1251.8702507019
scalar OsgEarthNet.uav[83] utilizationEnergyCharge 4590.0771484375
scalar OsgEarthNet.uav[83] utilizationEnergyOverdrawMission 0
scalar OsgEarthNet.uav[83] utilizationEnergyOverdrawMaintenance 0
scalar OsgEarthNet.uav[83] utilizationCountMissions 1
scalar OsgEarthNet.uav[83] utilizationCountManeuversMission 11
scalar OsgEarthNet.uav[83] utilizationCountManeuversMaintenance 2
scalar OsgEarthNet.uav[83] utilizationCountChargeState 1
scalar OsgEarthNet.uav[83] utilizationCountOverdrawnAfterMission 0
scalar OsgEarthNet.uav[83] utilizationCountIdleState 2
scalar OsgEarthNet.uav[83] utilizationFail 0
scalar OsgEarthNet.uav[83] simulationTime 259200
scalar OsgEarthNet.uav[84] utilizationSecMission 21150.762320931
scalar OsgEarthNet.uav[84] utilizationSecMaintenance 9954.0015305789
scalar OsgEarthNet.uav[84] utilizationSecCharge 118410
scalar OsgEarthNet.uav[84] utilizationSecIdle 109685.23514849
scalar OsgEarthNet.uav[84] utilizationEnergyMission 98589.778411865
scalar OsgEarthNet.uav[84] utilizationEnergyMaintenance 47754.559135437
scalar OsgEarthNet.uav[84] utilizationEnergyCharge 146411.15234375
scalar OsgEarthNet.uav[84] utilizationEnergyOverdrawMission 0
scalar OsgEarthNet.uav[84] utilizationEnergyOverdrawMaintenance 0
scalar OsgEarthNet.uav[84] utilizationCountMissions 33
scalar OsgEarthNet.uav[84] utilizationCountManeuversMission 342
scalar OsgEarthNet.uav[84] utilizationCountManeuversMaintenance 66
scalar OsgEarthNet.uav[84] utilizationCountChargeState 33
scalar OsgEarthNet.uav[84] utilizationCountOverdrawnAfterMission 0
scalar OsgEarthNet.uav[84] utilizationCountIdleState 34
scalar OsgEarthNet.uav[84] utilizationFail 0
scalar OsgEarthNet.uav[84] simulationTime 259200
scalar OsgEarthNet.uav[85] utilizationSecMission 750.20472747826
scalar OsgEarthNet.uav[85] utilizationSecMaintenance 300.8347882699
scalar OsgEarthNet.uav[85] utilizationSecCharge 3840
scalar OsgEarthNet.uav[85] utilizationSecIdle 254308.95948425
scalar OsgEarthNet.uav[85] utilizationEnergyMission 3422.6850280762
scalar OsgEarthNet.uav[85] utilizationEnergyMaintenance 1464.1305656433
scalar OsgEarthNet.uav[85] utilizationEnergyCharge 4886.8129882812
scalar OsgEarthNet.uav[85] utilizationEnergyOverdrawMission 0
scalar OsgEarthNet.uav[85] utilizationEnergyOverdrawMaintenance 0
scalar OsgEarthNet.uav[85] utilizationCountMissions 1
scalar OsgEarthNet.uav[85] utilizationCountManeuversMission 11
scalar OsgEarthNet.uav[85] utilizationCountManeuversMaintenance 2
scalar OsgEarthNet.uav[85] utilizationCountChargeState 1
scalar OsgEarthNet.uav[85] utilizationCountOverdrawnAfterMission 0
scalar OsgEarthNet.uav[85] utilizationCountIdleState 2
scalar OsgEarthNet.uav[85] utilizationFail 0
scalar OsgEarthNet.uav[85] simulationTime 259200
scalar OsgEarthNet.uav[86] utilizationSecMission 750.20472747826
scalar OsgEarthNet.uav[86] utilizationSecMaintenance 261.68051383311
scalar OsgEarthNet.uav[86] utilizationSecCharge 3750
scalar OsgEarthNet.uav[86] utilizationSecIdle 254438.11375869
scalar OsgEarthNet.uav[86] utilizationEnergyMission 3555.6759796143
scalar OsgEarthNet.uav[86] utilizationEnergyMaintenance 1219.5723381043
scalar OsgEarthNet.uav[86] utilizationEnergyCharge 4775.248046875
scalar OsgEarthNet.uav[86] utilizationEnergyOverdrawMission 0
scalar OsgEarthNet.uav[86] utilizationEnergyOverdrawMaintenance 0
scalar OsgEarthNet.uav[86] utilizationCountMissions 1
scalar OsgEarthNet.uav[86] utilizationCountManeuversMission 11
scalar OsgEarthNet.uav[86] utilizationCountManeuversMaintenance 2
scalar OsgEarthNet.uav[86] utilizationCountChargeState 1
scalar OsgEarthNet.uav[86] utilizationCountOverdrawnAfterMission 0
scalar OsgEarthNet.uav[86] utilizationCountIdleState 2
scalar OsgEarthNet.uav[86] utilizationFail 0
scalar OsgEarthNet.uav[86] simulationTime 259200
scalar OsgEarthNet.uav[87] utilizationSecMission 31089.441155185
scalar OsgEarthNet.uav[87] utilizationSecMaintenance 11629.795104575
scalar OsgEarthNet.uav[87] utilizationSecCharge 156314.06448827
scalar OsgEarthNet.uav[87] utilizationSecIdle 60166.698251966
scalar OsgEarthNet.uav[87] utilizationEnergyMission 143537.02510834
scalar OsgEarthNet.uav[87] utilizationEnergyMaintenance 54153.936748505
scalar OsgEarthNet.uav[87] utilizationEnergyCharge 196458.90869141
scalar OsgEarthNet.uav[87] utilizationEnergyOverdrawMission 0
scalar OsgEarthNet.uav[87] utilizationEnergyOverdrawMaintenance 0
scalar OsgEarthNet.uav[87] utilizationCountMissions 43
scalar OsgEarthNet.uav[87] utilizationCountManeuversMission 494
scalar OsgEarthNet.uav[87] utilizationCountManeuversMaintenance 86
scalar OsgEarthNet.uav[87] utilizationCountChargeState 43
scalar OsgEarthNet.uav[87] utilizationCountOverdrawnAfterMission 0
scalar OsgEarthNet.uav[87] utilizationCountIdleState 43
scalar OsgEarthNet.uav[87] utilizationFail 0
scalar OsgEarthNet.uav[87] simulationTime 259200
scalar OsgEarthNet.uav[88] utilizationSecMission 28875.88582596
scalar OsgEarthNet.uav[88] utilizationSecMaintenance 12179.541645898
scalar OsgEarthNet.uav[88] utilizationSecCharge 152888.32969252
scalar OsgEarthNet.uav[88] utilizationSecIdle 65256.241835621
scalar OsgEarthNet.uav[88] utilizationEnergyMission 133449.99900818
scalar OsgEarthNet.uav[88] utilizationEnergyMaintenance 57238.39509201
scalar OsgEarthNet.uav[88] utilizationEnergyCharge 188473.00976562
scalar OsgEarthNet.uav[88] utilizationEnergyOverdrawMission 0
scalar OsgEarthNet.uav[88] utilizationEnergyOverdrawMaintenance 0
scalar OsgEarthNet.uav[88] utilizationCountMissions 44
scalar OsgEarthNet.uav[88] utilizationCountManeuversMission 455
scalar OsgEarthNet.uav[88] utilizationCountManeuversMaintenance 88
scalar OsgEarthNet.uav[88] utilizationCountChargeState 44
scalar OsgEarthNet.uav[88] utilizationCountOverdrawnAfterMission 0
scalar OsgEarthNet.uav[88] utilizationCountIdleState 44
scalar OsgEarthNet.uav[88] utilizationFail 0
scalar OsgEarthNet.uav[88] simulationTime 259200
scalar OsgEarthNet.uav[89] utilizationSecMission 5222.5508085266
scalar OsgEarthNet.uav[89] utilizationSecMaintenance 2550.0048754767
scalar OsgEarthNet.uav[89] utilizationSecCharge 30240
scalar OsgEarthNet.uav[89] utilizationSecIdle 221187.443316
scalar OsgEarthNet.uav[89] utilizationEnergyMission 24223.950675964
scalar OsgEarthNet.uav[89] utilizationEnergyMaintenance 12319.200584412
scalar OsgEarthNet.uav[89] utilizationEnergyCharge 36523.501464844
scalar OsgEarthNet.uav[89] utilizationEnergyOverdrawMission 0
scalar OsgEarthNet.uav[89] utilizationEnergyOverdrawMaintenance 0
scalar OsgEarthNet.uav[89] utilizationCountMissions 9
scalar OsgEarthNet.uav[89] utilizationCountManeuversMission 87
scalar OsgEarthNet.uav[89] utilizationCountManeuversMaintenance 18
scalar OsgEarthNet.uav[89] utilizationCountChargeState 9
scalar OsgEarthNet.uav[89] utilizationCountOverdrawnAfterMission 0
scalar OsgEarthNet.uav[89] utilizationCountIdleState 10
scalar OsgEarthNet.uav[89] utilizationFail 0
scalar OsgEarthNet.uav[89] simulationTime 259200
scalar OsgEarthNet.uav[90] utilizationSecMission 760.62515258028
scalar OsgEarthNet.uav[90] utilizationSecMaintenance 291.95923480269
scalar OsgEarthNet.uav[90] utilizationSecCharge 3830
scalar OsgEarthNet.uav[90] utilizationSecIdle 254317.41461262
scalar OsgEarthNet.uav[90] utilizationEnergyMission 3486.5549316406
scalar OsgEarthNet.uav[90] utilizationEnergyMaintenance 1370.5547103882
scalar OsgEarthNet.uav[90] utilizationEnergyCharge 4857.1059570312
scalar OsgEarthNet.uav[90] utilizationEnergyOverdrawMission 0
scalar OsgEarthNet.uav[90] utilizationEnergyOverdrawMaintenance 0
scalar OsgEarthNet.uav[90] utilizationCountMissions 1
scalar OsgEarthNet.uav[90] utilizationCountManeuversMission 12
scalar OsgEarthNet.uav[90] utilizationCountManeuversMaintenance 2
scalar OsgEarthNet.uav[90] utilizationCountChargeState 1
scalar OsgEarthNet.uav[90] utilizationCountOverdrawnAfterMission 0
scalar OsgEarthNet.uav[90] utilizationCountIdleState 2
scalar OsgEarthNet.uav[90] utilizationFail 0
scalar OsgEarthNet.uav[90] simulationTime 259200
scalar OsgEarthNet.uav[91] utilizationSecMission 648.09208854277
scalar OsgEarthNet.uav[91] utilizationSecMaintenance 399.17886017656
scalar OsgEarthNet.uav[91] utilizationSecCharge 3750
scalar OsgEarthNet.uav[91] utilizationSecIdle 254402.72805128
scalar OsgEarthNet.uav[91] utilizationEnergyMission 2757.5735015869
scalar OsgEarthNet.uav[91] utilizationEnergyMaintenance 1926.4985160828
scalar OsgEarthNet.uav[91] utilizationEnergyCharge 4671.818359375
scalar OsgEarthNet.uav[91] utilizationEnergyOverdrawMission 0
scalar OsgEarthNet.uav[91] utilizationEnergyOverdrawMaintenance 0
scalar OsgEarthNet.uav[91] utilizationCountMissions 1
scalar OsgEarthNet.uav[91] utilizationCountManeuversMission 10
scalar OsgEarthNet.uav[91] utilizationCountManeuversMaintenance 2
scalar OsgEarthNet.uav[91] utilizationCountChargeState 1
scalar OsgEarthNet.uav[91] utilizationCountOverdrawnAfterMission 0
scalar OsgEarthNet.uav[91] utilizationCountIdleState 2
scalar OsgEarthNet.uav[91] utilizationFail 0
scalar OsgEarthNet.uav[91] simulationTime 259200
scalar OsgEarthNet.uav[92] utilizationSecMission 24116.349990799
scalar OsgEarthNet.uav[92] utilizationSecMaintenance 10129.697804477
scalar OsgEarthNet.uav[92] utilizationSecCharge 126277.2978954
scalar OsgEarthNet.uav[92] utilizationSecIdle 98676.653309323
scalar OsgEarthNet.uav[92] utilizationEnergyMission 110383.0885849
scalar OsgEarthNet.uav[92] utilizationEnergyMaintenance 46815.67395401
scalar OsgEarthNet.uav[92] utilizationEnergyCharge 156585.19311523
scalar OsgEarthNet.uav[92] utilizationEnergyOverdrawMission 0
scalar OsgEarthNet.uav[92] utilizationEnergyOverdrawMaintenance 0
scalar OsgEarthNet.uav[92] utilizationCountMissions 36
scalar OsgEarthNet.uav[92] utilizationCountManeuversMission 384
scalar OsgEarthNet.uav[92] utilizationCountManeuversMaintenance 72
scalar OsgEarthNet.uav[92] utilizationCountChargeState 36
scalar OsgEarthNet.uav[92] utilizationCountOverdrawnAfterMission 0
scalar OsgEarthNet.uav[92] utilizationCountIdleState 36
scalar OsgEarthNet.uav[92] utilizationFail 0
scalar OsgEarthNet.uav[92] simulationTime 259200
scalar OsgEarthNet.uav[93] utilizationSecMission 1803.3691324613
scalar OsgEarthNet.uav[93] utilizationSecMaintenance 954.43065436334
scalar OsgEarthNet.uav[93] utilizationSecCharge 10320
scalar OsgEarthNet.uav[93] utilizationSecIdle 246122.19921318
scalar OsgEarthNet.uav[93] utilizationEnergyMission 8081.9857940674
scalar OsgEarthNet.uav[93] utilizationEnergyMaintenance 4407.2984161377
scalar OsgEarthNet.uav[93] utilizationEnergyCharge 12531.563476562
scalar OsgEarthNet.uav[93] utilizationEnergyOverdrawMission 0
scalar OsgEarthNet.uav[93] utilizationEnergyOverdrawMaintenance 0
scalar OsgEarthNet.uav[93] utilizationCountMissions 3
scalar OsgEarthNet.uav[93] utilizationCountManeuversMission 28
scalar OsgEarthNet.uav[93] utilizationCountManeuversMaintenance 6
scalar OsgEarthNet.uav[93] utilizationCountChargeState 3
scalar OsgEarthNet.uav[93] utilizationCountOverdrawnAfterMission 0
scalar OsgEarthNet.uav[93] utilizationCountIdleState 4
scalar OsgEarthNet.uav[93] utilizationFail 0
scalar OsgEarthNet.uav[93] simulationTime 259200
scalar OsgEarthNet.uav[94] utilizationSecMission 12345.195087486
scalar OsgEarthNet.uav[94] utilizationSecMaintenance 7026.501783571
scalar OsgEarthNet.uav[94] utilizationSecCharge 73510
scalar OsgEarthNet.uav[94] utilizationSecIdle 166318.30212894
scalar OsgEarthNet.uav[94] utilizationEnergyMission 57972.223617554
scalar OsgEarthNet.uav[94] utilizationEnergyMaintenance 32853.708278656
scalar OsgEarthNet.uav[94] utilizationEnergyCharge 90238.169433594
scalar OsgEarthNet.uav[94] utilizationEnergyOverdrawMission 0
scalar OsgEarthNet.uav[94] utilizationEnergyOverdrawMaintenance 0
scalar OsgEarthNet.uav[94] utilizationCountMissions 21
scalar OsgEarthNet.uav[94] utilizationCountManeuversMission 206
scalar OsgEarthNet.uav[94] utilizationCountManeuversMaintenance 42
scalar OsgEarthNet.uav[94] utilizationCountChargeState 21
scalar OsgEarthNet.uav[94] utilizationCountOverdrawnAfterMission 0
scalar OsgEarthNet.uav[94] utilizationCountIdleState 22
scalar OsgEarthNet.uav[94] utilizationFail 0
scalar OsgEarthNet.uav[94] simulationTime 259200
scalar OsgEarthNet.uav[95] utilizationSecMission 11731.092442057
scalar OsgEarthNet.uav[95] utilizationSecMaintenance 5522.3981829529
scalar OsgEarthNet.uav[95] utilizationSecCharge 65520
scalar OsgEarthNet.uav[95] utilizationSecIdle 176426.50837499
scalar OsgEarthNet.uav[95] utilizationEnergyMission 54169.01109314
scalar OsgEarthNet.uav[95] utilizationEnergyMaintenance 26006.981338501
scalar OsgEarthNet.uav[95] utilizationEnergyCharge 79816.820556641
scalar OsgEarthNet.uav[95] utilizationEnergyOverdrawMission 0
scalar OsgEarthNet.uav[95] utilizationEnergyOverdrawMaintenance 0
scalar OsgEarthNet.uav[95] utilizationCountMissions 19
scalar OsgEarthNet.uav[95] utilizationCountManeuversMission 199
scalar OsgEarthNet.uav[95] utilizationCountManeuversMaintenance 38
scalar OsgEarthNet.uav[95] utilizationCountChargeState 19
scalar OsgEarthNet.uav[95] utilizationCountOverdrawnAfterMission 0
scalar OsgEarthNet.uav[95] utilizationCountIdleState 20
scalar OsgEarthNet.uav[95] utilizationFail 0
scalar OsgEarthNet.uav[95] simulationTime 259200
scalar OsgEarthNet.uav[96] utilizationSecMission 22116.654353948
scalar OsgEarthNet.uav[96] utilizationSecMaintenance 7771.5477606106
scalar OsgEarthNet.uav[96] utilizationSecCharge 110640
scalar OsgEarthNet.uav[96] utilizationSecIdle 118671.79688544
scalar OsgEarthNet.uav[96] utilizationEnergyMission 102251.17112398
scalar OsgEarthNet.uav[96] utilizationEnergyMaintenance 36658.521793365
scalar OsgEarthNet.uav[96] utilizationEnergyCharge 138479.15112305
scalar OsgEarthNet.uav[96] utilizationEnergyOverdrawMission 0
scalar OsgEarthNet.uav[96] utilizationEnergyOverdrawMaintenance 0
scalar OsgEarthNet.uav[96] utilizationCountMissions 30
scalar OsgEarthNet.uav[96] utilizationCountManeuversMission 367
scalar OsgEarthNet.uav[96] utilizationCountManeuversMaintenance 61
scalar OsgEarthNet.uav[96] utilizationCountChargeState 30
scalar OsgEarthNet.uav[96] utilizationCountOverdrawnAfterMission 0
scalar OsgEarthNet.uav[96] utilizationCountIdleState 31
scalar OsgEarthNet.uav[96] utilizationFail 0
scalar OsgEarthNet.uav[96] simulationTime 259200
scalar OsgEarthNet.uav[97] utilizationSecMission 22704.059881179
scalar OsgEarthNet.uav[97] utilizationSecMaintenance 10973.599497922
scalar OsgEarthNet.uav[97] utilizationSecCharge 127160
scalar OsgEarthNet.uav[97] utilizationSecIdle 98362.339620899
scalar OsgEarthNet.uav[97] utilizationEnergyMission 104434.45121002
scalar OsgEarthNet.uav[97] utilizationEnergyMaintenance 51825.008468628
scalar OsgEarthNet.uav[97] utilizationEnergyCharge 156405.99243164
scalar OsgEarthNet.uav[97] utilizationEnergyOverdrawMission 0
scalar OsgEarthNet.uav[97] utilizationEnergyOverdrawMaintenance 0
scalar OsgEarthNet.uav[97] utilizationCountMissions 36
scalar OsgEarthNet.uav[97] utilizationCountManeuversMission 381
scalar OsgEarthNet.uav[97] utilizationCountManeuversMaintenance 72
scalar OsgEarthNet.uav[97] utilizationCountChargeState 36
scalar OsgEarthNet.uav[97] utilizationCountOverdrawnAfterMission 0
scalar OsgEarthNet.uav[97] utilizationCountIdleState 37
scalar OsgEarthNet.uav[97] utilizationFail 0
scalar OsgEarthNet.uav[97] simulationTime 259200
scalar OsgEarthNet.uav[98] utilizationSecMission 25545.602570261
scalar OsgEarthNet.uav[98] utilizationSecMaintenance 12075.132227131
scalar OsgEarthNet.uav[98] utilizationSecCharge 140880
scalar OsgEarthNet.uav[98] utilizationSecIdle 80699.264202608
scalar OsgEarthNet.uav[98] utilizationEnergyMission 118586.43388367
scalar OsgEarthNet.uav[98] utilizationEnergyMaintenance 56380.31300354
scalar OsgEarthNet.uav[98] utilizationEnergyCharge 174807.5847168
scalar OsgEarthNet.uav[98] utilizationEnergyOverdrawMission 0
scalar OsgEarthNet.uav[98] utilizationEnergyOverdrawMaintenance 0
scalar OsgEarthNet.uav[98] utilizationCountMissions 39
scalar OsgEarthNet.uav[98] utilizationCountManeuversMission 424
scalar OsgEarthNet.uav[98] utilizationCountManeuversMaintenance 78
scalar OsgEarthNet.uav[98] utilizationCountChargeState 39
scalar OsgEarthNet.uav[98] utilizationCountOverdrawnAfterMission 0
scalar OsgEarthNet.uav[98] utilizationCountIdleState 40
scalar OsgEarthNet.uav[98] utilizationFail 0
scalar OsgEarthNet.uav[98] simulationTime 259200
scalar OsgEarthNet.uav[99] utilizationSecMission 10118.722034204
scalar OsgEarthNet.uav[99] utilizationSecMaintenance 5234.6404789137
scalar OsgEarthNet.uav[99] utilizationSecCharge 58910
scalar OsgEarthNet.uav[99] utilizationSecIdle 184936.63648688
scalar OsgEarthNet.uav[99] utilizationEnergyMission 47814.43724823
scalar OsgEarthNet.uav[99] utilizationEnergyMaintenance 24904.030628204
scalar OsgEarthNet.uav[99] utilizationEnergyCharge 72094.739501953
scalar OsgEarthNet.uav[99] utilizationEnergyOverdrawMission 0
scalar OsgEarthNet.uav[99] utilizationEnergyOverdrawMaintenance 0
scalar OsgEarthNet.uav[99] utilizationCountMissions 17
scalar OsgEarthNet.uav[99] utilizationCountManeuversMission 157
scalar OsgEarthNet.uav[99] utilizationCountManeuversMaintenance 34
scalar OsgEarthNet.uav[99] utilizationCountChargeState 17
scalar OsgEarthNet.uav[99] utilizationCountOverdrawnAfterMission 0
scalar OsgEarthNet.uav[99] utilizationCountIdleState 18
scalar OsgEarthNet.uav[99] utilizationFail 0
scalar OsgEarthNet.uav[99] simulationTime 259200
scalar OsgEarthNet.cs[0] usedPower 437802.29936108
scalar OsgEarthNet.cs[0] chargedPower 437802.29936108
scalar OsgEarthNet.cs[0] chargedMobileNodes 94
scalar OsgEarthNet.cs[0] reservations 94
scalar OsgEarthNet.cs[1] usedPower 690988.32972375
scalar OsgEarthNet.cs[1] chargedPower 690988.32972375
scalar OsgEarthNet.cs[1] chargedMobileNodes 219
scalar OsgEarthNet.cs[1] reservations 220
scalar OsgEarthNet.cs[2] usedPower 2779714.6671804
scalar OsgEarthNet.cs[2] chargedPower 2779714.6671804
scalar OsgEarthNet.cs[2] chargedMobileNodes 587
scalar OsgEarthNet.cs[2] reservations 598
scalar OsgEarthNet.cs[3] usedPower 651301.34393128
scalar OsgEarthNet.cs[3] chargedPower 651301.34393128
scalar OsgEarthNet.cs[3] chargedMobileNodes 147
scalar OsgEarthNet.cs[3] reservations 147
scalar OsgEarthNet.cs[4] usedPower 788327.32216861
scalar OsgEarthNet.cs[4] chargedPower 788327.32216861
scalar OsgEarthNet.cs[4] chargedMobileNodes 174
scalar OsgEarthNet.cs[4] reservations 178
scalar OsgEarthNet.cs[5] usedPower 738710.05120741
scalar OsgEarthNet.cs[5] chargedPower 738710.05120741
scalar OsgEarthNet.cs[5] chargedMobileNodes 154
scalar OsgEarthNet.cs[5] reservations 159
scalar OsgEarthNet.cs[6] usedPower 2445000.5811884
scalar OsgEarthNet.cs[6] chargedPower 2445000.5811884
scalar OsgEarthNet.cs[6] chargedMobileNodes 551
scalar OsgEarthNet.cs[6] reservations 557

