version 2
run Szenario_Hotel_Gabelbach-8-20180709-12:44:38-8652
attr configname Szenario_Hotel_Gabelbach
attr datetime 20180709-12:44:38
attr experiment Szenario_Hotel_Gabelbach
attr inifile omnetpp.ini
attr iterationvars "$replM=2, $biWeight=0.0"
attr iterationvarsf replM=2,biWeight=0.0-
attr measurement "$replM=2, $biWeight=0.0"
attr network OsgEarthNet
attr processid 8652
attr repetition 8
attr replication #8
attr resultdir results
attr runnumber 8
attr seedset 8
itervar biWeight 0.0
itervar replM 2
param *.osgEarthScene.scene "\"Szenario_Hotel_Gabelbach.earth\""
param *.playgroundLatitude 50.6830269
param *.playgroundLongitude 10.8538055
param *.playgroundWidth 3500m
param *.playgroundHeight 3500m
param *.numUAVs 100
param *.cs[0].posX 3537m
param *.cs[0].posY 965m
param *.cs[0].posZ 538m
param *.cs[1].posX 312m
param *.cs[1].posY 1262m
param *.cs[1].posZ 539m
param *.cs[2].posX 2185m
param *.cs[2].posY 3026m
param *.cs[2].posZ 777m
param *.cs[3].posX 10m
param *.cs[3].posY 2200m
param *.cs[3].posZ 560m
param *.cs[4].posX 750m
param *.cs[4].posY 200m
param *.cs[4].posZ 540m
param *.cs[5].posX 2450m
param *.cs[5].posY 180m
param *.cs[5].posZ 524m
param *.cs[6].posX 3140m
param *.cs[6].posY 1790m
param *.cs[6].posZ 606m
param *.numCSs 7
param *.uav[*].replacementMethod 2
param *.uav[*].weightedSumWeight 0.0
param *.*.timeStep 10s
param *.uav[*].commandPreviewCommandCount 20
param *.missionControl.missionFiles "\"missions\\\\Szenario_WB_Hotel_Gabelbach_Mission_Hotel.waypoints,missions\\\\Szenario_WB_Hotel_Gabelbach_Mission_Kickelhahn.waypoints,missions\\\\Szenario_WB_Hotel_Gabelbach_Mission_Ilmenau_Sportplatz.waypoints,missions\\\\Szenario_WB_Hotel_Gabelbach_Mission_Manebach_Mitte.waypoints,missions\\\\Szenario_WB_Hotel_Gabelbach_Mission_Manebach_Sued.waypoints\""
param *.missionControl.missionFiles "\"missions\\\\Szenario_WB_Hotel_Gabelbach_Mission_Hotel.waypoints,missions\\\\Szenario_WB_Hotel_Gabelbach_Mission_Kickelhahn.waypoints,missions\\\\Szenario_WB_Hotel_Gabelbach_Mission_Ilmenau_Sportplatz.waypoints,missions\\\\Szenario_WB_Hotel_Gabelbach_Mission_Manebach_Mitte.waypoints,missions\\\\Szenario_WB_Hotel_Gabelbach_Mission_Manebach_Sued.waypoints,missions\\\\Szenario_WB_Hotel_Gabelbach_Hover_HoheSchlaufe.waypoints,missions\\\\Szenario_WB_Hotel_Gabelbach_Hover_Kickelhahn.waypoints,missions\\\\Szenario_WB_Hotel_Gabelbach_Hover_Gabelbachskopf.waypoints,missions\\\\Szenario_WB_Hotel_Gabelbach_Hover_Dachskopf.waypoints\""
param *.uav[0].startX 3537m
param *.uav[0].startY 965m
param *.uav[0].startZ 539m
param *.uav[1].startX 312m
param *.uav[1].startY 1262m
param *.uav[1].startZ 540m
param *.uav[2].startX 2185m
param *.uav[2].startY 3026m
param *.uav[2].startZ 778m
param *.uav[3].startX 3537m
param *.uav[3].startY 965m
param *.uav[3].startZ 539m
param *.uav[4].startX 312m
param *.uav[4].startY 1262m
param *.uav[4].startZ 540m
param *.uav[5].startX 2185m
param *.uav[5].startY 3026m
param *.uav[5].startZ 778m
param *.uav[6].startX 3537m
param *.uav[6].startY 965m
param *.uav[6].startZ 539m
param *.uav[7].startX 312m
param *.uav[7].startY 1262m
param *.uav[7].startZ 540m
param *.uav[8].startX 2185m
param *.uav[8].startY 3026m
param *.uav[8].startZ 778m
param *.uav[9].startX 3537m
param *.uav[9].startY 965m
param *.uav[9].startZ 539m
param *.uav[10].startX 3537m
param *.uav[10].startY 965m
param *.uav[10].startZ 539m
param *.uav[11].startX 312m
param *.uav[11].startY 1262m
param *.uav[11].startZ 540m
param *.uav[12].startX 2185m
param *.uav[12].startY 3026m
param *.uav[12].startZ 778m
param *.uav[13].startX 3537m
param *.uav[13].startY 965m
param *.uav[13].startZ 539m
param *.uav[14].startX 312m
param *.uav[14].startY 1262m
param *.uav[14].startZ 540m
param *.uav[15].startX 2185m
param *.uav[15].startY 3026m
param *.uav[15].startZ 778m
param *.uav[16].startX 3537m
param *.uav[16].startY 965m
param *.uav[16].startZ 539m
param *.uav[17].startX 312m
param *.uav[17].startY 1262m
param *.uav[17].startZ 540m
param *.uav[18].startX 2185m
param *.uav[18].startY 3026m
param *.uav[18].startZ 778m
param *.uav[19].startX 3537m
param *.uav[19].startY 965m
param *.uav[19].startZ 539m
param *.uav[20].startX 3537m
param *.uav[20].startY 965m
param *.uav[20].startZ 539m
param *.uav[21].startX 312m
param *.uav[21].startY 1262m
param *.uav[21].startZ 540m
param *.uav[22].startX 2185m
param *.uav[22].startY 3026m
param *.uav[22].startZ 778m
param *.uav[23].startX 3537m
param *.uav[23].startY 965m
param *.uav[23].startZ 539m
param *.uav[24].startX 312m
param *.uav[24].startY 1262m
param *.uav[24].startZ 540m
param *.uav[25].startX 2185m
param *.uav[25].startY 3026m
param *.uav[25].startZ 778m
param *.uav[26].startX 3537m
param *.uav[26].startY 965m
param *.uav[26].startZ 539m
param *.uav[27].startX 312m
param *.uav[27].startY 1262m
param *.uav[27].startZ 540m
param *.uav[28].startX 2185m
param *.uav[28].startY 3026m
param *.uav[28].startZ 778m
param *.uav[29].startX 3537m
param *.uav[29].startY 965m
param *.uav[29].startZ 539m
param *.uav[30].startX 3537m
param *.uav[30].startY 965m
param *.uav[30].startZ 539m
param *.uav[31].startX 312m
param *.uav[31].startY 1262m
param *.uav[31].startZ 540m
param *.uav[32].startX 2185m
param *.uav[32].startY 3026m
param *.uav[32].startZ 778m
param *.uav[33].startX 3537m
param *.uav[33].startY 965m
param *.uav[33].startZ 539m
param *.uav[34].startX 312m
param *.uav[34].startY 1262m
param *.uav[34].startZ 540m
param *.uav[35].startX 2185m
param *.uav[35].startY 3026m
param *.uav[35].startZ 778m
param *.uav[36].startX 3537m
param *.uav[36].startY 965m
param *.uav[36].startZ 539m
param *.uav[37].startX 312m
param *.uav[37].startY 1262m
param *.uav[37].startZ 540m
param *.uav[38].startX 2185m
param *.uav[38].startY 3026m
param *.uav[38].startZ 778m
param *.uav[39].startX 3537m
param *.uav[39].startY 965m
param *.uav[39].startZ 539m
param *.uav[40].startX 3537m
param *.uav[40].startY 965m
param *.uav[40].startZ 539m
param *.uav[41].startX 312m
param *.uav[41].startY 1262m
param *.uav[41].startZ 540m
param *.uav[42].startX 2185m
param *.uav[42].startY 3026m
param *.uav[42].startZ 778m
param *.uav[43].startX 3537m
param *.uav[43].startY 965m
param *.uav[43].startZ 539m
param *.uav[44].startX 312m
param *.uav[44].startY 1262m
param *.uav[44].startZ 540m
param *.uav[45].startX 2185m
param *.uav[45].startY 3026m
param *.uav[45].startZ 778m
param *.uav[46].startX 3537m
param *.uav[46].startY 965m
param *.uav[46].startZ 539m
param *.uav[47].startX 312m
param *.uav[47].startY 1262m
param *.uav[47].startZ 540m
param *.uav[48].startX 2185m
param *.uav[48].startY 3026m
param *.uav[48].startZ 778m
param *.uav[49].startX 3537m
param *.uav[49].startY 965m
param *.uav[49].startZ 539m
param *.uav[50].startX 3537m
param *.uav[50].startY 965m
param *.uav[50].startZ 539m
param *.uav[51].startX 312m
param *.uav[51].startY 1262m
param *.uav[51].startZ 540m
param *.uav[52].startX 2185m
param *.uav[52].startY 3026m
param *.uav[52].startZ 778m
param *.uav[53].startX 3537m
param *.uav[53].startY 965m
param *.uav[53].startZ 539m
param *.uav[54].startX 312m
param *.uav[54].startY 1262m
param *.uav[54].startZ 540m
param *.uav[55].startX 2185m
param *.uav[55].startY 3026m
param *.uav[55].startZ 778m
param *.uav[56].startX 3537m
param *.uav[56].startY 965m
param *.uav[56].startZ 539m
param *.uav[57].startX 312m
param *.uav[57].startY 1262m
param *.uav[57].startZ 540m
param *.uav[58].startX 2185m
param *.uav[58].startY 3026m
param *.uav[58].startZ 778m
param *.uav[59].startX 3537m
param *.uav[59].startY 965m
param *.uav[59].startZ 539m
param *.uav[60].startX 3537m
param *.uav[60].startY 965m
param *.uav[60].startZ 539m
param *.uav[61].startX 312m
param *.uav[61].startY 1262m
param *.uav[61].startZ 540m
param *.uav[62].startX 2185m
param *.uav[62].startY 3026m
param *.uav[62].startZ 778m
param *.uav[63].startX 3537m
param *.uav[63].startY 965m
param *.uav[63].startZ 539m
param *.uav[64].startX 312m
param *.uav[64].startY 1262m
param *.uav[64].startZ 540m
param *.uav[65].startX 2185m
param *.uav[65].startY 3026m
param *.uav[65].startZ 778m
param *.uav[66].startX 3537m
param *.uav[66].startY 965m
param *.uav[66].startZ 539m
param *.uav[67].startX 312m
param *.uav[67].startY 1262m
param *.uav[67].startZ 540m
param *.uav[68].startX 2185m
param *.uav[68].startY 3026m
param *.uav[68].startZ 778m
param *.uav[69].startX 3537m
param *.uav[69].startY 965m
param *.uav[69].startZ 539m
param *.uav[70].startX 3537m
param *.uav[70].startY 965m
param *.uav[70].startZ 539m
param *.uav[71].startX 312m
param *.uav[71].startY 1262m
param *.uav[71].startZ 540m
param *.uav[72].startX 2185m
param *.uav[72].startY 3026m
param *.uav[72].startZ 778m
param *.uav[73].startX 3537m
param *.uav[73].startY 965m
param *.uav[73].startZ 539m
param *.uav[74].startX 312m
param *.uav[74].startY 1262m
param *.uav[74].startZ 540m
param *.uav[75].startX 2185m
param *.uav[75].startY 3026m
param *.uav[75].startZ 778m
param *.uav[76].startX 3537m
param *.uav[76].startY 965m
param *.uav[76].startZ 539m
param *.uav[77].startX 312m
param *.uav[77].startY 1262m
param *.uav[77].startZ 540m
param *.uav[78].startX 2185m
param *.uav[78].startY 3026m
param *.uav[78].startZ 778m
param *.uav[79].startX 3537m
param *.uav[79].startY 965m
param *.uav[79].startZ 539m
param *.uav[80].startX 3537m
param *.uav[80].startY 965m
param *.uav[80].startZ 539m
param *.uav[81].startX 312m
param *.uav[81].startY 1262m
param *.uav[81].startZ 540m
param *.uav[82].startX 2185m
param *.uav[82].startY 3026m
param *.uav[82].startZ 778m
param *.uav[83].startX 3537m
param *.uav[83].startY 965m
param *.uav[83].startZ 539m
param *.uav[84].startX 312m
param *.uav[84].startY 1262m
param *.uav[84].startZ 540m
param *.uav[85].startX 2185m
param *.uav[85].startY 3026m
param *.uav[85].startZ 778m
param *.uav[86].startX 3537m
param *.uav[86].startY 965m
param *.uav[86].startZ 539m
param *.uav[87].startX 312m
param *.uav[87].startY 1262m
param *.uav[87].startZ 540m
param *.uav[88].startX 2185m
param *.uav[88].startY 3026m
param *.uav[88].startZ 778m
param *.uav[89].startX 3537m
param *.uav[89].startY 965m
param *.uav[89].startZ 539m
param *.uav[90].startX 3537m
param *.uav[90].startY 965m
param *.uav[90].startZ 539m
param *.uav[91].startX 312m
param *.uav[91].startY 1262m
param *.uav[91].startZ 540m
param *.uav[92].startX 2185m
param *.uav[92].startY 3026m
param *.uav[92].startZ 778m
param *.uav[93].startX 3537m
param *.uav[93].startY 965m
param *.uav[93].startZ 539m
param *.uav[94].startX 312m
param *.uav[94].startY 1262m
param *.uav[94].startZ 540m
param *.uav[95].startX 2185m
param *.uav[95].startY 3026m
param *.uav[95].startZ 778m
param *.uav[96].startX 3537m
param *.uav[96].startY 965m
param *.uav[96].startZ 539m
param *.uav[97].startX 312m
param *.uav[97].startY 1262m
param *.uav[97].startZ 540m
param *.uav[98].startX 2185m
param *.uav[98].startY 3026m
param *.uav[98].startZ 778m
param *.uav[99].startX 3537m
param *.uav[99].startY 965m
param *.uav[99].startZ 539m
param *.osgEarthScene.scene "\"boston.earth\""
param *.playgroundLatitude 42.3558
param *.playgroundLongitude -71.0677
param *.playgroundWidth 400m
param *.playgroundHeight 200m
param *.channelController.connectionColor "\"#0000FF40\""
param *.channelController.showConnections false
param *.uav[*].modelURL "\"quadrocopter.small.obj.15.scale.0,0,90.rot\""
param *.uav[*].labelColor "\"#FF7C00CC\""
param *.uav[*].label2Color "\"#FF7C00EE\""
param *.uav[*].batteryCapacity 5200mAh
param *.uav[*].batteryRemaining uav[index].batteryCapacity
param *.uav[*].predictionQuantile 0.95
param *.uav[*].replacementMethod 2
param *.uav[*].weightedSumWeight 0.5
param *.cs[*].modelURL "\"chargingstation_v1.osgt.2.scale.0,0,0.rot.0,0,-15e-1.trans\""
param *.cs[*].spotsWaiting 999
param *.cs[*].spotsCharging 999
param *.cs[*].chargeEffectivenessPercentage 100
param *.cs[*].nonLinearPhaseStartPercentage 85
param *.cs[*].chargeCurrent 6.0A
param *.cs[*].prioritizeFastCharge true
param *.missionControl.replacementSearchMethod 0
param *.*.timeStep 9s

scalar OsgEarthNet.uav[0] utilizationSecMission 570.98871244881
scalar OsgEarthNet.uav[0] utilizationSecMaintenance 276.2282017063
scalar OsgEarthNet.uav[0] utilizationSecCharge 3430
scalar OsgEarthNet.uav[0] utilizationSecIdle 254922.78208584
scalar OsgEarthNet.uav[0] utilizationEnergyMission 2825.3266906738
scalar OsgEarthNet.uav[0] utilizationEnergyMaintenance 1426.1637077332
scalar OsgEarthNet.uav[0] utilizationEnergyCharge 4251.4873046875
scalar OsgEarthNet.uav[0] utilizationEnergyOverdrawMission 0
scalar OsgEarthNet.uav[0] utilizationEnergyOverdrawMaintenance 0
scalar OsgEarthNet.uav[0] utilizationCountMissions 1
scalar OsgEarthNet.uav[0] utilizationCountManeuversMission 8
scalar OsgEarthNet.uav[0] utilizationCountManeuversMaintenance 2
scalar OsgEarthNet.uav[0] utilizationCountChargeState 1
scalar OsgEarthNet.uav[0] utilizationCountOverdrawnAfterMission 0
scalar OsgEarthNet.uav[0] utilizationCountIdleState 2
scalar OsgEarthNet.uav[0] utilizationFail 0
scalar OsgEarthNet.uav[0] simulationTime 259200
scalar OsgEarthNet.uav[1] utilizationSecMission 2280.2891432744
scalar OsgEarthNet.uav[1] utilizationSecMaintenance 1824.8994388521
scalar OsgEarthNet.uav[1] utilizationSecCharge 15900
scalar OsgEarthNet.uav[1] utilizationSecIdle 239194.81041787
scalar OsgEarthNet.uav[1] utilizationEnergyMission 10566.113929749
scalar OsgEarthNet.uav[1] utilizationEnergyMaintenance 8448.4939727783
scalar OsgEarthNet.uav[1] utilizationEnergyCharge 18904.467285156
scalar OsgEarthNet.uav[1] utilizationEnergyOverdrawMission 0
scalar OsgEarthNet.uav[1] utilizationEnergyOverdrawMaintenance 0
scalar OsgEarthNet.uav[1] utilizationCountMissions 5
scalar OsgEarthNet.uav[1] utilizationCountManeuversMission 38
scalar OsgEarthNet.uav[1] utilizationCountManeuversMaintenance 10
scalar OsgEarthNet.uav[1] utilizationCountChargeState 5
scalar OsgEarthNet.uav[1] utilizationCountOverdrawnAfterMission 0
scalar OsgEarthNet.uav[1] utilizationCountIdleState 6
scalar OsgEarthNet.uav[1] utilizationFail 0
scalar OsgEarthNet.uav[1] simulationTime 259200
scalar OsgEarthNet.uav[2] utilizationSecMission 22109.485455973
scalar OsgEarthNet.uav[2] utilizationSecMaintenance 10292.913859855
scalar OsgEarthNet.uav[2] utilizationSecCharge 123510.740638
scalar OsgEarthNet.uav[2] utilizationSecIdle 103286.85904617
scalar OsgEarthNet.uav[2] utilizationEnergyMission 101495.62664795
scalar OsgEarthNet.uav[2] utilizationEnergyMaintenance 48321.928314209
scalar OsgEarthNet.uav[2] utilizationEnergyCharge 146260.55444336
scalar OsgEarthNet.uav[2] utilizationEnergyOverdrawMission 0
scalar OsgEarthNet.uav[2] utilizationEnergyOverdrawMaintenance 0
scalar OsgEarthNet.uav[2] utilizationCountMissions 40
scalar OsgEarthNet.uav[2] utilizationCountManeuversMission 376
scalar OsgEarthNet.uav[2] utilizationCountManeuversMaintenance 80
scalar OsgEarthNet.uav[2] utilizationCountChargeState 40
scalar OsgEarthNet.uav[2] utilizationCountOverdrawnAfterMission 0
scalar OsgEarthNet.uav[2] utilizationCountIdleState 40
scalar OsgEarthNet.uav[2] utilizationFail 0
scalar OsgEarthNet.uav[2] simulationTime 259200
scalar OsgEarthNet.uav[3] utilizationSecMission 643.6855834741
scalar OsgEarthNet.uav[3] utilizationSecMaintenance 176.71691540981
scalar OsgEarthNet.uav[3] utilizationSecCharge 3160
scalar OsgEarthNet.uav[3] utilizationSecIdle 255219.59650112
scalar OsgEarthNet.uav[3] utilizationEnergyMission 2958.0764007568
scalar OsgEarthNet.uav[3] utilizationEnergyMaintenance 809.01641082764
scalar OsgEarthNet.uav[3] utilizationEnergyCharge 3767.0927734375
scalar OsgEarthNet.uav[3] utilizationEnergyOverdrawMission 0
scalar OsgEarthNet.uav[3] utilizationEnergyOverdrawMaintenance 0
scalar OsgEarthNet.uav[3] utilizationCountMissions 1
scalar OsgEarthNet.uav[3] utilizationCountManeuversMission 9
scalar OsgEarthNet.uav[3] utilizationCountManeuversMaintenance 2
scalar OsgEarthNet.uav[3] utilizationCountChargeState 1
scalar OsgEarthNet.uav[3] utilizationCountOverdrawnAfterMission 0
scalar OsgEarthNet.uav[3] utilizationCountIdleState 2
scalar OsgEarthNet.uav[3] utilizationFail 0
scalar OsgEarthNet.uav[3] simulationTime 259200
scalar OsgEarthNet.uav[4] utilizationSecMission 29300.835828463
scalar OsgEarthNet.uav[4] utilizationSecMaintenance 12937.655288802
scalar OsgEarthNet.uav[4] utilizationSecCharge 162966.89599322
scalar OsgEarthNet.uav[4] utilizationSecIdle 53994.611889516
scalar OsgEarthNet.uav[4] utilizationEnergyMission 133547.37561035
scalar OsgEarthNet.uav[4] utilizationEnergyMaintenance 62060.984653473
scalar OsgEarthNet.uav[4] utilizationEnergyCharge 194206.06713867
scalar OsgEarthNet.uav[4] utilizationEnergyOverdrawMission 0
scalar OsgEarthNet.uav[4] utilizationEnergyOverdrawMaintenance 0
scalar OsgEarthNet.uav[4] utilizationCountMissions 52
scalar OsgEarthNet.uav[4] utilizationCountManeuversMission 458
scalar OsgEarthNet.uav[4] utilizationCountManeuversMaintenance 104
scalar OsgEarthNet.uav[4] utilizationCountChargeState 52
scalar OsgEarthNet.uav[4] utilizationCountOverdrawnAfterMission 0
scalar OsgEarthNet.uav[4] utilizationCountIdleState 52
scalar OsgEarthNet.uav[4] utilizationFail 0
scalar OsgEarthNet.uav[4] simulationTime 259200
scalar OsgEarthNet.uav[5] utilizationSecMission 887.1741082606
scalar OsgEarthNet.uav[5] utilizationSecMaintenance 125.81102573108
scalar OsgEarthNet.uav[5] utilizationSecCharge 3550
scalar OsgEarthNet.uav[5] utilizationSecIdle 254637.01386601
scalar OsgEarthNet.uav[5] utilizationEnergyMission 4091.6758270264
scalar OsgEarthNet.uav[5] utilizationEnergyMaintenance 651.77812957764
scalar OsgEarthNet.uav[5] utilizationEnergyCharge 4326.259765625
scalar OsgEarthNet.uav[5] utilizationEnergyOverdrawMission 0
scalar OsgEarthNet.uav[5] utilizationEnergyOverdrawMaintenance 0
scalar OsgEarthNet.uav[5] utilizationCountMissions 1
scalar OsgEarthNet.uav[5] utilizationCountManeuversMission 14
scalar OsgEarthNet.uav[5] utilizationCountManeuversMaintenance 2
scalar OsgEarthNet.uav[5] utilizationCountChargeState 1
scalar OsgEarthNet.uav[5] utilizationCountOverdrawnAfterMission 0
scalar OsgEarthNet.uav[5] utilizationCountIdleState 2
scalar OsgEarthNet.uav[5] utilizationFail 0
scalar OsgEarthNet.uav[5] simulationTime 259200
scalar OsgEarthNet.uav[6] utilizationSecMission 25921.710210756
scalar OsgEarthNet.uav[6] utilizationSecMaintenance 14712.86309326
scalar OsgEarthNet.uav[6] utilizationSecCharge 157532.03155836
scalar OsgEarthNet.uav[6] utilizationSecIdle 61033.394137624
scalar OsgEarthNet.uav[6] utilizationEnergyMission 119215.32431412
scalar OsgEarthNet.uav[6] utilizationEnergyMaintenance 68918.863693237
scalar OsgEarthNet.uav[6] utilizationEnergyCharge 186126.15637207
scalar OsgEarthNet.uav[6] utilizationEnergyOverdrawMission 0
scalar OsgEarthNet.uav[6] utilizationEnergyOverdrawMaintenance 0
scalar OsgEarthNet.uav[6] utilizationCountMissions 51
scalar OsgEarthNet.uav[6] utilizationCountManeuversMission 418
scalar OsgEarthNet.uav[6] utilizationCountManeuversMaintenance 102
scalar OsgEarthNet.uav[6] utilizationCountChargeState 51
scalar OsgEarthNet.uav[6] utilizationCountOverdrawnAfterMission 0
scalar OsgEarthNet.uav[6] utilizationCountIdleState 51
scalar OsgEarthNet.uav[6] utilizationFail 0
scalar OsgEarthNet.uav[6] simulationTime 259200
scalar OsgEarthNet.uav[7] utilizationSecMission 23.329233930829
scalar OsgEarthNet.uav[7] utilizationSecMaintenance 476.50021886036
scalar OsgEarthNet.uav[7] utilizationSecCharge 2510
scalar OsgEarthNet.uav[7] utilizationSecIdle 256190.16954721
scalar OsgEarthNet.uav[7] utilizationEnergyMission 162.57612609863
scalar OsgEarthNet.uav[7] utilizationEnergyMaintenance 2434.0662155151
scalar OsgEarthNet.uav[7] utilizationEnergyCharge 2596.6411132812
scalar OsgEarthNet.uav[7] utilizationEnergyOverdrawMission 0
scalar OsgEarthNet.uav[7] utilizationEnergyOverdrawMaintenance 0
scalar OsgEarthNet.uav[7] utilizationCountMissions 1
scalar OsgEarthNet.uav[7] utilizationCountManeuversMission 1
scalar OsgEarthNet.uav[7] utilizationCountManeuversMaintenance 2
scalar OsgEarthNet.uav[7] utilizationCountChargeState 1
scalar OsgEarthNet.uav[7] utilizationCountOverdrawnAfterMission 0
scalar OsgEarthNet.uav[7] utilizationCountIdleState 2
scalar OsgEarthNet.uav[7] utilizationFail 0
scalar OsgEarthNet.uav[7] simulationTime 259200
scalar OsgEarthNet.uav[8] utilizationSecMission 13451.858363592
scalar OsgEarthNet.uav[8] utilizationSecMaintenance 7420.0354173827
scalar OsgEarthNet.uav[8] utilizationSecCharge 80260.094447257
scalar OsgEarthNet.uav[8] utilizationSecIdle 158068.01077177
scalar OsgEarthNet.uav[8] utilizationEnergyMission 62883.596488953
scalar OsgEarthNet.uav[8] utilizationEnergyMaintenance 34494.415817261
scalar OsgEarthNet.uav[8] utilizationEnergyCharge 93682.692138672
scalar OsgEarthNet.uav[8] utilizationEnergyOverdrawMission 0
scalar OsgEarthNet.uav[8] utilizationEnergyOverdrawMaintenance 0
scalar OsgEarthNet.uav[8] utilizationCountMissions 27
scalar OsgEarthNet.uav[8] utilizationCountManeuversMission 224
scalar OsgEarthNet.uav[8] utilizationCountManeuversMaintenance 54
scalar OsgEarthNet.uav[8] utilizationCountChargeState 27
scalar OsgEarthNet.uav[8] utilizationCountOverdrawnAfterMission 0
scalar OsgEarthNet.uav[8] utilizationCountIdleState 27
scalar OsgEarthNet.uav[8] utilizationFail 0
scalar OsgEarthNet.uav[8] simulationTime 259200
scalar OsgEarthNet.uav[9] utilizationSecMission 29818.903990575
scalar OsgEarthNet.uav[9] utilizationSecMaintenance 13408.872054675
scalar OsgEarthNet.uav[9] utilizationSecCharge 169230.22295475
scalar OsgEarthNet.uav[9] utilizationSecIdle 46742
scalar OsgEarthNet.uav[9] utilizationEnergyMission 138350.38996124
scalar OsgEarthNet.uav[9] utilizationEnergyMaintenance 62574.880756378
scalar OsgEarthNet.uav[9] utilizationEnergyCharge 199624.00024414
scalar OsgEarthNet.uav[9] utilizationEnergyOverdrawMission 0
scalar OsgEarthNet.uav[9] utilizationEnergyOverdrawMaintenance 0
scalar OsgEarthNet.uav[9] utilizationCountMissions 55
scalar OsgEarthNet.uav[9] utilizationCountManeuversMission 492
scalar OsgEarthNet.uav[9] utilizationCountManeuversMaintenance 109
scalar OsgEarthNet.uav[9] utilizationCountChargeState 55
scalar OsgEarthNet.uav[9] utilizationCountOverdrawnAfterMission 0
scalar OsgEarthNet.uav[9] utilizationCountIdleState 55
scalar OsgEarthNet.uav[9] utilizationFail 0
scalar OsgEarthNet.uav[9] simulationTime 259200
scalar OsgEarthNet.uav[10] utilizationSecMission 24608.263924889
scalar OsgEarthNet.uav[10] utilizationSecMaintenance 13033.501433764
scalar OsgEarthNet.uav[10] utilizationSecCharge 148812.45349272
scalar OsgEarthNet.uav[10] utilizationSecIdle 72745.780148625
scalar OsgEarthNet.uav[10] utilizationEnergyMission 115009.98728943
scalar OsgEarthNet.uav[10] utilizationEnergyMaintenance 61976.981132507
scalar OsgEarthNet.uav[10] utilizationEnergyCharge 176553.14379883
scalar OsgEarthNet.uav[10] utilizationEnergyOverdrawMission 0
scalar OsgEarthNet.uav[10] utilizationEnergyOverdrawMaintenance 0
scalar OsgEarthNet.uav[10] utilizationCountMissions 48
scalar OsgEarthNet.uav[10] utilizationCountManeuversMission 395
scalar OsgEarthNet.uav[10] utilizationCountManeuversMaintenance 96
scalar OsgEarthNet.uav[10] utilizationCountChargeState 48
scalar OsgEarthNet.uav[10] utilizationCountOverdrawnAfterMission 0
scalar OsgEarthNet.uav[10] utilizationCountIdleState 48
scalar OsgEarthNet.uav[10] utilizationFail 0
scalar OsgEarthNet.uav[10] simulationTime 259200
scalar OsgEarthNet.uav[11] utilizationSecMission 17215.85467527
scalar OsgEarthNet.uav[11] utilizationSecMaintenance 8563.0951235194
scalar OsgEarthNet.uav[11] utilizationSecCharge 102900
scalar OsgEarthNet.uav[11] utilizationSecIdle 130521.04920121
scalar OsgEarthNet.uav[11] utilizationEnergyMission 80109.618202209
scalar OsgEarthNet.uav[11] utilizationEnergyMaintenance 40868.739974976
scalar OsgEarthNet.uav[11] utilizationEnergyCharge 121080.64111328
scalar OsgEarthNet.uav[11] utilizationEnergyOverdrawMission 0
scalar OsgEarthNet.uav[11] utilizationEnergyOverdrawMaintenance 0
scalar OsgEarthNet.uav[11] utilizationCountMissions 33
scalar OsgEarthNet.uav[11] utilizationCountManeuversMission 282
scalar OsgEarthNet.uav[11] utilizationCountManeuversMaintenance 66
scalar OsgEarthNet.uav[11] utilizationCountChargeState 33
scalar OsgEarthNet.uav[11] utilizationCountOverdrawnAfterMission 0
scalar OsgEarthNet.uav[11] utilizationCountIdleState 34
scalar OsgEarthNet.uav[11] utilizationFail 0
scalar OsgEarthNet.uav[11] simulationTime 259200
scalar OsgEarthNet.uav[12] utilizationSecMission 21397.630244738
scalar OsgEarthNet.uav[12] utilizationSecMaintenance 11247.855284436
scalar OsgEarthNet.uav[12] utilizationSecCharge 127580
scalar OsgEarthNet.uav[12] utilizationSecIdle 98974.513470825
scalar OsgEarthNet.uav[12] utilizationEnergyMission 98053.315635681
scalar OsgEarthNet.uav[12] utilizationEnergyMaintenance 53333.359657288
scalar OsgEarthNet.uav[12] utilizationEnergyCharge 151710.00024414
scalar OsgEarthNet.uav[12] utilizationEnergyOverdrawMission 0
scalar OsgEarthNet.uav[12] utilizationEnergyOverdrawMaintenance 0
scalar OsgEarthNet.uav[12] utilizationCountMissions 40
scalar OsgEarthNet.uav[12] utilizationCountManeuversMission 355
scalar OsgEarthNet.uav[12] utilizationCountManeuversMaintenance 80
scalar OsgEarthNet.uav[12] utilizationCountChargeState 40
scalar OsgEarthNet.uav[12] utilizationCountOverdrawnAfterMission 0
scalar OsgEarthNet.uav[12] utilizationCountIdleState 41
scalar OsgEarthNet.uav[12] utilizationFail 0
scalar OsgEarthNet.uav[12] simulationTime 259200
scalar OsgEarthNet.uav[13] utilizationSecMission 570.98871244881
scalar OsgEarthNet.uav[13] utilizationSecMaintenance 276.2282017063
scalar OsgEarthNet.uav[13] utilizationSecCharge 3480
scalar OsgEarthNet.uav[13] utilizationSecIdle 254872.78208584
scalar OsgEarthNet.uav[13] utilizationEnergyMission 2871.7195587158
scalar OsgEarthNet.uav[13] utilizationEnergyMaintenance 1418.2388725281
scalar OsgEarthNet.uav[13] utilizationEnergyCharge 4289.9599609375
scalar OsgEarthNet.uav[13] utilizationEnergyOverdrawMission 0
scalar OsgEarthNet.uav[13] utilizationEnergyOverdrawMaintenance 0
scalar OsgEarthNet.uav[13] utilizationCountMissions 1
scalar OsgEarthNet.uav[13] utilizationCountManeuversMission 8
scalar OsgEarthNet.uav[13] utilizationCountManeuversMaintenance 2
scalar OsgEarthNet.uav[13] utilizationCountChargeState 1
scalar OsgEarthNet.uav[13] utilizationCountOverdrawnAfterMission 0
scalar OsgEarthNet.uav[13] utilizationCountIdleState 2
scalar OsgEarthNet.uav[13] utilizationFail 0
scalar OsgEarthNet.uav[13] simulationTime 259200
scalar OsgEarthNet.uav[14] utilizationSecMission 23.329233930829
scalar OsgEarthNet.uav[14] utilizationSecMaintenance 636.50021886036
scalar OsgEarthNet.uav[14] utilizationSecCharge 2820
scalar OsgEarthNet.uav[14] utilizationSecIdle 255720.16954721
scalar OsgEarthNet.uav[14] utilizationEnergyMission 113.01573181152
scalar OsgEarthNet.uav[14] utilizationEnergyMaintenance 3042.3838424683
scalar OsgEarthNet.uav[14] utilizationEnergyCharge 3155.4067382812
scalar OsgEarthNet.uav[14] utilizationEnergyOverdrawMission 0
scalar OsgEarthNet.uav[14] utilizationEnergyOverdrawMaintenance 0
scalar OsgEarthNet.uav[14] utilizationCountMissions 1
scalar OsgEarthNet.uav[14] utilizationCountManeuversMission 1
scalar OsgEarthNet.uav[14] utilizationCountManeuversMaintenance 2
scalar OsgEarthNet.uav[14] utilizationCountChargeState 1
scalar OsgEarthNet.uav[14] utilizationCountOverdrawnAfterMission 0
scalar OsgEarthNet.uav[14] utilizationCountIdleState 2
scalar OsgEarthNet.uav[14] utilizationFail 0
scalar OsgEarthNet.uav[14] simulationTime 259200
scalar OsgEarthNet.uav[15] utilizationSecMission 694.00169469977
scalar OsgEarthNet.uav[15] utilizationSecMaintenance 229.48898285212
scalar OsgEarthNet.uav[15] utilizationSecCharge 3710
scalar OsgEarthNet.uav[15] utilizationSecIdle 254566.50832245
scalar OsgEarthNet.uav[15] utilizationEnergyMission 3413.7749252319
scalar OsgEarthNet.uav[15] utilizationEnergyMaintenance 1215.9314193726
scalar OsgEarthNet.uav[15] utilizationEnergyCharge 4611.6166992188
scalar OsgEarthNet.uav[15] utilizationEnergyOverdrawMission 0
scalar OsgEarthNet.uav[15] utilizationEnergyOverdrawMaintenance 0
scalar OsgEarthNet.uav[15] utilizationCountMissions 1
scalar OsgEarthNet.uav[15] utilizationCountManeuversMission 13
scalar OsgEarthNet.uav[15] utilizationCountManeuversMaintenance 2
scalar OsgEarthNet.uav[15] utilizationCountChargeState 1
scalar OsgEarthNet.uav[15] utilizationCountOverdrawnAfterMission 0
scalar OsgEarthNet.uav[15] utilizationCountIdleState 2
scalar OsgEarthNet.uav[15] utilizationFail 0
scalar OsgEarthNet.uav[15] simulationTime 259200
scalar OsgEarthNet.uav[16] utilizationSecMission 4272.930319909
scalar OsgEarthNet.uav[16] utilizationSecMaintenance 2116.1948001557
scalar OsgEarthNet.uav[16] utilizationSecCharge 24090
scalar OsgEarthNet.uav[16] utilizationSecIdle 228720.87387994
scalar OsgEarthNet.uav[16] utilizationEnergyMission 19651.942947388
scalar OsgEarthNet.uav[16] utilizationEnergyMaintenance 10115.080188751
scalar OsgEarthNet.uav[16] utilizationEnergyCharge 29829.250244141
scalar OsgEarthNet.uav[16] utilizationEnergyOverdrawMission 0
scalar OsgEarthNet.uav[16] utilizationEnergyOverdrawMaintenance 0
scalar OsgEarthNet.uav[16] utilizationCountMissions 7
scalar OsgEarthNet.uav[16] utilizationCountManeuversMission 65
scalar OsgEarthNet.uav[16] utilizationCountManeuversMaintenance 14
scalar OsgEarthNet.uav[16] utilizationCountChargeState 7
scalar OsgEarthNet.uav[16] utilizationCountOverdrawnAfterMission 0
scalar OsgEarthNet.uav[16] utilizationCountIdleState 8
scalar OsgEarthNet.uav[16] utilizationFail 0
scalar OsgEarthNet.uav[16] simulationTime 259200
scalar OsgEarthNet.uav[17] utilizationSecMission 25140.993007641
scalar OsgEarthNet.uav[17] utilizationSecMaintenance 13641.182452421
scalar OsgEarthNet.uav[17] utilizationSecCharge 155083.1178409
scalar OsgEarthNet.uav[17] utilizationSecIdle 65334.705699036
scalar OsgEarthNet.uav[17] utilizationEnergyMission 116688.06113434
scalar OsgEarthNet.uav[17] utilizationEnergyMaintenance 63885.449012756
scalar OsgEarthNet.uav[17] utilizationEnergyCharge 180973.94970703
scalar OsgEarthNet.uav[17] utilizationEnergyOverdrawMission 0
scalar OsgEarthNet.uav[17] utilizationEnergyOverdrawMaintenance 0
scalar OsgEarthNet.uav[17] utilizationCountMissions 51
scalar OsgEarthNet.uav[17] utilizationCountManeuversMission 409
scalar OsgEarthNet.uav[17] utilizationCountManeuversMaintenance 102
scalar OsgEarthNet.uav[17] utilizationCountChargeState 51
scalar OsgEarthNet.uav[17] utilizationCountOverdrawnAfterMission 0
scalar OsgEarthNet.uav[17] utilizationCountIdleState 51
scalar OsgEarthNet.uav[17] utilizationFail 0
scalar OsgEarthNet.uav[17] simulationTime 259200
scalar OsgEarthNet.uav[18] utilizationSecMission 570.98871244881
scalar OsgEarthNet.uav[18] utilizationSecMaintenance 295.50253239167
scalar OsgEarthNet.uav[18] utilizationSecCharge 3400
scalar OsgEarthNet.uav[18] utilizationSecIdle 254933.50775516
scalar OsgEarthNet.uav[18] utilizationEnergyMission 2825.3849029541
scalar OsgEarthNet.uav[18] utilizationEnergyMaintenance 1241.9704704285
scalar OsgEarthNet.uav[18] utilizationEnergyCharge 4067.3510742188
scalar OsgEarthNet.uav[18] utilizationEnergyOverdrawMission 0
scalar OsgEarthNet.uav[18] utilizationEnergyOverdrawMaintenance 0
scalar OsgEarthNet.uav[18] utilizationCountMissions 1
scalar OsgEarthNet.uav[18] utilizationCountManeuversMission 8
scalar OsgEarthNet.uav[18] utilizationCountManeuversMaintenance 2
scalar OsgEarthNet.uav[18] utilizationCountChargeState 1
scalar OsgEarthNet.uav[18] utilizationCountOverdrawnAfterMission 0
scalar OsgEarthNet.uav[18] utilizationCountIdleState 2
scalar OsgEarthNet.uav[18] utilizationFail 0
scalar OsgEarthNet.uav[18] simulationTime 259200
scalar OsgEarthNet.uav[19] utilizationSecMission 570.98871244881
scalar OsgEarthNet.uav[19] utilizationSecMaintenance 276.2282017063
scalar OsgEarthNet.uav[19] utilizationSecCharge 3350
scalar OsgEarthNet.uav[19] utilizationSecIdle 255002.78208584
scalar OsgEarthNet.uav[19] utilizationEnergyMission 2910.0246734619
scalar OsgEarthNet.uav[19] utilizationEnergyMaintenance 1205.3267936707
scalar OsgEarthNet.uav[19] utilizationEnergyCharge 4115.3491210938
scalar OsgEarthNet.uav[19] utilizationEnergyOverdrawMission 0
scalar OsgEarthNet.uav[19] utilizationEnergyOverdrawMaintenance 0
scalar OsgEarthNet.uav[19] utilizationCountMissions 1
scalar OsgEarthNet.uav[19] utilizationCountManeuversMission 8
scalar OsgEarthNet.uav[19] utilizationCountManeuversMaintenance 2
scalar OsgEarthNet.uav[19] utilizationCountChargeState 1
scalar OsgEarthNet.uav[19] utilizationCountOverdrawnAfterMission 0
scalar OsgEarthNet.uav[19] utilizationCountIdleState 2
scalar OsgEarthNet.uav[19] utilizationFail 0
scalar OsgEarthNet.uav[19] simulationTime 259200
scalar OsgEarthNet.uav[20] utilizationSecMission 12809.564441395
scalar OsgEarthNet.uav[20] utilizationSecMaintenance 6220.245255608
scalar OsgEarthNet.uav[20] utilizationSecCharge 77550
scalar OsgEarthNet.uav[20] utilizationSecIdle 162620.189303
scalar OsgEarthNet.uav[20] utilizationEnergyMission 59588.551521301
scalar OsgEarthNet.uav[20] utilizationEnergyMaintenance 29541.897266388
scalar OsgEarthNet.uav[20] utilizationEnergyCharge 89277.990234375
scalar OsgEarthNet.uav[20] utilizationEnergyOverdrawMission 0
scalar OsgEarthNet.uav[20] utilizationEnergyOverdrawMaintenance 0
scalar OsgEarthNet.uav[20] utilizationCountMissions 26
scalar OsgEarthNet.uav[20] utilizationCountManeuversMission 208
scalar OsgEarthNet.uav[20] utilizationCountManeuversMaintenance 52
scalar OsgEarthNet.uav[20] utilizationCountChargeState 26
scalar OsgEarthNet.uav[20] utilizationCountOverdrawnAfterMission 0
scalar OsgEarthNet.uav[20] utilizationCountIdleState 27
scalar OsgEarthNet.uav[20] utilizationFail 0
scalar OsgEarthNet.uav[20] simulationTime 259200
scalar OsgEarthNet.uav[21] utilizationSecMission 14013.321061619
scalar OsgEarthNet.uav[21] utilizationSecMaintenance 6750.289676078
scalar OsgEarthNet.uav[21] utilizationSecCharge 78058.749999052
scalar OsgEarthNet.uav[21] utilizationSecIdle 160377.63826325
scalar OsgEarthNet.uav[21] utilizationEnergyMission 64869.86051178
scalar OsgEarthNet.uav[21] utilizationEnergyMaintenance 32148.689369202
scalar OsgEarthNet.uav[21] utilizationEnergyCharge 93832.127319336
scalar OsgEarthNet.uav[21] utilizationEnergyOverdrawMission 0
scalar OsgEarthNet.uav[21] utilizationEnergyOverdrawMaintenance 0
scalar OsgEarthNet.uav[21] utilizationCountMissions 25
scalar OsgEarthNet.uav[21] utilizationCountManeuversMission 220
scalar OsgEarthNet.uav[21] utilizationCountManeuversMaintenance 50
scalar OsgEarthNet.uav[21] utilizationCountChargeState 25
scalar OsgEarthNet.uav[21] utilizationCountOverdrawnAfterMission 0
scalar OsgEarthNet.uav[21] utilizationCountIdleState 25
scalar OsgEarthNet.uav[21] utilizationFail 0
scalar OsgEarthNet.uav[21] simulationTime 259200
scalar OsgEarthNet.uav[22] utilizationSecMission 570.98871244881
scalar OsgEarthNet.uav[22] utilizationSecMaintenance 295.50253239167
scalar OsgEarthNet.uav[22] utilizationSecCharge 3420
scalar OsgEarthNet.uav[22] utilizationSecIdle 254913.50775516
scalar OsgEarthNet.uav[22] utilizationEnergyMission 2765.651473999
scalar OsgEarthNet.uav[22] utilizationEnergyMaintenance 1431.3693351746
scalar OsgEarthNet.uav[22] utilizationEnergyCharge 4197.0185546875
scalar OsgEarthNet.uav[22] utilizationEnergyOverdrawMission 0
scalar OsgEarthNet.uav[22] utilizationEnergyOverdrawMaintenance 0
scalar OsgEarthNet.uav[22] utilizationCountMissions 1
scalar OsgEarthNet.uav[22] utilizationCountManeuversMission 8
scalar OsgEarthNet.uav[22] utilizationCountManeuversMaintenance 2
scalar OsgEarthNet.uav[22] utilizationCountChargeState 1
scalar OsgEarthNet.uav[22] utilizationCountOverdrawnAfterMission 0
scalar OsgEarthNet.uav[22] utilizationCountIdleState 2
scalar OsgEarthNet.uav[22] utilizationFail 0
scalar OsgEarthNet.uav[22] simulationTime 259200
scalar OsgEarthNet.uav[23] utilizationSecMission 22018.734437321
scalar OsgEarthNet.uav[23] utilizationSecMaintenance 11332.127178083
scalar OsgEarthNet.uav[23] utilizationSecCharge 130284.48993254
scalar OsgEarthNet.uav[23] utilizationSecIdle 95564.647452058
scalar OsgEarthNet.uav[23] utilizationEnergyMission 101451.48166656
scalar OsgEarthNet.uav[23] utilizationEnergyMaintenance 53873.222576141
scalar OsgEarthNet.uav[23] utilizationEnergyCharge 153170.63867188
scalar OsgEarthNet.uav[23] utilizationEnergyOverdrawMission 0
scalar OsgEarthNet.uav[23] utilizationEnergyOverdrawMaintenance 0
scalar OsgEarthNet.uav[23] utilizationCountMissions 43
scalar OsgEarthNet.uav[23] utilizationCountManeuversMission 355
scalar OsgEarthNet.uav[23] utilizationCountManeuversMaintenance 86
scalar OsgEarthNet.uav[23] utilizationCountChargeState 43
scalar OsgEarthNet.uav[23] utilizationCountOverdrawnAfterMission 0
scalar OsgEarthNet.uav[23] utilizationCountIdleState 43
scalar OsgEarthNet.uav[23] utilizationFail 0
scalar OsgEarthNet.uav[23] simulationTime 259200
scalar OsgEarthNet.uav[24] utilizationSecMission 2758.8020757585
scalar OsgEarthNet.uav[24] utilizationSecMaintenance 778.12138193839
scalar OsgEarthNet.uav[24] utilizationSecCharge 13310
scalar OsgEarthNet.uav[24] utilizationSecIdle 242353.0755423
scalar OsgEarthNet.uav[24] utilizationEnergyMission 12540.140106201
scalar OsgEarthNet.uav[24] utilizationEnergyMaintenance 3633.6704673767
scalar OsgEarthNet.uav[24] utilizationEnergyCharge 16208.335449219
scalar OsgEarthNet.uav[24] utilizationEnergyOverdrawMission 0
scalar OsgEarthNet.uav[24] utilizationEnergyOverdrawMaintenance 0
scalar OsgEarthNet.uav[24] utilizationCountMissions 4
scalar OsgEarthNet.uav[24] utilizationCountManeuversMission 46
scalar OsgEarthNet.uav[24] utilizationCountManeuversMaintenance 8
scalar OsgEarthNet.uav[24] utilizationCountChargeState 4
scalar OsgEarthNet.uav[24] utilizationCountOverdrawnAfterMission 0
scalar OsgEarthNet.uav[24] utilizationCountIdleState 5
scalar OsgEarthNet.uav[24] utilizationFail 0
scalar OsgEarthNet.uav[24] simulationTime 259200
scalar OsgEarthNet.uav[25] utilizationSecMission 694.00169469977
scalar OsgEarthNet.uav[25] utilizationSecMaintenance 229.48898285212
scalar OsgEarthNet.uav[25] utilizationSecCharge 3480
scalar OsgEarthNet.uav[25] utilizationSecIdle 254796.50832245
scalar OsgEarthNet.uav[25] utilizationEnergyMission 3211.7161598206
scalar OsgEarthNet.uav[25] utilizationEnergyMaintenance 967.44585418701
scalar OsgEarthNet.uav[25] utilizationEnergyCharge 4287.5883789062
scalar OsgEarthNet.uav[25] utilizationEnergyOverdrawMission 0
scalar OsgEarthNet.uav[25] utilizationEnergyOverdrawMaintenance 0
scalar OsgEarthNet.uav[25] utilizationCountMissions 1
scalar OsgEarthNet.uav[25] utilizationCountManeuversMission 13
scalar OsgEarthNet.uav[25] utilizationCountManeuversMaintenance 2
scalar OsgEarthNet.uav[25] utilizationCountChargeState 1
scalar OsgEarthNet.uav[25] utilizationCountOverdrawnAfterMission 0
scalar OsgEarthNet.uav[25] utilizationCountIdleState 2
scalar OsgEarthNet.uav[25] utilizationFail 0
scalar OsgEarthNet.uav[25] simulationTime 259200
scalar OsgEarthNet.uav[26] utilizationSecMission 760.62515258028
scalar OsgEarthNet.uav[26] utilizationSecMaintenance 245.74410321072
scalar OsgEarthNet.uav[26] utilizationSecCharge 3450
scalar OsgEarthNet.uav[26] utilizationSecIdle 254743.62974421
scalar OsgEarthNet.uav[26] utilizationEnergyMission 3143.5844497681
scalar OsgEarthNet.uav[26] utilizationEnergyMaintenance 1103.38123703
scalar OsgEarthNet.uav[26] utilizationEnergyCharge 4246.9697265625
scalar OsgEarthNet.uav[26] utilizationEnergyOverdrawMission 0
scalar OsgEarthNet.uav[26] utilizationEnergyOverdrawMaintenance 0
scalar OsgEarthNet.uav[26] utilizationCountMissions 1
scalar OsgEarthNet.uav[26] utilizationCountManeuversMission 12
scalar OsgEarthNet.uav[26] utilizationCountManeuversMaintenance 2
scalar OsgEarthNet.uav[26] utilizationCountChargeState 1
scalar OsgEarthNet.uav[26] utilizationCountOverdrawnAfterMission 0
scalar OsgEarthNet.uav[26] utilizationCountIdleState 2
scalar OsgEarthNet.uav[26] utilizationFail 0
scalar OsgEarthNet.uav[26] simulationTime 259200
scalar OsgEarthNet.uav[27] utilizationSecMission 23413.696489892
scalar OsgEarthNet.uav[27] utilizationSecMaintenance 11406.244985075
scalar OsgEarthNet.uav[27] utilizationSecCharge 137100.03725089
scalar OsgEarthNet.uav[27] utilizationSecIdle 87280.020274145
scalar OsgEarthNet.uav[27] utilizationEnergyMission 108726.33569336
scalar OsgEarthNet.uav[27] utilizationEnergyMaintenance 53294.238643646
scalar OsgEarthNet.uav[27] utilizationEnergyCharge 159621.56616211
scalar OsgEarthNet.uav[27] utilizationEnergyOverdrawMission 0
scalar OsgEarthNet.uav[27] utilizationEnergyOverdrawMaintenance 0
scalar OsgEarthNet.uav[27] utilizationCountMissions 46
scalar OsgEarthNet.uav[27] utilizationCountManeuversMission 397
scalar OsgEarthNet.uav[27] utilizationCountManeuversMaintenance 92
scalar OsgEarthNet.uav[27] utilizationCountChargeState 46
scalar OsgEarthNet.uav[27] utilizationCountOverdrawnAfterMission 0
scalar OsgEarthNet.uav[27] utilizationCountIdleState 46
scalar OsgEarthNet.uav[27] utilizationFail 0
scalar OsgEarthNet.uav[27] simulationTime 259200
scalar OsgEarthNet.uav[28] utilizationSecMission 694.00169469977
scalar OsgEarthNet.uav[28] utilizationSecMaintenance 229.48898285212
scalar OsgEarthNet.uav[28] utilizationSecCharge 3460
scalar OsgEarthNet.uav[28] utilizationSecIdle 254816.50832245
scalar OsgEarthNet.uav[28] utilizationEnergyMission 3289.3494262695
scalar OsgEarthNet.uav[28] utilizationEnergyMaintenance 1014.6335983276
scalar OsgEarthNet.uav[28] utilizationEnergyCharge 4190.8422851562
scalar OsgEarthNet.uav[28] utilizationEnergyOverdrawMission 0
scalar OsgEarthNet.uav[28] utilizationEnergyOverdrawMaintenance 0
scalar OsgEarthNet.uav[28] utilizationCountMissions 1
scalar OsgEarthNet.uav[28] utilizationCountManeuversMission 13
scalar OsgEarthNet.uav[28] utilizationCountManeuversMaintenance 2
scalar OsgEarthNet.uav[28] utilizationCountChargeState 1
scalar OsgEarthNet.uav[28] utilizationCountOverdrawnAfterMission 0
scalar OsgEarthNet.uav[28] utilizationCountIdleState 2
scalar OsgEarthNet.uav[28] utilizationFail 0
scalar OsgEarthNet.uav[28] simulationTime 259200
scalar OsgEarthNet.uav[29] utilizationSecMission 857.08785009503
scalar OsgEarthNet.uav[29] utilizationSecMaintenance 635.83483011771
scalar OsgEarthNet.uav[29] utilizationSecCharge 6110
scalar OsgEarthNet.uav[29] utilizationSecIdle 251597.07631979
scalar OsgEarthNet.uav[29] utilizationEnergyMission 3888.9358215332
scalar OsgEarthNet.uav[29] utilizationEnergyMaintenance 3220.1468505859
scalar OsgEarthNet.uav[29] utilizationEnergyCharge 7079.9321289062
scalar OsgEarthNet.uav[29] utilizationEnergyOverdrawMission 0
scalar OsgEarthNet.uav[29] utilizationEnergyOverdrawMaintenance 0
scalar OsgEarthNet.uav[29] utilizationCountMissions 2
scalar OsgEarthNet.uav[29] utilizationCountManeuversMission 12
scalar OsgEarthNet.uav[29] utilizationCountManeuversMaintenance 4
scalar OsgEarthNet.uav[29] utilizationCountChargeState 2
scalar OsgEarthNet.uav[29] utilizationCountOverdrawnAfterMission 0
scalar OsgEarthNet.uav[29] utilizationCountIdleState 3
scalar OsgEarthNet.uav[29] utilizationFail 0
scalar OsgEarthNet.uav[29] simulationTime 259200
scalar OsgEarthNet.uav[30] utilizationSecMission 443.5870541303
scalar OsgEarthNet.uav[30] utilizationSecMaintenance 425.80795651079
scalar OsgEarthNet.uav[30] utilizationSecCharge 3280
scalar OsgEarthNet.uav[30] utilizationSecIdle 255050.60398936
scalar OsgEarthNet.uav[30] utilizationEnergyMission 1913.9682769775
scalar OsgEarthNet.uav[30] utilizationEnergyMaintenance 2001.3587303162
scalar OsgEarthNet.uav[30] utilizationEnergyCharge 3957.39453125
scalar OsgEarthNet.uav[30] utilizationEnergyOverdrawMission 0
scalar OsgEarthNet.uav[30] utilizationEnergyOverdrawMaintenance 0
scalar OsgEarthNet.uav[30] utilizationCountMissions 1
scalar OsgEarthNet.uav[30] utilizationCountManeuversMission 7
scalar OsgEarthNet.uav[30] utilizationCountManeuversMaintenance 2
scalar OsgEarthNet.uav[30] utilizationCountChargeState 1
scalar OsgEarthNet.uav[30] utilizationCountOverdrawnAfterMission 0
scalar OsgEarthNet.uav[30] utilizationCountIdleState 2
scalar OsgEarthNet.uav[30] utilizationFail 0
scalar OsgEarthNet.uav[30] simulationTime 259200
scalar OsgEarthNet.uav[31] utilizationSecMission 682.94783150361
scalar OsgEarthNet.uav[31] utilizationSecMaintenance 228.1606024445
scalar OsgEarthNet.uav[31] utilizationSecCharge 3380
scalar OsgEarthNet.uav[31] utilizationSecIdle 254908.89056605
scalar OsgEarthNet.uav[31] utilizationEnergyMission 2919.2149200439
scalar OsgEarthNet.uav[31] utilizationEnergyMaintenance 1203.9247665405
scalar OsgEarthNet.uav[31] utilizationEnergyCharge 4123.1416015625
scalar OsgEarthNet.uav[31] utilizationEnergyOverdrawMission 0
scalar OsgEarthNet.uav[31] utilizationEnergyOverdrawMaintenance 0
scalar OsgEarthNet.uav[31] utilizationCountMissions 1
scalar OsgEarthNet.uav[31] utilizationCountManeuversMission 12
scalar OsgEarthNet.uav[31] utilizationCountManeuversMaintenance 2
scalar OsgEarthNet.uav[31] utilizationCountChargeState 1
scalar OsgEarthNet.uav[31] utilizationCountOverdrawnAfterMission 0
scalar OsgEarthNet.uav[31] utilizationCountIdleState 2
scalar OsgEarthNet.uav[31] utilizationFail 0
scalar OsgEarthNet.uav[31] simulationTime 259200
scalar OsgEarthNet.uav[32] utilizationSecMission 887.1741082606
scalar OsgEarthNet.uav[32] utilizationSecMaintenance 125.81102573108
scalar OsgEarthNet.uav[32] utilizationSecCharge 3580
scalar OsgEarthNet.uav[32] utilizationSecIdle 254607.01386601
scalar OsgEarthNet.uav[32] utilizationEnergyMission 4199.3697357178
scalar OsgEarthNet.uav[32] utilizationEnergyMaintenance 580.00263214112
scalar OsgEarthNet.uav[32] utilizationEnergyCharge 4476.2387695312
scalar OsgEarthNet.uav[32] utilizationEnergyOverdrawMission 0
scalar OsgEarthNet.uav[32] utilizationEnergyOverdrawMaintenance 0
scalar OsgEarthNet.uav[32] utilizationCountMissions 1
scalar OsgEarthNet.uav[32] utilizationCountManeuversMission 14
scalar OsgEarthNet.uav[32] utilizationCountManeuversMaintenance 2
scalar OsgEarthNet.uav[32] utilizationCountChargeState 1
scalar OsgEarthNet.uav[32] utilizationCountOverdrawnAfterMission 0
scalar OsgEarthNet.uav[32] utilizationCountIdleState 2
scalar OsgEarthNet.uav[32] utilizationFail 0
scalar OsgEarthNet.uav[32] simulationTime 259200
scalar OsgEarthNet.uav[33] utilizationSecMission 760.62515258028
scalar OsgEarthNet.uav[33] utilizationSecMaintenance 245.74410321072
scalar OsgEarthNet.uav[33] utilizationSecCharge 3460
scalar OsgEarthNet.uav[33] utilizationSecIdle 254733.62974421
scalar OsgEarthNet.uav[33] utilizationEnergyMission 3269.9560089111
scalar OsgEarthNet.uav[33] utilizationEnergyMaintenance 1041.7430839539
scalar OsgEarthNet.uav[33] utilizationEnergyCharge 4311.6962890625
scalar OsgEarthNet.uav[33] utilizationEnergyOverdrawMission 0
scalar OsgEarthNet.uav[33] utilizationEnergyOverdrawMaintenance 0
scalar OsgEarthNet.uav[33] utilizationCountMissions 1
scalar OsgEarthNet.uav[33] utilizationCountManeuversMission 12
scalar OsgEarthNet.uav[33] utilizationCountManeuversMaintenance 2
scalar OsgEarthNet.uav[33] utilizationCountChargeState 1
scalar OsgEarthNet.uav[33] utilizationCountOverdrawnAfterMission 0
scalar OsgEarthNet.uav[33] utilizationCountIdleState 2
scalar OsgEarthNet.uav[33] utilizationFail 0
scalar OsgEarthNet.uav[33] simulationTime 259200
scalar OsgEarthNet.uav[34] utilizationSecMission 6214.7687722273
scalar OsgEarthNet.uav[34] utilizationSecMaintenance 4080.3987047793
scalar OsgEarthNet.uav[34] utilizationSecCharge 41470
scalar OsgEarthNet.uav[34] utilizationSecIdle 207434.83152299
scalar OsgEarthNet.uav[34] utilizationEnergyMission 28672.232055664
scalar OsgEarthNet.uav[34] utilizationEnergyMaintenance 19083.62518692
scalar OsgEarthNet.uav[34] utilizationEnergyCharge 47478.854003906
scalar OsgEarthNet.uav[34] utilizationEnergyOverdrawMission 0
scalar OsgEarthNet.uav[34] utilizationEnergyOverdrawMaintenance 0
scalar OsgEarthNet.uav[34] utilizationCountMissions 14
scalar OsgEarthNet.uav[34] utilizationCountManeuversMission 98
scalar OsgEarthNet.uav[34] utilizationCountManeuversMaintenance 28
scalar OsgEarthNet.uav[34] utilizationCountChargeState 14
scalar OsgEarthNet.uav[34] utilizationCountOverdrawnAfterMission 0
scalar OsgEarthNet.uav[34] utilizationCountIdleState 15
scalar OsgEarthNet.uav[34] utilizationFail 0
scalar OsgEarthNet.uav[34] simulationTime 259200
scalar OsgEarthNet.uav[35] utilizationSecMission 694.00169469977
scalar OsgEarthNet.uav[35] utilizationSecMaintenance 229.48898285212
scalar OsgEarthNet.uav[35] utilizationSecCharge 3580
scalar OsgEarthNet.uav[35] utilizationSecIdle 254696.50832245
scalar OsgEarthNet.uav[35] utilizationEnergyMission 3312.7907867432
scalar OsgEarthNet.uav[35] utilizationEnergyMaintenance 1149.7091293335
scalar OsgEarthNet.uav[35] utilizationEnergyCharge 4468.5434570312
scalar OsgEarthNet.uav[35] utilizationEnergyOverdrawMission 0
scalar OsgEarthNet.uav[35] utilizationEnergyOverdrawMaintenance 0
scalar OsgEarthNet.uav[35] utilizationCountMissions 1
scalar OsgEarthNet.uav[35] utilizationCountManeuversMission 13
scalar OsgEarthNet.uav[35] utilizationCountManeuversMaintenance 2
scalar OsgEarthNet.uav[35] utilizationCountChargeState 1
scalar OsgEarthNet.uav[35] utilizationCountOverdrawnAfterMission 0
scalar OsgEarthNet.uav[35] utilizationCountIdleState 2
scalar OsgEarthNet.uav[35] utilizationFail 0
scalar OsgEarthNet.uav[35] simulationTime 259200
scalar OsgEarthNet.uav[36] utilizationSecMission 20942.501911395
scalar OsgEarthNet.uav[36] utilizationSecMaintenance 9425.639546443
scalar OsgEarthNet.uav[36] utilizationSecCharge 111870.88093452
scalar OsgEarthNet.uav[36] utilizationSecIdle 116960.97660765
scalar OsgEarthNet.uav[36] utilizationEnergyMission 95741.572189331
scalar OsgEarthNet.uav[36] utilizationEnergyMaintenance 43047.91185379
scalar OsgEarthNet.uav[36] utilizationEnergyCharge 134881.56262207
scalar OsgEarthNet.uav[36] utilizationEnergyOverdrawMission 0
scalar OsgEarthNet.uav[36] utilizationEnergyOverdrawMaintenance 0
scalar OsgEarthNet.uav[36] utilizationCountMissions 35
scalar OsgEarthNet.uav[36] utilizationCountManeuversMission 337
scalar OsgEarthNet.uav[36] utilizationCountManeuversMaintenance 70
scalar OsgEarthNet.uav[36] utilizationCountChargeState 35
scalar OsgEarthNet.uav[36] utilizationCountOverdrawnAfterMission 0
scalar OsgEarthNet.uav[36] utilizationCountIdleState 35
scalar OsgEarthNet.uav[36] utilizationFail 0
scalar OsgEarthNet.uav[36] simulationTime 259200
scalar OsgEarthNet.uav[37] utilizationSecMission 5704.3624728437
scalar OsgEarthNet.uav[37] utilizationSecMaintenance 4091.6461677482
scalar OsgEarthNet.uav[37] utilizationSecCharge 40650
scalar OsgEarthNet.uav[37] utilizationSecIdle 208753.99035941
scalar OsgEarthNet.uav[37] utilizationEnergyMission 25754.854370117
scalar OsgEarthNet.uav[37] utilizationEnergyMaintenance 20655.056950371
scalar OsgEarthNet.uav[37] utilizationEnergyCharge 46151.103515625
scalar OsgEarthNet.uav[37] utilizationEnergyOverdrawMission 0
scalar OsgEarthNet.uav[37] utilizationEnergyOverdrawMaintenance 0
scalar OsgEarthNet.uav[37] utilizationCountMissions 14
scalar OsgEarthNet.uav[37] utilizationCountManeuversMission 95
scalar OsgEarthNet.uav[37] utilizationCountManeuversMaintenance 29
scalar OsgEarthNet.uav[37] utilizationCountChargeState 14
scalar OsgEarthNet.uav[37] utilizationCountOverdrawnAfterMission 0
scalar OsgEarthNet.uav[37] utilizationCountIdleState 15
scalar OsgEarthNet.uav[37] utilizationFail 0
scalar OsgEarthNet.uav[37] simulationTime 259200
scalar OsgEarthNet.uav[38] utilizationSecMission 21971.750528555
scalar OsgEarthNet.uav[38] utilizationSecMaintenance 14073.536597109
scalar OsgEarthNet.uav[38] utilizationSecCharge 145080
scalar OsgEarthNet.uav[38] utilizationSecIdle 78074.711874335
scalar OsgEarthNet.uav[38] utilizationEnergyMission 102403.45718596
scalar OsgEarthNet.uav[38] utilizationEnergyMaintenance 66142.648262024
scalar OsgEarthNet.uav[38] utilizationEnergyCharge 166087.22729492
scalar OsgEarthNet.uav[38] utilizationEnergyOverdrawMission 0
scalar OsgEarthNet.uav[38] utilizationEnergyOverdrawMaintenance 0
scalar OsgEarthNet.uav[38] utilizationCountMissions 49
scalar OsgEarthNet.uav[38] utilizationCountManeuversMission 357
scalar OsgEarthNet.uav[38] utilizationCountManeuversMaintenance 99
scalar OsgEarthNet.uav[38] utilizationCountChargeState 49
scalar OsgEarthNet.uav[38] utilizationCountOverdrawnAfterMission 0
scalar OsgEarthNet.uav[38] utilizationCountIdleState 50
scalar OsgEarthNet.uav[38] utilizationFail 0
scalar OsgEarthNet.uav[38] simulationTime 259200
scalar OsgEarthNet.uav[39] utilizationSecMission 17763.612713224
scalar OsgEarthNet.uav[39] utilizationSecMaintenance 7444.4551576288
scalar OsgEarthNet.uav[39] utilizationSecCharge 96710
scalar OsgEarthNet.uav[39] utilizationSecIdle 137281.93112915
scalar OsgEarthNet.uav[39] utilizationEnergyMission 81071.348348768
scalar OsgEarthNet.uav[39] utilizationEnergyMaintenance 34372.640300751
scalar OsgEarthNet.uav[39] utilizationEnergyCharge 115621.32324219
scalar OsgEarthNet.uav[39] utilizationEnergyOverdrawMission 0
scalar OsgEarthNet.uav[39] utilizationEnergyOverdrawMaintenance 0
scalar OsgEarthNet.uav[39] utilizationCountMissions 30
scalar OsgEarthNet.uav[39] utilizationCountManeuversMission 291
scalar OsgEarthNet.uav[39] utilizationCountManeuversMaintenance 61
scalar OsgEarthNet.uav[39] utilizationCountChargeState 30
scalar OsgEarthNet.uav[39] utilizationCountOverdrawnAfterMission 0
scalar OsgEarthNet.uav[39] utilizationCountIdleState 31
scalar OsgEarthNet.uav[39] utilizationFail 0
scalar OsgEarthNet.uav[39] simulationTime 259200
scalar OsgEarthNet.uav[40] utilizationSecMission 750.20472747826
scalar OsgEarthNet.uav[40] utilizationSecMaintenance 261.68051383311
scalar OsgEarthNet.uav[40] utilizationSecCharge 3680
scalar OsgEarthNet.uav[40] utilizationSecIdle 254508.11375869
scalar OsgEarthNet.uav[40] utilizationEnergyMission 3439.3708953857
scalar OsgEarthNet.uav[40] utilizationEnergyMaintenance 1239.8651237488
scalar OsgEarthNet.uav[40] utilizationEnergyCharge 4679.2329101562
scalar OsgEarthNet.uav[40] utilizationEnergyOverdrawMission 0
scalar OsgEarthNet.uav[40] utilizationEnergyOverdrawMaintenance 0
scalar OsgEarthNet.uav[40] utilizationCountMissions 1
scalar OsgEarthNet.uav[40] utilizationCountManeuversMission 11
scalar OsgEarthNet.uav[40] utilizationCountManeuversMaintenance 2
scalar OsgEarthNet.uav[40] utilizationCountChargeState 1
scalar OsgEarthNet.uav[40] utilizationCountOverdrawnAfterMission 0
scalar OsgEarthNet.uav[40] utilizationCountIdleState 2
scalar OsgEarthNet.uav[40] utilizationFail 0
scalar OsgEarthNet.uav[40] simulationTime 259200
scalar OsgEarthNet.uav[41] utilizationSecMission 23.329233930829
scalar OsgEarthNet.uav[41] utilizationSecMaintenance 636.50021886036
scalar OsgEarthNet.uav[41] utilizationSecCharge 2780
scalar OsgEarthNet.uav[41] utilizationSecIdle 255760.16954721
scalar OsgEarthNet.uav[41] utilizationEnergyMission 91.007507324217
scalar OsgEarthNet.uav[41] utilizationEnergyMaintenance 2967.5790939331
scalar OsgEarthNet.uav[41] utilizationEnergyCharge 3058.587890625
scalar OsgEarthNet.uav[41] utilizationEnergyOverdrawMission 0
scalar OsgEarthNet.uav[41] utilizationEnergyOverdrawMaintenance 0
scalar OsgEarthNet.uav[41] utilizationCountMissions 1
scalar OsgEarthNet.uav[41] utilizationCountManeuversMission 1
scalar OsgEarthNet.uav[41] utilizationCountManeuversMaintenance 2
scalar OsgEarthNet.uav[41] utilizationCountChargeState 1
scalar OsgEarthNet.uav[41] utilizationCountOverdrawnAfterMission 0
scalar OsgEarthNet.uav[41] utilizationCountIdleState 2
scalar OsgEarthNet.uav[41] utilizationFail 0
scalar OsgEarthNet.uav[41] simulationTime 259200
scalar OsgEarthNet.uav[42] utilizationSecMission 24356.980227216
scalar OsgEarthNet.uav[42] utilizationSecMaintenance 9598.7661546668
scalar OsgEarthNet.uav[42] utilizationSecCharge 135220
scalar OsgEarthNet.uav[42] utilizationSecIdle 90024.252618117
scalar OsgEarthNet.uav[42] utilizationEnergyMission 112204.26411438
scalar OsgEarthNet.uav[42] utilizationEnergyMaintenance 45934.21950531
scalar OsgEarthNet.uav[42] utilizationEnergyCharge 158002.39599609
scalar OsgEarthNet.uav[42] utilizationEnergyOverdrawMission 0
scalar OsgEarthNet.uav[42] utilizationEnergyOverdrawMaintenance 0
scalar OsgEarthNet.uav[42] utilizationCountMissions 44
scalar OsgEarthNet.uav[42] utilizationCountManeuversMission 385
scalar OsgEarthNet.uav[42] utilizationCountManeuversMaintenance 88
scalar OsgEarthNet.uav[42] utilizationCountChargeState 44
scalar OsgEarthNet.uav[42] utilizationCountOverdrawnAfterMission 0
scalar OsgEarthNet.uav[42] utilizationCountIdleState 45
scalar OsgEarthNet.uav[42] utilizationFail 0
scalar OsgEarthNet.uav[42] simulationTime 259200
scalar OsgEarthNet.uav[43] utilizationSecMission 750.20472747826
scalar OsgEarthNet.uav[43] utilizationSecMaintenance 261.68051383311
scalar OsgEarthNet.uav[43] utilizationSecCharge 3600
scalar OsgEarthNet.uav[43] utilizationSecIdle 254588.11375869
scalar OsgEarthNet.uav[43] utilizationEnergyMission 3231.7348022461
scalar OsgEarthNet.uav[43] utilizationEnergyMaintenance 1330.2842826843
scalar OsgEarthNet.uav[43] utilizationEnergyCharge 4562.021484375
scalar OsgEarthNet.uav[43] utilizationEnergyOverdrawMission 0
scalar OsgEarthNet.uav[43] utilizationEnergyOverdrawMaintenance 0
scalar OsgEarthNet.uav[43] utilizationCountMissions 1
scalar OsgEarthNet.uav[43] utilizationCountManeuversMission 11
scalar OsgEarthNet.uav[43] utilizationCountManeuversMaintenance 2
scalar OsgEarthNet.uav[43] utilizationCountChargeState 1
scalar OsgEarthNet.uav[43] utilizationCountOverdrawnAfterMission 0
scalar OsgEarthNet.uav[43] utilizationCountIdleState 2
scalar OsgEarthNet.uav[43] utilizationFail 0
scalar OsgEarthNet.uav[43] simulationTime 259200
scalar OsgEarthNet.uav[44] utilizationSecMission 23.329233930829
scalar OsgEarthNet.uav[44] utilizationSecMaintenance 476.50021886036
scalar OsgEarthNet.uav[44] utilizationSecCharge 2470
scalar OsgEarthNet.uav[44] utilizationSecIdle 256230.16954721
scalar OsgEarthNet.uav[44] utilizationEnergyMission 107.92749786377
scalar OsgEarthNet.uav[44] utilizationEnergyMaintenance 2430.7077255249
scalar OsgEarthNet.uav[44] utilizationEnergyCharge 2538.6389160156
scalar OsgEarthNet.uav[44] utilizationEnergyOverdrawMission 0
scalar OsgEarthNet.uav[44] utilizationEnergyOverdrawMaintenance 0
scalar OsgEarthNet.uav[44] utilizationCountMissions 1
scalar OsgEarthNet.uav[44] utilizationCountManeuversMission 1
scalar OsgEarthNet.uav[44] utilizationCountManeuversMaintenance 2
scalar OsgEarthNet.uav[44] utilizationCountChargeState 1
scalar OsgEarthNet.uav[44] utilizationCountOverdrawnAfterMission 0
scalar OsgEarthNet.uav[44] utilizationCountIdleState 2
scalar OsgEarthNet.uav[44] utilizationFail 0
scalar OsgEarthNet.uav[44] simulationTime 259200
scalar OsgEarthNet.uav[45] utilizationSecMission 24101.561139397
scalar OsgEarthNet.uav[45] utilizationSecMaintenance 14746.133561998
scalar OsgEarthNet.uav[45] utilizationSecCharge 155310
scalar OsgEarthNet.uav[45] utilizationSecIdle 65042.304298605
scalar OsgEarthNet.uav[45] utilizationEnergyMission 111088.49208832
scalar OsgEarthNet.uav[45] utilizationEnergyMaintenance 69563.176849365
scalar OsgEarthNet.uav[45] utilizationEnergyCharge 180712.43701172
scalar OsgEarthNet.uav[45] utilizationEnergyOverdrawMission 0
scalar OsgEarthNet.uav[45] utilizationEnergyOverdrawMaintenance 0
scalar OsgEarthNet.uav[45] utilizationCountMissions 51
scalar OsgEarthNet.uav[45] utilizationCountManeuversMission 379
scalar OsgEarthNet.uav[45] utilizationCountManeuversMaintenance 102
scalar OsgEarthNet.uav[45] utilizationCountChargeState 51
scalar OsgEarthNet.uav[45] utilizationCountOverdrawnAfterMission 0
scalar OsgEarthNet.uav[45] utilizationCountIdleState 52
scalar OsgEarthNet.uav[45] utilizationFail 0
scalar OsgEarthNet.uav[45] simulationTime 259200
scalar OsgEarthNet.uav[46] utilizationSecMission 28094.018969538
scalar OsgEarthNet.uav[46] utilizationSecMaintenance 12902.472960201
scalar OsgEarthNet.uav[46] utilizationSecCharge 158987.33400359
scalar OsgEarthNet.uav[46] utilizationSecIdle 59216.173066668
scalar OsgEarthNet.uav[46] utilizationEnergyMission 131233.4258728
scalar OsgEarthNet.uav[46] utilizationEnergyMaintenance 60727.34633255
scalar OsgEarthNet.uav[46] utilizationEnergyCharge 190594.09350586
scalar OsgEarthNet.uav[46] utilizationEnergyOverdrawMission 0
scalar OsgEarthNet.uav[46] utilizationEnergyOverdrawMaintenance 0
scalar OsgEarthNet.uav[46] utilizationCountMissions 50
scalar OsgEarthNet.uav[46] utilizationCountManeuversMission 449
scalar OsgEarthNet.uav[46] utilizationCountManeuversMaintenance 100
scalar OsgEarthNet.uav[46] utilizationCountChargeState 50
scalar OsgEarthNet.uav[46] utilizationCountOverdrawnAfterMission 0
scalar OsgEarthNet.uav[46] utilizationCountIdleState 50
scalar OsgEarthNet.uav[46] utilizationFail 0
scalar OsgEarthNet.uav[46] simulationTime 259200
scalar OsgEarthNet.uav[47] utilizationSecMission 896.35009812453
scalar OsgEarthNet.uav[47] utilizationSecMaintenance 436.05208261933
scalar OsgEarthNet.uav[47] utilizationSecCharge 5560
scalar OsgEarthNet.uav[47] utilizationSecIdle 252307.59681926
scalar OsgEarthNet.uav[47] utilizationEnergyMission 3939.1052093506
scalar OsgEarthNet.uav[47] utilizationEnergyMaintenance 2214.278049469
scalar OsgEarthNet.uav[47] utilizationEnergyCharge 6153.37890625
scalar OsgEarthNet.uav[47] utilizationEnergyOverdrawMission 0
scalar OsgEarthNet.uav[47] utilizationEnergyOverdrawMaintenance 0
scalar OsgEarthNet.uav[47] utilizationCountMissions 2
scalar OsgEarthNet.uav[47] utilizationCountManeuversMission 15
scalar OsgEarthNet.uav[47] utilizationCountManeuversMaintenance 4
scalar OsgEarthNet.uav[47] utilizationCountChargeState 2
scalar OsgEarthNet.uav[47] utilizationCountOverdrawnAfterMission 0
scalar OsgEarthNet.uav[47] utilizationCountIdleState 3
scalar OsgEarthNet.uav[47] utilizationFail 0
scalar OsgEarthNet.uav[47] simulationTime 259200
scalar OsgEarthNet.uav[48] utilizationSecMission 15347.842470987
scalar OsgEarthNet.uav[48] utilizationSecMaintenance 5659.4098068148
scalar OsgEarthNet.uav[48] utilizationSecCharge 79496.324134758
scalar OsgEarthNet.uav[48] utilizationSecIdle 158696.42258744
scalar OsgEarthNet.uav[48] utilizationEnergyMission 72864.863952637
scalar OsgEarthNet.uav[48] utilizationEnergyMaintenance 25530.328262329
scalar OsgEarthNet.uav[48] utilizationEnergyCharge 96099.720214844
scalar OsgEarthNet.uav[48] utilizationEnergyOverdrawMission 0
scalar OsgEarthNet.uav[48] utilizationEnergyOverdrawMaintenance 0
scalar OsgEarthNet.uav[48] utilizationCountMissions 25
scalar OsgEarthNet.uav[48] utilizationCountManeuversMission 256
scalar OsgEarthNet.uav[48] utilizationCountManeuversMaintenance 50
scalar OsgEarthNet.uav[48] utilizationCountChargeState 25
scalar OsgEarthNet.uav[48] utilizationCountOverdrawnAfterMission 0
scalar OsgEarthNet.uav[48] utilizationCountIdleState 25
scalar OsgEarthNet.uav[48] utilizationFail 0
scalar OsgEarthNet.uav[48] simulationTime 259200
scalar OsgEarthNet.uav[49] utilizationSecMission 6647.7094314937
scalar OsgEarthNet.uav[49] utilizationSecMaintenance 4955.6137902705
scalar OsgEarthNet.uav[49] utilizationSecCharge 45490
scalar OsgEarthNet.uav[49] utilizationSecIdle 202106.67577824
scalar OsgEarthNet.uav[49] utilizationEnergyMission 30262.152839661
scalar OsgEarthNet.uav[49] utilizationEnergyMaintenance 22686.529037476
scalar OsgEarthNet.uav[49] utilizationEnergyCharge 52915.369628906
scalar OsgEarthNet.uav[49] utilizationEnergyOverdrawMission 0
scalar OsgEarthNet.uav[49] utilizationEnergyOverdrawMaintenance 0
scalar OsgEarthNet.uav[49] utilizationCountMissions 15
scalar OsgEarthNet.uav[49] utilizationCountManeuversMission 105
scalar OsgEarthNet.uav[49] utilizationCountManeuversMaintenance 30
scalar OsgEarthNet.uav[49] utilizationCountChargeState 15
scalar OsgEarthNet.uav[49] utilizationCountOverdrawnAfterMission 0
scalar OsgEarthNet.uav[49] utilizationCountIdleState 16
scalar OsgEarthNet.uav[49] utilizationFail 0
scalar OsgEarthNet.uav[49] simulationTime 259200
scalar OsgEarthNet.uav[50] utilizationSecMission 929.4207425077
scalar OsgEarthNet.uav[50] utilizationSecMaintenance 510.85003699699
scalar OsgEarthNet.uav[50] utilizationSecCharge 5710
scalar OsgEarthNet.uav[50] utilizationSecIdle 252049.7282205
scalar OsgEarthNet.uav[50] utilizationEnergyMission 4057.1777801514
scalar OsgEarthNet.uav[50] utilizationEnergyMaintenance 2424.0199623108
scalar OsgEarthNet.uav[50] utilizationEnergyCharge 6540.4975585938
scalar OsgEarthNet.uav[50] utilizationEnergyOverdrawMission 0
scalar OsgEarthNet.uav[50] utilizationEnergyOverdrawMaintenance 0
scalar OsgEarthNet.uav[50] utilizationCountMissions 2
scalar OsgEarthNet.uav[50] utilizationCountManeuversMission 14
scalar OsgEarthNet.uav[50] utilizationCountManeuversMaintenance 4
scalar OsgEarthNet.uav[50] utilizationCountChargeState 2
scalar OsgEarthNet.uav[50] utilizationCountOverdrawnAfterMission 0
scalar OsgEarthNet.uav[50] utilizationCountIdleState 3
scalar OsgEarthNet.uav[50] utilizationFail 0
scalar OsgEarthNet.uav[50] simulationTime 259200
scalar OsgEarthNet.uav[51] utilizationSecMission 25171.674570349
scalar OsgEarthNet.uav[51] utilizationSecMaintenance 12991.828749197
scalar OsgEarthNet.uav[51] utilizationSecCharge 151420
scalar OsgEarthNet.uav[51] utilizationSecIdle 69616.495680454
scalar OsgEarthNet.uav[51] utilizationEnergyMission 117656.81523132
scalar OsgEarthNet.uav[51] utilizationEnergyMaintenance 60428.471893311
scalar OsgEarthNet.uav[51] utilizationEnergyCharge 177601.90917969
scalar OsgEarthNet.uav[51] utilizationEnergyOverdrawMission 0
scalar OsgEarthNet.uav[51] utilizationEnergyOverdrawMaintenance 0
scalar OsgEarthNet.uav[51] utilizationCountMissions 49
scalar OsgEarthNet.uav[51] utilizationCountManeuversMission 420
scalar OsgEarthNet.uav[51] utilizationCountManeuversMaintenance 98
scalar OsgEarthNet.uav[51] utilizationCountChargeState 49
scalar OsgEarthNet.uav[51] utilizationCountOverdrawnAfterMission 0
scalar OsgEarthNet.uav[51] utilizationCountIdleState 50
scalar OsgEarthNet.uav[51] utilizationFail 0
scalar OsgEarthNet.uav[51] simulationTime 259200
scalar OsgEarthNet.uav[52] utilizationSecMission 887.1741082606
scalar OsgEarthNet.uav[52] utilizationSecMaintenance 125.81102573108
scalar OsgEarthNet.uav[52] utilizationSecCharge 3660
scalar OsgEarthNet.uav[52] utilizationSecIdle 254527.01386601
scalar OsgEarthNet.uav[52] utilizationEnergyMission 4040.2502593994
scalar OsgEarthNet.uav[52] utilizationEnergyMaintenance 563.27765655518
scalar OsgEarthNet.uav[52] utilizationEnergyCharge 4585.2275390625
scalar OsgEarthNet.uav[52] utilizationEnergyOverdrawMission 0
scalar OsgEarthNet.uav[52] utilizationEnergyOverdrawMaintenance 0
scalar OsgEarthNet.uav[52] utilizationCountMissions 1
scalar OsgEarthNet.uav[52] utilizationCountManeuversMission 14
scalar OsgEarthNet.uav[52] utilizationCountManeuversMaintenance 2
scalar OsgEarthNet.uav[52] utilizationCountChargeState 1
scalar OsgEarthNet.uav[52] utilizationCountOverdrawnAfterMission 0
scalar OsgEarthNet.uav[52] utilizationCountIdleState 2
scalar OsgEarthNet.uav[52] utilizationFail 0
scalar OsgEarthNet.uav[52] simulationTime 259200
scalar OsgEarthNet.uav[53] utilizationSecMission 760.62515258028
scalar OsgEarthNet.uav[53] utilizationSecMaintenance 245.74410321072
scalar OsgEarthNet.uav[53] utilizationSecCharge 3590
scalar OsgEarthNet.uav[53] utilizationSecIdle 254603.62974421
scalar OsgEarthNet.uav[53] utilizationEnergyMission 3270.0533752441
scalar OsgEarthNet.uav[53] utilizationEnergyMaintenance 1269.0336112976
scalar OsgEarthNet.uav[53] utilizationEnergyCharge 4539.0908203125
scalar OsgEarthNet.uav[53] utilizationEnergyOverdrawMission 0
scalar OsgEarthNet.uav[53] utilizationEnergyOverdrawMaintenance 0
scalar OsgEarthNet.uav[53] utilizationCountMissions 1
scalar OsgEarthNet.uav[53] utilizationCountManeuversMission 12
scalar OsgEarthNet.uav[53] utilizationCountManeuversMaintenance 2
scalar OsgEarthNet.uav[53] utilizationCountChargeState 1
scalar OsgEarthNet.uav[53] utilizationCountOverdrawnAfterMission 0
scalar OsgEarthNet.uav[53] utilizationCountIdleState 2
scalar OsgEarthNet.uav[53] utilizationFail 0
scalar OsgEarthNet.uav[53] simulationTime 259200
scalar OsgEarthNet.uav[54] utilizationSecMission 369.16643303525
scalar OsgEarthNet.uav[54] utilizationSecMaintenance 404.35423372053
scalar OsgEarthNet.uav[54] utilizationSecCharge 3000
scalar OsgEarthNet.uav[54] utilizationSecIdle 255426.47833324
scalar OsgEarthNet.uav[54] utilizationEnergyMission 1704.9038467407
scalar OsgEarthNet.uav[54] utilizationEnergyMaintenance 1804.2346916199
scalar OsgEarthNet.uav[54] utilizationEnergyCharge 3509.1437988281
scalar OsgEarthNet.uav[54] utilizationEnergyOverdrawMission 0
scalar OsgEarthNet.uav[54] utilizationEnergyOverdrawMaintenance 0
scalar OsgEarthNet.uav[54] utilizationCountMissions 1
scalar OsgEarthNet.uav[54] utilizationCountManeuversMission 6
scalar OsgEarthNet.uav[54] utilizationCountManeuversMaintenance 2
scalar OsgEarthNet.uav[54] utilizationCountChargeState 1
scalar OsgEarthNet.uav[54] utilizationCountOverdrawnAfterMission 0
scalar OsgEarthNet.uav[54] utilizationCountIdleState 2
scalar OsgEarthNet.uav[54] utilizationFail 0
scalar OsgEarthNet.uav[54] simulationTime 259200
scalar OsgEarthNet.uav[55] utilizationSecMission 3412.7662464902
scalar OsgEarthNet.uav[55] utilizationSecMaintenance 900.58297314655
scalar OsgEarthNet.uav[55] utilizationSecCharge 16900
scalar OsgEarthNet.uav[55] utilizationSecIdle 237986.64978036
scalar OsgEarthNet.uav[55] utilizationEnergyMission 16043.642440796
scalar OsgEarthNet.uav[55] utilizationEnergyMaintenance 4527.2162246704
scalar OsgEarthNet.uav[55] utilizationEnergyCharge 20640.355224609
scalar OsgEarthNet.uav[55] utilizationEnergyOverdrawMission 0
scalar OsgEarthNet.uav[55] utilizationEnergyOverdrawMaintenance 0
scalar OsgEarthNet.uav[55] utilizationCountMissions 5
scalar OsgEarthNet.uav[55] utilizationCountManeuversMission 60
scalar OsgEarthNet.uav[55] utilizationCountManeuversMaintenance 10
scalar OsgEarthNet.uav[55] utilizationCountChargeState 5
scalar OsgEarthNet.uav[55] utilizationCountOverdrawnAfterMission 0
scalar OsgEarthNet.uav[55] utilizationCountIdleState 6
scalar OsgEarthNet.uav[55] utilizationFail 0
scalar OsgEarthNet.uav[55] simulationTime 259200
scalar OsgEarthNet.uav[56] utilizationSecMission 25274.202312163
scalar OsgEarthNet.uav[56] utilizationSecMaintenance 15330.512041503
scalar OsgEarthNet.uav[56] utilizationSecCharge 160363.14382314
scalar OsgEarthNet.uav[56] utilizationSecIdle 58232.140823189
scalar OsgEarthNet.uav[56] utilizationEnergyMission 117713.92421722
scalar OsgEarthNet.uav[56] utilizationEnergyMaintenance 72584.201633453
scalar OsgEarthNet.uav[56] utilizationEnergyCharge 189247.9987793
scalar OsgEarthNet.uav[56] utilizationEnergyOverdrawMission 0
scalar OsgEarthNet.uav[56] utilizationEnergyOverdrawMaintenance 0
scalar OsgEarthNet.uav[56] utilizationCountMissions 52
scalar OsgEarthNet.uav[56] utilizationCountManeuversMission 413
scalar OsgEarthNet.uav[56] utilizationCountManeuversMaintenance 104
scalar OsgEarthNet.uav[56] utilizationCountChargeState 52
scalar OsgEarthNet.uav[56] utilizationCountOverdrawnAfterMission 0
scalar OsgEarthNet.uav[56] utilizationCountIdleState 52
scalar OsgEarthNet.uav[56] utilizationFail 0
scalar OsgEarthNet.uav[56] simulationTime 259200
scalar OsgEarthNet.uav[57] utilizationSecMission 30703.788991698
scalar OsgEarthNet.uav[57] utilizationSecMaintenance 10887.622549213
scalar OsgEarthNet.uav[57] utilizationSecCharge 166026.58745909
scalar OsgEarthNet.uav[57] utilizationSecIdle 51582
scalar OsgEarthNet.uav[57] utilizationEnergyMission 142422.08808136
scalar OsgEarthNet.uav[57] utilizationEnergyMaintenance 50902.796226501
scalar OsgEarthNet.uav[57] utilizationEnergyCharge 194953.19580078
scalar OsgEarthNet.uav[57] utilizationEnergyOverdrawMission 0
scalar OsgEarthNet.uav[57] utilizationEnergyOverdrawMaintenance 0
scalar OsgEarthNet.uav[57] utilizationCountMissions 54
scalar OsgEarthNet.uav[57] utilizationCountManeuversMission 507
scalar OsgEarthNet.uav[57] utilizationCountManeuversMaintenance 107
scalar OsgEarthNet.uav[57] utilizationCountChargeState 54
scalar OsgEarthNet.uav[57] utilizationCountOverdrawnAfterMission 0
scalar OsgEarthNet.uav[57] utilizationCountIdleState 54
scalar OsgEarthNet.uav[57] utilizationFail 0
scalar OsgEarthNet.uav[57] simulationTime 259200
scalar OsgEarthNet.uav[58] utilizationSecMission 25618.665482617
scalar OsgEarthNet.uav[58] utilizationSecMaintenance 16586.559227938
scalar OsgEarthNet.uav[58] utilizationSecCharge 169082.77428945
scalar OsgEarthNet.uav[58] utilizationSecIdle 47912
scalar OsgEarthNet.uav[58] utilizationEnergyMission 118073.02305259
scalar OsgEarthNet.uav[58] utilizationEnergyMaintenance 78679.669311523
scalar OsgEarthNet.uav[58] utilizationEnergyCharge 196896.77832031
scalar OsgEarthNet.uav[58] utilizationEnergyOverdrawMission 0
scalar OsgEarthNet.uav[58] utilizationEnergyOverdrawMaintenance 0
scalar OsgEarthNet.uav[58] utilizationCountMissions 56
scalar OsgEarthNet.uav[58] utilizationCountManeuversMission 403
scalar OsgEarthNet.uav[58] utilizationCountManeuversMaintenance 111
scalar OsgEarthNet.uav[58] utilizationCountChargeState 56
scalar OsgEarthNet.uav[58] utilizationCountOverdrawnAfterMission 0
scalar OsgEarthNet.uav[58] utilizationCountIdleState 56
scalar OsgEarthNet.uav[58] utilizationFail 0
scalar OsgEarthNet.uav[58] simulationTime 259200
scalar OsgEarthNet.uav[59] utilizationSecMission 750.20472747826
scalar OsgEarthNet.uav[59] utilizationSecMaintenance 261.68051383311
scalar OsgEarthNet.uav[59] utilizationSecCharge 3590
scalar OsgEarthNet.uav[59] utilizationSecIdle 254598.11375869
scalar OsgEarthNet.uav[59] utilizationEnergyMission 3274.2619628906
scalar OsgEarthNet.uav[59] utilizationEnergyMaintenance 1209.2122917175
scalar OsgEarthNet.uav[59] utilizationEnergyCharge 4483.4765625
scalar OsgEarthNet.uav[59] utilizationEnergyOverdrawMission 0
scalar OsgEarthNet.uav[59] utilizationEnergyOverdrawMaintenance 0
scalar OsgEarthNet.uav[59] utilizationCountMissions 1
scalar OsgEarthNet.uav[59] utilizationCountManeuversMission 11
scalar OsgEarthNet.uav[59] utilizationCountManeuversMaintenance 2
scalar OsgEarthNet.uav[59] utilizationCountChargeState 1
scalar OsgEarthNet.uav[59] utilizationCountOverdrawnAfterMission 0
scalar OsgEarthNet.uav[59] utilizationCountIdleState 2
scalar OsgEarthNet.uav[59] utilizationFail 0
scalar OsgEarthNet.uav[59] simulationTime 259200
scalar OsgEarthNet.uav[60] utilizationSecMission 760.62515258028
scalar OsgEarthNet.uav[60] utilizationSecMaintenance 245.74410321072
scalar OsgEarthNet.uav[60] utilizationSecCharge 3660
scalar OsgEarthNet.uav[60] utilizationSecIdle 254533.62974421
scalar OsgEarthNet.uav[60] utilizationEnergyMission 3592.1809997559
scalar OsgEarthNet.uav[60] utilizationEnergyMaintenance 1069.1743278503
scalar OsgEarthNet.uav[60] utilizationEnergyCharge 4661.3481445312
scalar OsgEarthNet.uav[60] utilizationEnergyOverdrawMission 0
scalar OsgEarthNet.uav[60] utilizationEnergyOverdrawMaintenance 0
scalar OsgEarthNet.uav[60] utilizationCountMissions 1
scalar OsgEarthNet.uav[60] utilizationCountManeuversMission 12
scalar OsgEarthNet.uav[60] utilizationCountManeuversMaintenance 2
scalar OsgEarthNet.uav[60] utilizationCountChargeState 1
scalar OsgEarthNet.uav[60] utilizationCountOverdrawnAfterMission 0
scalar OsgEarthNet.uav[60] utilizationCountIdleState 2
scalar OsgEarthNet.uav[60] utilizationFail 0
scalar OsgEarthNet.uav[60] simulationTime 259200
scalar OsgEarthNet.uav[61] utilizationSecMission 28623.96310214
scalar OsgEarthNet.uav[61] utilizationSecMaintenance 12481.198749284
scalar OsgEarthNet.uav[61] utilizationSecCharge 160490
scalar OsgEarthNet.uav[61] utilizationSecIdle 57604.837148576
scalar OsgEarthNet.uav[61] utilizationEnergyMission 132482.83319855
scalar OsgEarthNet.uav[61] utilizationEnergyMaintenance 59637.646385193
scalar OsgEarthNet.uav[61] utilizationEnergyCharge 191337.37329102
scalar OsgEarthNet.uav[61] utilizationEnergyOverdrawMission 0
scalar OsgEarthNet.uav[61] utilizationEnergyOverdrawMaintenance 0
scalar OsgEarthNet.uav[61] utilizationCountMissions 50
scalar OsgEarthNet.uav[61] utilizationCountManeuversMission 481
scalar OsgEarthNet.uav[61] utilizationCountManeuversMaintenance 100
scalar OsgEarthNet.uav[61] utilizationCountChargeState 50
scalar OsgEarthNet.uav[61] utilizationCountOverdrawnAfterMission 0
scalar OsgEarthNet.uav[61] utilizationCountIdleState 51
scalar OsgEarthNet.uav[61] utilizationFail 0
scalar OsgEarthNet.uav[61] simulationTime 259200
scalar OsgEarthNet.uav[62] utilizationSecMission 25315.491376622
scalar OsgEarthNet.uav[62] utilizationSecMaintenance 13108.848191267
scalar OsgEarthNet.uav[62] utilizationSecCharge 147680
scalar OsgEarthNet.uav[62] utilizationSecIdle 73095.659432111
scalar OsgEarthNet.uav[62] utilizationEnergyMission 117490.21387482
scalar OsgEarthNet.uav[62] utilizationEnergyMaintenance 61089.171889248
scalar OsgEarthNet.uav[62] utilizationEnergyCharge 174397.57470703
scalar OsgEarthNet.uav[62] utilizationEnergyOverdrawMission 0
scalar OsgEarthNet.uav[62] utilizationEnergyOverdrawMaintenance 0
scalar OsgEarthNet.uav[62] utilizationCountMissions 48
scalar OsgEarthNet.uav[62] utilizationCountManeuversMission 420
scalar OsgEarthNet.uav[62] utilizationCountManeuversMaintenance 96
scalar OsgEarthNet.uav[62] utilizationCountChargeState 47
scalar OsgEarthNet.uav[62] utilizationCountOverdrawnAfterMission 0
scalar OsgEarthNet.uav[62] utilizationCountIdleState 48
scalar OsgEarthNet.uav[62] utilizationFail 0
scalar OsgEarthNet.uav[62] simulationTime 259200
scalar OsgEarthNet.uav[63] utilizationSecMission 20211.685406374
scalar OsgEarthNet.uav[63] utilizationSecMaintenance 11940.717768924
scalar OsgEarthNet.uav[63] utilizationSecCharge 123958.42677958
scalar OsgEarthNet.uav[63] utilizationSecIdle 103089.16904512
scalar OsgEarthNet.uav[63] utilizationEnergyMission 93516.985580444
scalar OsgEarthNet.uav[63] utilizationEnergyMaintenance 54665.866142273
scalar OsgEarthNet.uav[63] utilizationEnergyCharge 147026.6328125
scalar OsgEarthNet.uav[63] utilizationEnergyOverdrawMission 0
scalar OsgEarthNet.uav[63] utilizationEnergyOverdrawMaintenance 0
scalar OsgEarthNet.uav[63] utilizationCountMissions 40
scalar OsgEarthNet.uav[63] utilizationCountManeuversMission 326
scalar OsgEarthNet.uav[63] utilizationCountManeuversMaintenance 80
scalar OsgEarthNet.uav[63] utilizationCountChargeState 40
scalar OsgEarthNet.uav[63] utilizationCountOverdrawnAfterMission 0
scalar OsgEarthNet.uav[63] utilizationCountIdleState 40
scalar OsgEarthNet.uav[63] utilizationFail 0
scalar OsgEarthNet.uav[63] simulationTime 259200
scalar OsgEarthNet.uav[64] utilizationSecMission 27040.544821269
scalar OsgEarthNet.uav[64] utilizationSecMaintenance 12578.234845701
scalar OsgEarthNet.uav[64] utilizationSecCharge 157310
scalar OsgEarthNet.uav[64] utilizationSecIdle 62271.21933303
scalar OsgEarthNet.uav[64] utilizationEnergyMission 123216.20500946
scalar OsgEarthNet.uav[64] utilizationEnergyMaintenance 60716.453666687
scalar OsgEarthNet.uav[64] utilizationEnergyCharge 184221.49902344
scalar OsgEarthNet.uav[64] utilizationEnergyOverdrawMission 0
scalar OsgEarthNet.uav[64] utilizationEnergyOverdrawMaintenance 0
scalar OsgEarthNet.uav[64] utilizationCountMissions 51
scalar OsgEarthNet.uav[64] utilizationCountManeuversMission 445
scalar OsgEarthNet.uav[64] utilizationCountManeuversMaintenance 102
scalar OsgEarthNet.uav[64] utilizationCountChargeState 51
scalar OsgEarthNet.uav[64] utilizationCountOverdrawnAfterMission 0
scalar OsgEarthNet.uav[64] utilizationCountIdleState 52
scalar OsgEarthNet.uav[64] utilizationFail 0
scalar OsgEarthNet.uav[64] simulationTime 259200
scalar OsgEarthNet.uav[65] utilizationSecMission 887.1741082606
scalar OsgEarthNet.uav[65] utilizationSecMaintenance 125.81102573108
scalar OsgEarthNet.uav[65] utilizationSecCharge 3730
scalar OsgEarthNet.uav[65] utilizationSecIdle 254457.01386601
[...]
scalar OsgEarthNet.uav[82] utilizationSecIdle 88236.653309323
scalar OsgEarthNet.uav[82] utilizationEnergyMission 103681.28388977
scalar OsgEarthNet.uav[82] utilizationEnergyMaintenance 58357.688728333
scalar OsgEarthNet.uav[82] utilizationEnergyCharge 159136.13818359
scalar OsgEarthNet.uav[82] utilizationEnergyOverdrawMission 0
scalar OsgEarthNet.uav[82] utilizationEnergyOverdrawMaintenance 0
scalar OsgEarthNet.uav[82] utilizationCountMissions 45
scalar OsgEarthNet.uav[82] utilizationCountManeuversMission 366
scalar OsgEarthNet.uav[82] utilizationCountManeuversMaintenance 90
scalar OsgEarthNet.uav[82] utilizationCountChargeState 45
scalar OsgEarthNet.uav[82] utilizationCountOverdrawnAfterMission 0
scalar OsgEarthNet.uav[82] utilizationCountIdleState 45
scalar OsgEarthNet.uav[82] utilizationFail 0
scalar OsgEarthNet.uav[82] simulationTime 259200
scalar OsgEarthNet.uav[83] utilizationSecMission 2481.0122255966
scalar OsgEarthNet.uav[83] utilizationSecMaintenance 1658.6409783801
scalar OsgEarthNet.uav[83] utilizationSecCharge 16120
scalar OsgEarthNet.uav[83] utilizationSecIdle 238940.34579602
scalar OsgEarthNet.uav[83] utilizationEnergyMission 11305.647850037
scalar OsgEarthNet.uav[83] utilizationEnergyMaintenance 8030.2542228699
scalar OsgEarthNet.uav[83] utilizationEnergyCharge 19335.8984375
scalar OsgEarthNet.uav[83] utilizationEnergyOverdrawMission 0
scalar OsgEarthNet.uav[83] utilizationEnergyOverdrawMaintenance 0
scalar OsgEarthNet.uav[83] utilizationCountMissions 5
scalar OsgEarthNet.uav[83] utilizationCountManeuversMission 43
scalar OsgEarthNet.uav[83] utilizationCountManeuversMaintenance 10
scalar OsgEarthNet.uav[83] utilizationCountChargeState 5
scalar OsgEarthNet.uav[83] utilizationCountOverdrawnAfterMission 0
scalar OsgEarthNet.uav[83] utilizationCountIdleState 6
scalar OsgEarthNet.uav[83] utilizationFail 0
scalar OsgEarthNet.uav[83] simulationTime 259200
scalar OsgEarthNet.uav[84] utilizationSecMission 29890.586274631
scalar OsgEarthNet.uav[84] utilizationSecMaintenance 12552.197658832
scalar OsgEarthNet.uav[84] utilizationSecCharge 164845.21355981
scalar OsgEarthNet.uav[84] utilizationSecIdle 51912.001506722
scalar OsgEarthNet.uav[84] utilizationEnergyMission 139398.32118225
scalar OsgEarthNet.uav[84] utilizationEnergyMaintenance 58872.635227203
scalar OsgEarthNet.uav[84] utilizationEnergyCharge 197263.09204102
scalar OsgEarthNet.uav[84] utilizationEnergyOverdrawMission 0
scalar OsgEarthNet.uav[84] utilizationEnergyOverdrawMaintenance 0
scalar OsgEarthNet.uav[84] utilizationCountMissions 52
scalar OsgEarthNet.uav[84] utilizationCountManeuversMission 496
scalar OsgEarthNet.uav[84] utilizationCountManeuversMaintenance 104
scalar OsgEarthNet.uav[84] utilizationCountChargeState 52
scalar OsgEarthNet.uav[84] utilizationCountOverdrawnAfterMission 0
scalar OsgEarthNet.uav[84] utilizationCountIdleState 52
scalar OsgEarthNet.uav[84] utilizationFail 0
scalar OsgEarthNet.uav[84] simulationTime 259200
scalar OsgEarthNet.uav[85] utilizationSecMission 694.00169469977
scalar OsgEarthNet.uav[85] utilizationSecMaintenance 229.48898285212
scalar OsgEarthNet.uav[85] utilizationSecCharge 3560
scalar OsgEarthNet.uav[85] utilizationSecIdle 254716.50832245
scalar OsgEarthNet.uav[85] utilizationEnergyMission 3308.1870574951
scalar OsgEarthNet.uav[85] utilizationEnergyMaintenance 1046.1133651733
scalar OsgEarthNet.uav[85] utilizationEnergyCharge 4375.7602539062
scalar OsgEarthNet.uav[85] utilizationEnergyOverdrawMission 0
scalar OsgEarthNet.uav[85] utilizationEnergyOverdrawMaintenance 0
scalar OsgEarthNet.uav[85] utilizationCountMissions 1
scalar OsgEarthNet.uav[85] utilizationCountManeuversMission 13
scalar OsgEarthNet.uav[85] utilizationCountManeuversMaintenance 2
scalar OsgEarthNet.uav[85] utilizationCountChargeState 1
scalar OsgEarthNet.uav[85] utilizationCountOverdrawnAfterMission 0
scalar OsgEarthNet.uav[85] utilizationCountIdleState 2
scalar OsgEarthNet.uav[85] utilizationFail 0
scalar OsgEarthNet.uav[85] simulationTime 259200
scalar OsgEarthNet.uav[86] utilizationSecMission 443.5870541303
scalar OsgEarthNet.uav[86] utilizationSecMaintenance 425.80795651079
scalar OsgEarthNet.uav[86] utilizationSecCharge 3160
scalar OsgEarthNet.uav[86] utilizationSecIdle 255170.60398936
scalar OsgEarthNet.uav[86] utilizationEnergyMission 2029.1432495117
scalar OsgEarthNet.uav[86] utilizationEnergyMaintenance 1834.4202690125
scalar OsgEarthNet.uav[86] utilizationEnergyCharge 3783.744140625
scalar OsgEarthNet.uav[86] utilizationEnergyOverdrawMission 0
scalar OsgEarthNet.uav[86] utilizationEnergyOverdrawMaintenance 0
scalar OsgEarthNet.uav[86] utilizationCountMissions 1
scalar OsgEarthNet.uav[86] utilizationCountManeuversMission 7
scalar OsgEarthNet.uav[86] utilizationCountManeuversMaintenance 2
scalar OsgEarthNet.uav[86] utilizationCountChargeState 1
scalar OsgEarthNet.uav[86] utilizationCountOverdrawnAfterMission 0
scalar OsgEarthNet.uav[86] utilizationCountIdleState 2
scalar OsgEarthNet.uav[86] utilizationFail 0
scalar OsgEarthNet.uav[86] simulationTime 259200
scalar OsgEarthNet.uav[87] utilizationSecMission 301.50602773369
scalar OsgEarthNet.uav[87] utilizationSecMaintenance 206.19350838146
scalar OsgEarthNet.uav[87] utilizationSecCharge 2480
scalar OsgEarthNet.uav[87] utilizationSecIdle 256212.29946388
scalar OsgEarthNet.uav[87] utilizationEnergyMission 1506.5335540771
scalar OsgEarthNet.uav[87] utilizationEnergyMaintenance 1031.1408615112
scalar OsgEarthNet.uav[87] utilizationEnergyCharge 2578.8752441406
scalar OsgEarthNet.uav[87] utilizationEnergyOverdrawMission 0
scalar OsgEarthNet.uav[87] utilizationEnergyOverdrawMaintenance 0
scalar OsgEarthNet.uav[87] utilizationCountMissions 1
scalar OsgEarthNet.uav[87] utilizationCountManeuversMission 6
scalar OsgEarthNet.uav[87] utilizationCountManeuversMaintenance 2
scalar OsgEarthNet.uav[87] utilizationCountChargeState 1
scalar OsgEarthNet.uav[87] utilizationCountOverdrawnAfterMission 0
scalar OsgEarthNet.uav[87] utilizationCountIdleState 2
scalar OsgEarthNet.uav[87] utilizationFail 0
scalar OsgEarthNet.uav[87] simulationTime 259200
scalar OsgEarthNet.uav[88] utilizationSecMission 443.5870541303
scalar OsgEarthNet.uav[88] utilizationSecMaintenance 125.81102573108
scalar OsgEarthNet.uav[88] utilizationSecCharge 2640
scalar OsgEarthNet.uav[88] utilizationSecIdle 255990.60092014
scalar OsgEarthNet.uav[88] utilizationEnergyMission 1987.2294158936
scalar OsgEarthNet.uav[88] utilizationEnergyMaintenance 521.14173126221
scalar OsgEarthNet.uav[88] utilizationEnergyCharge 2771.5559082031
scalar OsgEarthNet.uav[88] utilizationEnergyOverdrawMission 0
scalar OsgEarthNet.uav[88] utilizationEnergyOverdrawMaintenance 0
scalar OsgEarthNet.uav[88] utilizationCountMissions 1
scalar OsgEarthNet.uav[88] utilizationCountManeuversMission 7
scalar OsgEarthNet.uav[88] utilizationCountManeuversMaintenance 2
scalar OsgEarthNet.uav[88] utilizationCountChargeState 1
scalar OsgEarthNet.uav[88] utilizationCountOverdrawnAfterMission 0
scalar OsgEarthNet.uav[88] utilizationCountIdleState 2
scalar OsgEarthNet.uav[88] utilizationFail 0
scalar OsgEarthNet.uav[88] simulationTime 259200
scalar OsgEarthNet.uav[89] utilizationSecMission 21032.039097605
scalar OsgEarthNet.uav[89] utilizationSecMaintenance 14336.599082326
scalar OsgEarthNet.uav[89] utilizationSecCharge 142053.0760418
scalar OsgEarthNet.uav[89] utilizationSecIdle 81778.284778265
scalar OsgEarthNet.uav[89] utilizationEnergyMission 98633.813423157
scalar OsgEarthNet.uav[89] utilizationEnergyMaintenance 67798.895675659
scalar OsgEarthNet.uav[89] utilizationEnergyCharge 165913.32446289
scalar OsgEarthNet.uav[89] utilizationEnergyOverdrawMission 0
scalar OsgEarthNet.uav[89] utilizationEnergyOverdrawMaintenance 0
scalar OsgEarthNet.uav[89] utilizationCountMissions 47
scalar OsgEarthNet.uav[89] utilizationCountManeuversMission 345
scalar OsgEarthNet.uav[89] utilizationCountManeuversMaintenance 94
scalar OsgEarthNet.uav[89] utilizationCountChargeState 47
scalar OsgEarthNet.uav[89] utilizationCountOverdrawnAfterMission 0
scalar OsgEarthNet.uav[89] utilizationCountIdleState 47
scalar OsgEarthNet.uav[89] utilizationFail 0
scalar OsgEarthNet.uav[89] simulationTime 259200
scalar OsgEarthNet.uav[90] utilizationSecMission 570.98871244881
scalar OsgEarthNet.uav[90] utilizationSecMaintenance 276.2282017063
scalar OsgEarthNet.uav[90] utilizationSecCharge 3320
scalar OsgEarthNet.uav[90] utilizationSecIdle 255032.78208584
scalar OsgEarthNet.uav[90] utilizationEnergyMission 2759.9610900879
scalar OsgEarthNet.uav[90] utilizationEnergyMaintenance 1320.190776825
scalar OsgEarthNet.uav[90] utilizationEnergyCharge 4080.1494140625
scalar OsgEarthNet.uav[90] utilizationEnergyOverdrawMission 0
scalar OsgEarthNet.uav[90] utilizationEnergyOverdrawMaintenance 0
scalar OsgEarthNet.uav[90] utilizationCountMissions 1
scalar OsgEarthNet.uav[90] utilizationCountManeuversMission 8
scalar OsgEarthNet.uav[90] utilizationCountManeuversMaintenance 2
scalar OsgEarthNet.uav[90] utilizationCountChargeState 1
scalar OsgEarthNet.uav[90] utilizationCountOverdrawnAfterMission 0
scalar OsgEarthNet.uav[90] utilizationCountIdleState 2
scalar OsgEarthNet.uav[90] utilizationFail 0
scalar OsgEarthNet.uav[90] simulationTime 259200
scalar OsgEarthNet.uav[91] utilizationSecMission 26105.950282187
scalar OsgEarthNet.uav[91] utilizationSecMaintenance 11536.702384028
scalar OsgEarthNet.uav[91] utilizationSecCharge 146390
scalar OsgEarthNet.uav[91] utilizationSecIdle 75167.346333785
scalar OsgEarthNet.uav[91] utilizationEnergyMission 121002.305336
scalar OsgEarthNet.uav[91] utilizationEnergyMaintenance 53549.094413757
scalar OsgEarthNet.uav[91] utilizationEnergyCharge 173903.89013672
scalar OsgEarthNet.uav[91] utilizationEnergyOverdrawMission 0
scalar OsgEarthNet.uav[91] utilizationEnergyOverdrawMaintenance 0
scalar OsgEarthNet.uav[91] utilizationCountMissions 46
scalar OsgEarthNet.uav[91] utilizationCountManeuversMission 432
scalar OsgEarthNet.uav[91] utilizationCountManeuversMaintenance 92
scalar OsgEarthNet.uav[91] utilizationCountChargeState 46
scalar OsgEarthNet.uav[91] utilizationCountOverdrawnAfterMission 0
scalar OsgEarthNet.uav[91] utilizationCountIdleState 47
scalar OsgEarthNet.uav[91] utilizationFail 0
scalar OsgEarthNet.uav[91] simulationTime 259200
scalar OsgEarthNet.uav[92] utilizationSecMission 24461.471205735
scalar OsgEarthNet.uav[92] utilizationSecMaintenance 17414.246980992
scalar OsgEarthNet.uav[92] utilizationSecCharge 168168.2447145
scalar OsgEarthNet.uav[92] utilizationSecIdle 49156.036098769
scalar OsgEarthNet.uav[92] utilizationEnergyMission 112557.42738342
scalar OsgEarthNet.uav[92] utilizationEnergyMaintenance 82089.891777039
scalar OsgEarthNet.uav[92] utilizationEnergyCharge 194815.30200195
scalar OsgEarthNet.uav[92] utilizationEnergyOverdrawMission 0
scalar OsgEarthNet.uav[92] utilizationEnergyOverdrawMaintenance 0
scalar OsgEarthNet.uav[92] utilizationCountMissions 56
scalar OsgEarthNet.uav[92] utilizationCountManeuversMission 402
scalar OsgEarthNet.uav[92] utilizationCountManeuversMaintenance 112
scalar OsgEarthNet.uav[92] utilizationCountChargeState 56
scalar OsgEarthNet.uav[92] utilizationCountOverdrawnAfterMission 0
scalar OsgEarthNet.uav[92] utilizationCountIdleState 56
scalar OsgEarthNet.uav[92] utilizationFail 0
scalar OsgEarthNet.uav[92] simulationTime 259200
scalar OsgEarthNet.uav[93] utilizationSecMission 29917.128357108
scalar OsgEarthNet.uav[93] utilizationSecMaintenance 13976.05572101
scalar OsgEarthNet.uav[93] utilizationSecCharge 172680
scalar OsgEarthNet.uav[93] utilizationSecIdle 42626.814921882
scalar OsgEarthNet.uav[93] utilizationEnergyMission 139691.39741516
scalar OsgEarthNet.uav[93] utilizationEnergyMaintenance 66300.827476501
scalar OsgEarthNet.uav[93] utilizationEnergyCharge 205523.90332031
scalar OsgEarthNet.uav[93] utilizationEnergyOverdrawMission 0
scalar OsgEarthNet.uav[93] utilizationEnergyOverdrawMaintenance 0
scalar OsgEarthNet.uav[93] utilizationCountMissions 54
scalar OsgEarthNet.uav[93] utilizationCountManeuversMission 473
scalar OsgEarthNet.uav[93] utilizationCountManeuversMaintenance 107
scalar OsgEarthNet.uav[93] utilizationCountChargeState 54
scalar OsgEarthNet.uav[93] utilizationCountOverdrawnAfterMission 0
scalar OsgEarthNet.uav[93] utilizationCountIdleState 55
scalar OsgEarthNet.uav[93] utilizationFail 0
scalar OsgEarthNet.uav[93] simulationTime 259200
scalar OsgEarthNet.uav[94] utilizationSecMission 13244.829672585
scalar OsgEarthNet.uav[94] utilizationSecMaintenance 6504.427073963
scalar OsgEarthNet.uav[94] utilizationSecCharge 77990
scalar OsgEarthNet.uav[94] utilizationSecIdle 161460.74225345
scalar OsgEarthNet.uav[94] utilizationEnergyMission 61270.783233643
scalar OsgEarthNet.uav[94] utilizationEnergyMaintenance 30418.291633606
scalar OsgEarthNet.uav[94] utilizationEnergyCharge 91942.363769531
scalar OsgEarthNet.uav[94] utilizationEnergyOverdrawMission 0
scalar OsgEarthNet.uav[94] utilizationEnergyOverdrawMaintenance 0
scalar OsgEarthNet.uav[94] utilizationCountMissions 25
scalar OsgEarthNet.uav[94] utilizationCountManeuversMission 216
scalar OsgEarthNet.uav[94] utilizationCountManeuversMaintenance 50
scalar OsgEarthNet.uav[94] utilizationCountChargeState 25
scalar OsgEarthNet.uav[94] utilizationCountOverdrawnAfterMission 0
scalar OsgEarthNet.uav[94] utilizationCountIdleState 26
scalar OsgEarthNet.uav[94] utilizationFail 0
scalar OsgEarthNet.uav[94] simulationTime 259200
scalar OsgEarthNet.uav[95] utilizationSecMission 1894.9728088097
scalar OsgEarthNet.uav[95] utilizationSecMaintenance 1119.0369193773
scalar OsgEarthNet.uav[95] utilizationSecCharge 11210
scalar OsgEarthNet.uav[95] utilizationSecIdle 244975.98927181
scalar OsgEarthNet.uav[95] utilizationEnergyMission 9153.6855621338
scalar OsgEarthNet.uav[95] utilizationEnergyMaintenance 5208.2718963623
scalar OsgEarthNet.uav[95] utilizationEnergyCharge 14213.642089844
scalar OsgEarthNet.uav[95] utilizationEnergyOverdrawMission 0
scalar OsgEarthNet.uav[95] utilizationEnergyOverdrawMaintenance 0
scalar OsgEarthNet.uav[95] utilizationCountMissions 3
scalar OsgEarthNet.uav[95] utilizationCountManeuversMission 31
scalar OsgEarthNet.uav[95] utilizationCountManeuversMaintenance 6
scalar OsgEarthNet.uav[95] utilizationCountChargeState 3
scalar OsgEarthNet.uav[95] utilizationCountOverdrawnAfterMission 0
scalar OsgEarthNet.uav[95] utilizationCountIdleState 4
scalar OsgEarthNet.uav[95] utilizationFail 0
scalar OsgEarthNet.uav[95] simulationTime 259200
scalar OsgEarthNet.uav[96] utilizationSecMission 2536.9279406758
scalar OsgEarthNet.uav[96] utilizationSecMaintenance 3875.4059906901
scalar OsgEarthNet.uav[96] utilizationSecCharge 25090
scalar OsgEarthNet.uav[96] utilizationSecIdle 227697.66506863
scalar OsgEarthNet.uav[96] utilizationEnergyMission 12095.504066467
scalar OsgEarthNet.uav[96] utilizationEnergyMaintenance 17575.865470886
scalar OsgEarthNet.uav[96] utilizationEnergyCharge 29690.048095703
scalar OsgEarthNet.uav[96] utilizationEnergyOverdrawMission 0
scalar OsgEarthNet.uav[96] utilizationEnergyOverdrawMaintenance 0
scalar OsgEarthNet.uav[96] utilizationCountMissions 8
scalar OsgEarthNet.uav[96] utilizationCountManeuversMission 47
scalar OsgEarthNet.uav[96] utilizationCountManeuversMaintenance 16
scalar OsgEarthNet.uav[96] utilizationCountChargeState 8
scalar OsgEarthNet.uav[96] utilizationCountOverdrawnAfterMission 0
scalar OsgEarthNet.uav[96] utilizationCountIdleState 9
scalar OsgEarthNet.uav[96] utilizationFail 0
scalar OsgEarthNet.uav[96] simulationTime 259200
scalar OsgEarthNet.uav[97] utilizationSecMission 18819.658615401
scalar OsgEarthNet.uav[97] utilizationSecMaintenance 12427.629616229
scalar OsgEarthNet.uav[97] utilizationSecCharge 123300
scalar OsgEarthNet.uav[97] utilizationSecIdle 104652.71076837
scalar OsgEarthNet.uav[97] utilizationEnergyMission 86998.660354614
scalar OsgEarthNet.uav[97] utilizationEnergyMaintenance 57227.33631897
scalar OsgEarthNet.uav[97] utilizationEnergyCharge 144431.57666016
scalar OsgEarthNet.uav[97] utilizationEnergyOverdrawMission 0
scalar OsgEarthNet.uav[97] utilizationEnergyOverdrawMaintenance 0
scalar OsgEarthNet.uav[97] utilizationCountMissions 40
scalar OsgEarthNet.uav[97] utilizationCountManeuversMission 310
scalar OsgEarthNet.uav[97] utilizationCountManeuversMaintenance 80
scalar OsgEarthNet.uav[97] utilizationCountChargeState 40
scalar OsgEarthNet.uav[97] utilizationCountOverdrawnAfterMission 0
scalar OsgEarthNet.uav[97] utilizationCountIdleState 41
scalar OsgEarthNet.uav[97] utilizationFail 0
scalar OsgEarthNet.uav[97] simulationTime 259200
scalar OsgEarthNet.uav[98] utilizationSecMission 27545.214282927
scalar OsgEarthNet.uav[98] utilizationSecMaintenance 14903.099853134
scalar OsgEarthNet.uav[98] utilizationSecCharge 166029.68486394
scalar OsgEarthNet.uav[98] utilizationSecIdle 50722
scalar OsgEarthNet.uav[98] utilizationEnergyMission 127050.75289441
scalar OsgEarthNet.uav[98] utilizationEnergyMaintenance 70285.926929474
scalar OsgEarthNet.uav[98] utilizationEnergyCharge 192457.67895508
scalar OsgEarthNet.uav[98] utilizationEnergyOverdrawMission 0
scalar OsgEarthNet.uav[98] utilizationEnergyOverdrawMaintenance 0
scalar OsgEarthNet.uav[98] utilizationCountMissions 56
scalar OsgEarthNet.uav[98] utilizationCountManeuversMission 446
scalar OsgEarthNet.uav[98] utilizationCountManeuversMaintenance 111
scalar OsgEarthNet.uav[98] utilizationCountChargeState 56
scalar OsgEarthNet.uav[98] utilizationCountOverdrawnAfterMission 0
scalar OsgEarthNet.uav[98] utilizationCountIdleState 55
scalar OsgEarthNet.uav[98] utilizationFail 0
scalar OsgEarthNet.uav[98] simulationTime 259200
scalar OsgEarthNet.uav[99] utilizationSecMission 12335.010842159
scalar OsgEarthNet.uav[99] utilizationSecMaintenance 9325.7856685253
scalar OsgEarthNet.uav[99] utilizationSecCharge 84850
scalar OsgEarthNet.uav[99] utilizationSecIdle 152689.20248932
scalar OsgEarthNet.uav[99] utilizationEnergyMission 57652.59589167
scalar OsgEarthNet.uav[99] utilizationEnergyMaintenance 44321.235313416
scalar OsgEarthNet.uav[99] utilizationEnergyCharge 100659.81542969
scalar OsgEarthNet.uav[99] utilizationEnergyOverdrawMission 0
scalar OsgEarthNet.uav[99] utilizationEnergyOverdrawMaintenance 0
scalar OsgEarthNet.uav[99] utilizationCountMissions 27
scalar OsgEarthNet.uav[99] utilizationCountManeuversMission 201
scalar OsgEarthNet.uav[99] utilizationCountManeuversMaintenance 55
scalar OsgEarthNet.uav[99] utilizationCountChargeState 27
scalar OsgEarthNet.uav[99] utilizationCountOverdrawnAfterMission 0
scalar OsgEarthNet.uav[99] utilizationCountIdleState 27
scalar OsgEarthNet.uav[99] utilizationFail 0
scalar OsgEarthNet.uav[99] simulationTime 259200
scalar OsgEarthNet.cs[0] usedPower 363916.07335721
scalar OsgEarthNet.cs[0] chargedPower 363916.07335721
scalar OsgEarthNet.cs[0] chargedMobileNodes 146
scalar OsgEarthNet.cs[0] reservations 148
scalar OsgEarthNet.cs[1] usedPower 863521.42727109
scalar OsgEarthNet.cs[1] chargedPower 863521.42727109
scalar OsgEarthNet.cs[1] chargedMobileNodes 317
scalar OsgEarthNet.cs[1] reservations 321
scalar OsgEarthNet.cs[2] usedPower 3593744.3951213
scalar OsgEarthNet.cs[2] chargedPower 3593744.3951213
scalar OsgEarthNet.cs[2] chargedMobileNodes 945
scalar OsgEarthNet.cs[2] reservations 958
scalar OsgEarthNet.cs[3] usedPower 0
scalar OsgEarthNet.cs[3] chargedPower 0
scalar OsgEarthNet.cs[3] chargedMobileNodes 0
scalar OsgEarthNet.cs[3] reservations 0
scalar OsgEarthNet.cs[4] usedPower 977698.69159052
scalar OsgEarthNet.cs[4] chargedPower 977698.69159052
scalar OsgEarthNet.cs[4] chargedMobileNodes 225
scalar OsgEarthNet.cs[4] reservations 226
scalar OsgEarthNet.cs[5] usedPower 1567030.3576223
scalar OsgEarthNet.cs[5] chargedPower 1567030.3576223
scalar OsgEarthNet.cs[5] chargedMobileNodes 366
scalar OsgEarthNet.cs[5] reservations 373
scalar OsgEarthNet.cs[6] usedPower 1408568.5480674
scalar OsgEarthNet.cs[6] chargedPower 1408568.5480674
scalar OsgEarthNet.cs[6] chargedMobileNodes 363
scalar OsgEarthNet.cs[6] reservations 366

