version 2
run Szenario_Hotel_Gabelbach-27-20180709-13:36:32-7276
attr configname Szenario_Hotel_Gabelbach
attr datetime 20180709-13:36:32
attr experiment Szenario_Hotel_Gabelbach
attr inifile omnetpp.ini
attr iterationvars "$replM=2, $biWeight=0.4"
attr iterationvarsf replM=2,biWeight=0.4-
attr measurement "$replM=2, $biWeight=0.4"
attr network OsgEarthNet
attr processid 7276
attr repetition 3
attr replication #3
attr resultdir results
attr runnumber 27
attr seedset 27
itervar biWeight 0.4
itervar replM 2
param *.osgEarthScene.scene "\"Szenario_Hotel_Gabelbach.earth\""
param *.playgroundLatitude 50.6830269
param *.playgroundLongitude 10.8538055
param *.playgroundWidth 3500m
param *.playgroundHeight 3500m
param *.numUAVs 100
param *.cs[0].posX 3537m
param *.cs[0].posY 965m
param *.cs[0].posZ 538m
param *.cs[1].posX 312m
param *.cs[1].posY 1262m
param *.cs[1].posZ 539m
param *.cs[2].posX 2185m
param *.cs[2].posY 3026m
param *.cs[2].posZ 777m
param *.cs[3].posX 10m
param *.cs[3].posY 2200m
param *.cs[3].posZ 560m
param *.cs[4].posX 750m
param *.cs[4].posY 200m
param *.cs[4].posZ 540m
param *.cs[5].posX 2450m
param *.cs[5].posY 180m
param *.cs[5].posZ 524m
param *.cs[6].posX 3140m
param *.cs[6].posY 1790m
param *.cs[6].posZ 606m
param *.numCSs 7
param *.uav[*].replacementMethod 2
param *.uav[*].weightedSumWeight 0.4
param *.*.timeStep 10s
param *.uav[*].commandPreviewCommandCount 20
param *.missionControl.missionFiles "\"missions\\\\Szenario_WB_Hotel_Gabelbach_Mission_Hotel.waypoints,missions\\\\Szenario_WB_Hotel_Gabelbach_Mission_Kickelhahn.waypoints,missions\\\\Szenario_WB_Hotel_Gabelbach_Mission_Ilmenau_Sportplatz.waypoints,missions\\\\Szenario_WB_Hotel_Gabelbach_Mission_Manebach_Mitte.waypoints,missions\\\\Szenario_WB_Hotel_Gabelbach_Mission_Manebach_Sued.waypoints\""
param *.missionControl.missionFiles "\"missions\\\\Szenario_WB_Hotel_Gabelbach_Mission_Hotel.waypoints,missions\\\\Szenario_WB_Hotel_Gabelbach_Mission_Kickelhahn.waypoints,missions\\\\Szenario_WB_Hotel_Gabelbach_Mission_Ilmenau_Sportplatz.waypoints,missions\\\\Szenario_WB_Hotel_Gabelbach_Mission_Manebach_Mitte.waypoints,missions\\\\Szenario_WB_Hotel_Gabelbach_Mission_Manebach_Sued.waypoints,missions\\\\Szenario_WB_Hotel_Gabelbach_Hover_HoheSchlaufe.waypoints,missions\\\\Szenario_WB_Hotel_Gabelbach_Hover_Kickelhahn.waypoints,missions\\\\Szenario_WB_Hotel_Gabelbach_Hover_Gabelbachskopf.waypoints,missions\\\\Szenario_WB_Hotel_Gabelbach_Hover_Dachskopf.waypoints\""
param *.uav[0].startX 3537m
param *.uav[0].startY 965m
param *.uav[0].startZ 539m
param *.uav[1].startX 312m
param *.uav[1].startY 1262m
param *.uav[1].startZ 540m
param *.uav[2].startX 2185m
param *.uav[2].startY 3026m
param *.uav[2].startZ 778m
param *.uav[3].startX 3537m
param *.uav[3].startY 965m
param *.uav[3].startZ 539m
param *.uav[4].startX 312m
param *.uav[4].startY 1262m
param *.uav[4].startZ 540m
param *.uav[5].startX 2185m
param *.uav[5].startY 3026m
param *.uav[5].startZ 778m
param *.uav[6].startX 3537m
param *.uav[6].startY 965m
param *.uav[6].startZ 539m
param *.uav[7].startX 312m
param *.uav[7].startY 1262m
param *.uav[7].startZ 540m
param *.uav[8].startX 2185m
param *.uav[8].startY 3026m
param *.uav[8].startZ 778m
param *.uav[9].startX 3537m
param *.uav[9].startY 965m
param *.uav[9].startZ 539m
param *.uav[10].startX 3537m
param *.uav[10].startY 965m
param *.uav[10].startZ 539m
param *.uav[11].startX 312m
param *.uav[11].startY 1262m
param *.uav[11].startZ 540m
param *.uav[12].startX 2185m
param *.uav[12].startY 3026m
param *.uav[12].startZ 778m
param *.uav[13].startX 3537m
param *.uav[13].startY 965m
param *.uav[13].startZ 539m
param *.uav[14].startX 312m
param *.uav[14].startY 1262m
param *.uav[14].startZ 540m
param *.uav[15].startX 2185m
param *.uav[15].startY 3026m
param *.uav[15].startZ 778m
param *.uav[16].startX 3537m
param *.uav[16].startY 965m
param *.uav[16].startZ 539m
param *.uav[17].startX 312m
param *.uav[17].startY 1262m
param *.uav[17].startZ 540m
param *.uav[18].startX 2185m
param *.uav[18].startY 3026m
param *.uav[18].startZ 778m
param *.uav[19].startX 3537m
param *.uav[19].startY 965m
param *.uav[19].startZ 539m
param *.uav[20].startX 3537m
param *.uav[20].startY 965m
param *.uav[20].startZ 539m
param *.uav[21].startX 312m
param *.uav[21].startY 1262m
param *.uav[21].startZ 540m
param *.uav[22].startX 2185m
param *.uav[22].startY 3026m
param *.uav[22].startZ 778m
param *.uav[23].startX 3537m
param *.uav[23].startY 965m
param *.uav[23].startZ 539m
param *.uav[24].startX 312m
param *.uav[24].startY 1262m
param *.uav[24].startZ 540m
param *.uav[25].startX 2185m
param *.uav[25].startY 3026m
param *.uav[25].startZ 778m
param *.uav[26].startX 3537m
param *.uav[26].startY 965m
param *.uav[26].startZ 539m
param *.uav[27].startX 312m
param *.uav[27].startY 1262m
param *.uav[27].startZ 540m
param *.uav[28].startX 2185m
param *.uav[28].startY 3026m
param *.uav[28].startZ 778m
param *.uav[29].startX 3537m
param *.uav[29].startY 965m
param *.uav[29].startZ 539m
param *.uav[30].startX 3537m
param *.uav[30].startY 965m
param *.uav[30].startZ 539m
param *.uav[31].startX 312m
param *.uav[31].startY 1262m
param *.uav[31].startZ 540m
param *.uav[32].startX 2185m
param *.uav[32].startY 3026m
param *.uav[32].startZ 778m
param *.uav[33].startX 3537m
param *.uav[33].startY 965m
param *.uav[33].startZ 539m
param *.uav[34].startX 312m
param *.uav[34].startY 1262m
param *.uav[34].startZ 540m
param *.uav[35].startX 2185m
param *.uav[35].startY 3026m
param *.uav[35].startZ 778m
param *.uav[36].startX 3537m
param *.uav[36].startY 965m
param *.uav[36].startZ 539m
param *.uav[37].startX 312m
param *.uav[37].startY 1262m
param *.uav[37].startZ 540m
param *.uav[38].startX 2185m
param *.uav[38].startY 3026m
param *.uav[38].startZ 778m
param *.uav[39].startX 3537m
param *.uav[39].startY 965m
param *.uav[39].startZ 539m
param *.uav[40].startX 3537m
param *.uav[40].startY 965m
param *.uav[40].startZ 539m
param *.uav[41].startX 312m
param *.uav[41].startY 1262m
param *.uav[41].startZ 540m
param *.uav[42].startX 2185m
param *.uav[42].startY 3026m
param *.uav[42].startZ 778m
param *.uav[43].startX 3537m
param *.uav[43].startY 965m
param *.uav[43].startZ 539m
param *.uav[44].startX 312m
param *.uav[44].startY 1262m
param *.uav[44].startZ 540m
param *.uav[45].startX 2185m
param *.uav[45].startY 3026m
param *.uav[45].startZ 778m
param *.uav[46].startX 3537m
param *.uav[46].startY 965m
param *.uav[46].startZ 539m
param *.uav[47].startX 312m
param *.uav[47].startY 1262m
param *.uav[47].startZ 540m
param *.uav[48].startX 2185m
param *.uav[48].startY 3026m
param *.uav[48].startZ 778m
param *.uav[49].startX 3537m
param *.uav[49].startY 965m
param *.uav[49].startZ 539m
param *.uav[50].startX 3537m
param *.uav[50].startY 965m
param *.uav[50].startZ 539m
param *.uav[51].startX 312m
param *.uav[51].startY 1262m
param *.uav[51].startZ 540m
param *.uav[52].startX 2185m
param *.uav[52].startY 3026m
param *.uav[52].startZ 778m
param *.uav[53].startX 3537m
param *.uav[53].startY 965m
param *.uav[53].startZ 539m
param *.uav[54].startX 312m
param *.uav[54].startY 1262m
param *.uav[54].startZ 540m
param *.uav[55].startX 2185m
param *.uav[55].startY 3026m
param *.uav[55].startZ 778m
param *.uav[56].startX 3537m
param *.uav[56].startY 965m
param *.uav[56].startZ 539m
param *.uav[57].startX 312m
param *.uav[57].startY 1262m
param *.uav[57].startZ 540m
param *.uav[58].startX 2185m
param *.uav[58].startY 3026m
param *.uav[58].startZ 778m
param *.uav[59].startX 3537m
param *.uav[59].startY 965m
param *.uav[59].startZ 539m
param *.uav[60].startX 3537m
param *.uav[60].startY 965m
param *.uav[60].startZ 539m
param *.uav[61].startX 312m
param *.uav[61].startY 1262m
param *.uav[61].startZ 540m
param *.uav[62].startX 2185m
param *.uav[62].startY 3026m
param *.uav[62].startZ 778m
param *.uav[63].startX 3537m
param *.uav[63].startY 965m
param *.uav[63].startZ 539m
param *.uav[64].startX 312m
param *.uav[64].startY 1262m
param *.uav[64].startZ 540m
param *.uav[65].startX 2185m
param *.uav[65].startY 3026m
param *.uav[65].startZ 778m
param *.uav[66].startX 3537m
param *.uav[66].startY 965m
param *.uav[66].startZ 539m
param *.uav[67].startX 312m
param *.uav[67].startY 1262m
param *.uav[67].startZ 540m
param *.uav[68].startX 2185m
param *.uav[68].startY 3026m
param *.uav[68].startZ 778m
param *.uav[69].startX 3537m
param *.uav[69].startY 965m
param *.uav[69].startZ 539m
param *.uav[70].startX 3537m
param *.uav[70].startY 965m
param *.uav[70].startZ 539m
param *.uav[71].startX 312m
param *.uav[71].startY 1262m
param *.uav[71].startZ 540m
param *.uav[72].startX 2185m
param *.uav[72].startY 3026m
param *.uav[72].startZ 778m
param *.uav[73].startX 3537m
param *.uav[73].startY 965m
param *.uav[73].startZ 539m
param *.uav[74].startX 312m
param *.uav[74].startY 1262m
param *.uav[74].startZ 540m
param *.uav[75].startX 2185m
param *.uav[75].startY 3026m
param *.uav[75].startZ 778m
param *.uav[76].startX 3537m
param *.uav[76].startY 965m
param *.uav[76].startZ 539m
param *.uav[77].startX 312m
param *.uav[77].startY 1262m
param *.uav[77].startZ 540m
param *.uav[78].startX 2185m
param *.uav[78].startY 3026m
param *.uav[78].startZ 778m
param *.uav[79].startX 3537m
param *.uav[79].startY 965m
param *.uav[79].startZ 539m
param *.uav[80].startX 3537m
param *.uav[80].startY 965m
param *.uav[80].startZ 539m
param *.uav[81].startX 312m
param *.uav[81].startY 1262m
param *.uav[81].startZ 540m
param *.uav[82].startX 2185m
param *.uav[82].startY 3026m
param *.uav[82].startZ 778m
param *.uav[83].startX 3537m
param *.uav[83].startY 965m
param *.uav[83].startZ 539m
param *.uav[84].startX 312m
param *.uav[84].startY 1262m
param *.uav[84].startZ 540m
param *.uav[85].startX 2185m
param *.uav[85].startY 3026m
param *.uav[85].startZ 778m
param *.uav[86].startX 3537m
param *.uav[86].startY 965m
param *.uav[86].startZ 539m
param *.uav[87].startX 312m
param *.uav[87].startY 1262m
param *.uav[87].startZ 540m
param *.uav[88].startX 2185m
param *.uav[88].startY 3026m
param *.uav[88].startZ 778m
param *.uav[89].startX 3537m
param *.uav[89].startY 965m
param *.uav[89].startZ 539m
param *.uav[90].startX 3537m
param *.uav[90].startY 965m
param *.uav[90].startZ 539m
param *.uav[91].startX 312m
param *.uav[91].startY 1262m
param *.uav[91].startZ 540m
param *.uav[92].startX 2185m
param *.uav[92].startY 3026m
param *.uav[92].startZ 778m
param *.uav[93].startX 3537m
param *.uav[93].startY 965m
param *.uav[93].startZ 539m
param *.uav[94].startX 312m
param *.uav[94].startY 1262m
param *.uav[94].startZ 540m
param *.uav[95].startX 2185m
param *.uav[95].startY 3026m
param *.uav[95].startZ 778m
param *.uav[96].startX 3537m
param *.uav[96].startY 965m
param *.uav[96].startZ 539m
param *.uav[97].startX 312m
param *.uav[97].startY 1262m
param *.uav[97].startZ 540m
param *.uav[98].startX 2185m
param *.uav[98].startY 3026m
param *.uav[98].startZ 778m
param *.uav[99].startX 3537m
param *.uav[99].startY 965m
param *.uav[99].startZ 539m
param *.osgEarthScene.scene "\"boston.earth\""
param *.playgroundLatitude 42.3558
param *.playgroundLongitude -71.0677
param *.playgroundWidth 400m
param *.playgroundHeight 200m
param *.channelController.connectionColor "\"#0000FF40\""
param *.channelController.showConnections false
param *.uav[*].modelURL "\"quadrocopter.small.obj.15.scale.0,0,90.rot\""
param *.uav[*].labelColor "\"#FF7C00CC\""
param *.uav[*].label2Color "\"#FF7C00EE\""
param *.uav[*].batteryCapacity 5200mAh
param *.uav[*].batteryRemaining uav[index].batteryCapacity
param *.uav[*].predictionQuantile 0.95
param *.uav[*].replacementMethod 2
param *.uav[*].weightedSumWeight 0.5
param *.cs[*].modelURL "\"chargingstation_v1.osgt.2.scale.0,0,0.rot.0,0,-15e-1.trans\""
param *.cs[*].spotsWaiting 999
param *.cs[*].spotsCharging 999
param *.cs[*].chargeEffectivenessPercentage 100
param *.cs[*].nonLinearPhaseStartPercentage 85
param *.cs[*].chargeCurrent 6.0A
param *.cs[*].prioritizeFastCharge true
param *.missionControl.replacementSearchMethod 0
param *.*.timeStep 9s

scalar OsgEarthNet.uav[0] utilizationSecMission 777.63549584169
scalar OsgEarthNet.uav[0] utilizationSecMaintenance 351.76861483848
scalar OsgEarthNet.uav[0] utilizationSecCharge 3980
scalar OsgEarthNet.uav[0] utilizationSecIdle 254090.59488932
scalar OsgEarthNet.uav[0] utilizationEnergyMission 3427.5241088867
scalar OsgEarthNet.uav[0] utilizationEnergyMaintenance 1646.5013961792
scalar OsgEarthNet.uav[0] utilizationEnergyCharge 5051.9340820312
scalar OsgEarthNet.uav[0] utilizationEnergyOverdrawMission 0
scalar OsgEarthNet.uav[0] utilizationEnergyOverdrawMaintenance 0
scalar OsgEarthNet.uav[0] utilizationCountMissions 1
scalar OsgEarthNet.uav[0] utilizationCountManeuversMission 12
scalar OsgEarthNet.uav[0] utilizationCountManeuversMaintenance 2
scalar OsgEarthNet.uav[0] utilizationCountChargeState 1
scalar OsgEarthNet.uav[0] utilizationCountOverdrawnAfterMission 0
scalar OsgEarthNet.uav[0] utilizationCountIdleState 2
scalar OsgEarthNet.uav[0] utilizationFail 0
scalar OsgEarthNet.uav[0] simulationTime 259200
scalar OsgEarthNet.uav[1] utilizationSecMission 25174.91983535
scalar OsgEarthNet.uav[1] utilizationSecMaintenance 11101.482702949
scalar OsgEarthNet.uav[1] utilizationSecCharge 137092.53967241
scalar OsgEarthNet.uav[1] utilizationSecIdle 85831.05678929
scalar OsgEarthNet.uav[1] utilizationEnergyMission 116557.24177933
scalar OsgEarthNet.uav[1] utilizationEnergyMaintenance 52358.667747498
scalar OsgEarthNet.uav[1] utilizationEnergyCharge 166317.11425781
scalar OsgEarthNet.uav[1] utilizationEnergyOverdrawMission 0
scalar OsgEarthNet.uav[1] utilizationEnergyOverdrawMaintenance 0
scalar OsgEarthNet.uav[1] utilizationCountMissions 41
scalar OsgEarthNet.uav[1] utilizationCountManeuversMission 405
scalar OsgEarthNet.uav[1] utilizationCountManeuversMaintenance 82
scalar OsgEarthNet.uav[1] utilizationCountChargeState 41
scalar OsgEarthNet.uav[1] utilizationCountOverdrawnAfterMission 0
scalar OsgEarthNet.uav[1] utilizationCountIdleState 41
scalar OsgEarthNet.uav[1] utilizationFail 0
scalar OsgEarthNet.uav[1] simulationTime 259200
scalar OsgEarthNet.uav[2] utilizationSecMission 8077.4001903415
scalar OsgEarthNet.uav[2] utilizationSecMaintenance 3648.335575584
scalar OsgEarthNet.uav[2] utilizationSecCharge 43670
scalar OsgEarthNet.uav[2] utilizationSecIdle 203804.26323407
scalar OsgEarthNet.uav[2] utilizationEnergyMission 37380.766044617
scalar OsgEarthNet.uav[2] utilizationEnergyMaintenance 17179.109359741
scalar OsgEarthNet.uav[2] utilizationEnergyCharge 54247.381835938
scalar OsgEarthNet.uav[2] utilizationEnergyOverdrawMission 0
scalar OsgEarthNet.uav[2] utilizationEnergyOverdrawMaintenance 0
scalar OsgEarthNet.uav[2] utilizationCountMissions 12
scalar OsgEarthNet.uav[2] utilizationCountManeuversMission 133
scalar OsgEarthNet.uav[2] utilizationCountManeuversMaintenance 24
scalar OsgEarthNet.uav[2] utilizationCountChargeState 12
scalar OsgEarthNet.uav[2] utilizationCountOverdrawnAfterMission 0
scalar OsgEarthNet.uav[2] utilizationCountIdleState 13
scalar OsgEarthNet.uav[2] utilizationFail 0
scalar OsgEarthNet.uav[2] simulationTime 259200
scalar OsgEarthNet.uav[3] utilizationSecMission 550.3264176221
scalar OsgEarthNet.uav[3] utilizationSecMaintenance 236.15579930629
scalar OsgEarthNet.uav[3] utilizationSecCharge 3280
scalar OsgEarthNet.uav[3] utilizationSecIdle 255133.51678307
scalar OsgEarthNet.uav[3] utilizationEnergyMission 2797.6048126221
scalar OsgEarthNet.uav[3] utilizationEnergyMaintenance 1115.578453064
scalar OsgEarthNet.uav[3] utilizationEnergyCharge 3913.1870117188
scalar OsgEarthNet.uav[3] utilizationEnergyOverdrawMission 0
scalar OsgEarthNet.uav[3] utilizationEnergyOverdrawMaintenance 0
scalar OsgEarthNet.uav[3] utilizationCountMissions 1
scalar OsgEarthNet.uav[3] utilizationCountManeuversMission 9
scalar OsgEarthNet.uav[3] utilizationCountManeuversMaintenance 2
scalar OsgEarthNet.uav[3] utilizationCountChargeState 1
scalar OsgEarthNet.uav[3] utilizationCountOverdrawnAfterMission 0
scalar OsgEarthNet.uav[3] utilizationCountIdleState 2
scalar OsgEarthNet.uav[3] utilizationFail 0
scalar OsgEarthNet.uav[3] simulationTime 259200
scalar OsgEarthNet.uav[4] utilizationSecMission 7375.2050547467
scalar OsgEarthNet.uav[4] utilizationSecMaintenance 2370.8302764093
scalar OsgEarthNet.uav[4] utilizationSecCharge 36490
scalar OsgEarthNet.uav[4] utilizationSecIdle 212963.96366884
scalar OsgEarthNet.uav[4] utilizationEnergyMission 34011.754112244
scalar OsgEarthNet.uav[4] utilizationEnergyMaintenance 11479.525547028
scalar OsgEarthNet.uav[4] utilizationEnergyCharge 45525.442871094
scalar OsgEarthNet.uav[4] utilizationEnergyOverdrawMission 0
scalar OsgEarthNet.uav[4] utilizationEnergyOverdrawMaintenance 0
scalar OsgEarthNet.uav[4] utilizationCountMissions 10
scalar OsgEarthNet.uav[4] utilizationCountManeuversMission 117
scalar OsgEarthNet.uav[4] utilizationCountManeuversMaintenance 20
scalar OsgEarthNet.uav[4] utilizationCountChargeState 10
scalar OsgEarthNet.uav[4] utilizationCountOverdrawnAfterMission 0
scalar OsgEarthNet.uav[4] utilizationCountIdleState 11
scalar OsgEarthNet.uav[4] utilizationFail 0
scalar OsgEarthNet.uav[4] simulationTime 259200
scalar OsgEarthNet.uav[5] utilizationSecMission 694.00169469977
scalar OsgEarthNet.uav[5] utilizationSecMaintenance 338.49695459722
scalar OsgEarthNet.uav[5] utilizationSecCharge 3830
scalar OsgEarthNet.uav[5] utilizationSecIdle 254337.5003507
scalar OsgEarthNet.uav[5] utilizationEnergyMission 3435.506362915
scalar OsgEarthNet.uav[5] utilizationEnergyMaintenance 1412.4111442566
scalar OsgEarthNet.uav[5] utilizationEnergyCharge 4847.9184570312
scalar OsgEarthNet.uav[5] utilizationEnergyOverdrawMission 0
scalar OsgEarthNet.uav[5] utilizationEnergyOverdrawMaintenance 0
scalar OsgEarthNet.uav[5] utilizationCountMissions 1
scalar OsgEarthNet.uav[5] utilizationCountManeuversMission 13
scalar OsgEarthNet.uav[5] utilizationCountManeuversMaintenance 2
scalar OsgEarthNet.uav[5] utilizationCountChargeState 1
scalar OsgEarthNet.uav[5] utilizationCountOverdrawnAfterMission 0
scalar OsgEarthNet.uav[5] utilizationCountIdleState 2
scalar OsgEarthNet.uav[5] utilizationFail 0
scalar OsgEarthNet.uav[5] simulationTime 259200
scalar OsgEarthNet.uav[6] utilizationSecMission 23248.477955441
scalar OsgEarthNet.uav[6] utilizationSecMaintenance 10582.839777436
scalar OsgEarthNet.uav[6] utilizationSecCharge 129140
scalar OsgEarthNet.uav[6] utilizationSecIdle 96228.681267122
scalar OsgEarthNet.uav[6] utilizationEnergyMission 107473.22083282
scalar OsgEarthNet.uav[6] utilizationEnergyMaintenance 50676.184394836
scalar OsgEarthNet.uav[6] utilizationEnergyCharge 157950.24023438
scalar OsgEarthNet.uav[6] utilizationEnergyOverdrawMission 0
scalar OsgEarthNet.uav[6] utilizationEnergyOverdrawMaintenance 0
scalar OsgEarthNet.uav[6] utilizationCountMissions 37
scalar OsgEarthNet.uav[6] utilizationCountManeuversMission 379
scalar OsgEarthNet.uav[6] utilizationCountManeuversMaintenance 74
scalar OsgEarthNet.uav[6] utilizationCountChargeState 37
scalar OsgEarthNet.uav[6] utilizationCountOverdrawnAfterMission 0
scalar OsgEarthNet.uav[6] utilizationCountIdleState 38
scalar OsgEarthNet.uav[6] utilizationFail 0
scalar OsgEarthNet.uav[6] simulationTime 259200
scalar OsgEarthNet.uav[7] utilizationSecMission 682.94783150361
scalar OsgEarthNet.uav[7] utilizationSecMaintenance 228.1606024445
scalar OsgEarthNet.uav[7] utilizationSecCharge 3480
scalar OsgEarthNet.uav[7] utilizationSecIdle 254808.89056605
scalar OsgEarthNet.uav[7] utilizationEnergyMission 3125.0592193603
scalar OsgEarthNet.uav[7] utilizationEnergyMaintenance 1085.9781723022
scalar OsgEarthNet.uav[7] utilizationEnergyCharge 4211.0361328125
scalar OsgEarthNet.uav[7] utilizationEnergyOverdrawMission 0
scalar OsgEarthNet.uav[7] utilizationEnergyOverdrawMaintenance 0
scalar OsgEarthNet.uav[7] utilizationCountMissions 1
scalar OsgEarthNet.uav[7] utilizationCountManeuversMission 12
scalar OsgEarthNet.uav[7] utilizationCountManeuversMaintenance 2
scalar OsgEarthNet.uav[7] utilizationCountChargeState 1
scalar OsgEarthNet.uav[7] utilizationCountOverdrawnAfterMission 0
scalar OsgEarthNet.uav[7] utilizationCountIdleState 2
scalar OsgEarthNet.uav[7] utilizationFail 0
scalar OsgEarthNet.uav[7] simulationTime 259200
scalar OsgEarthNet.uav[8] utilizationSecMission 25571.420223007
scalar OsgEarthNet.uav[8] utilizationSecMaintenance 10442.462373708
scalar OsgEarthNet.uav[8] utilizationSecCharge 136020
scalar OsgEarthNet.uav[8] utilizationSecIdle 87166.116403285
scalar OsgEarthNet.uav[8] utilizationEnergyMission 119856.49088287
scalar OsgEarthNet.uav[8] utilizationEnergyMaintenance 48989.221870422
scalar OsgEarthNet.uav[8] utilizationEnergyCharge 167904.80004883
scalar OsgEarthNet.uav[8] utilizationEnergyOverdrawMission 0
scalar OsgEarthNet.uav[8] utilizationEnergyOverdrawMaintenance 0
scalar OsgEarthNet.uav[8] utilizationCountMissions 38
scalar OsgEarthNet.uav[8] utilizationCountManeuversMission 404
scalar OsgEarthNet.uav[8] utilizationCountManeuversMaintenance 76
scalar OsgEarthNet.uav[8] utilizationCountChargeState 38
scalar OsgEarthNet.uav[8] utilizationCountOverdrawnAfterMission 0
scalar OsgEarthNet.uav[8] utilizationCountIdleState 39
scalar OsgEarthNet.uav[8] utilizationFail 0
scalar OsgEarthNet.uav[8] simulationTime 259200
scalar OsgEarthNet.uav[9] utilizationSecMission 760.62515258028
scalar OsgEarthNet.uav[9] utilizationSecMaintenance 291.95923480269
scalar OsgEarthNet.uav[9] utilizationSecCharge 3800
scalar OsgEarthNet.uav[9] utilizationSecIdle 254347.41461262
scalar OsgEarthNet.uav[9] utilizationEnergyMission 3505.333404541
scalar OsgEarthNet.uav[9] utilizationEnergyMaintenance 1301.5531845093
scalar OsgEarthNet.uav[9] utilizationEnergyCharge 4806.8837890625
scalar OsgEarthNet.uav[9] utilizationEnergyOverdrawMission 0
scalar OsgEarthNet.uav[9] utilizationEnergyOverdrawMaintenance 0
scalar OsgEarthNet.uav[9] utilizationCountMissions 1
scalar OsgEarthNet.uav[9] utilizationCountManeuversMission 12
scalar OsgEarthNet.uav[9] utilizationCountManeuversMaintenance 2
scalar OsgEarthNet.uav[9] utilizationCountChargeState 1
scalar OsgEarthNet.uav[9] utilizationCountOverdrawnAfterMission 0
scalar OsgEarthNet.uav[9] utilizationCountIdleState 2
scalar OsgEarthNet.uav[9] utilizationFail 0
scalar OsgEarthNet.uav[9] simulationTime 259200
scalar OsgEarthNet.uav[10] utilizationSecMission 750.20472747826
scalar OsgEarthNet.uav[10] utilizationSecMaintenance 261.68051383311
scalar OsgEarthNet.uav[10] utilizationSecCharge 3800
scalar OsgEarthNet.uav[10] utilizationSecIdle 254388.11375869
scalar OsgEarthNet.uav[10] utilizationEnergyMission 3599.6437072754
scalar OsgEarthNet.uav[10] utilizationEnergyMaintenance 1225.0064506531
scalar OsgEarthNet.uav[10] utilizationEnergyCharge 4824.6499023438
scalar OsgEarthNet.uav[10] utilizationEnergyOverdrawMission 0
scalar OsgEarthNet.uav[10] utilizationEnergyOverdrawMaintenance 0
scalar OsgEarthNet.uav[10] utilizationCountMissions 1
scalar OsgEarthNet.uav[10] utilizationCountManeuversMission 11
scalar OsgEarthNet.uav[10] utilizationCountManeuversMaintenance 2
scalar OsgEarthNet.uav[10] utilizationCountChargeState 1
scalar OsgEarthNet.uav[10] utilizationCountOverdrawnAfterMission 0
scalar OsgEarthNet.uav[10] utilizationCountIdleState 2
scalar OsgEarthNet.uav[10] utilizationFail 0
scalar OsgEarthNet.uav[10] simulationTime 259200
scalar OsgEarthNet.uav[11] utilizationSecMission 30681.112396733
scalar OsgEarthNet.uav[11] utilizationSecMaintenance 11411.72743445
scalar OsgEarthNet.uav[11] utilizationSecCharge 156090
scalar OsgEarthNet.uav[11] utilizationSecIdle 61017.159168816
scalar OsgEarthNet.uav[11] utilizationEnergyMission 140996.99404144
scalar OsgEarthNet.uav[11] utilizationEnergyMaintenance 53067.879047394
scalar OsgEarthNet.uav[11] utilizationEnergyCharge 194057.99584961
scalar OsgEarthNet.uav[11] utilizationEnergyOverdrawMission 0
scalar OsgEarthNet.uav[11] utilizationEnergyOverdrawMaintenance 0
scalar OsgEarthNet.uav[11] utilizationCountMissions 43
scalar OsgEarthNet.uav[11] utilizationCountManeuversMission 501
scalar OsgEarthNet.uav[11] utilizationCountManeuversMaintenance 86
scalar OsgEarthNet.uav[11] utilizationCountChargeState 43
scalar OsgEarthNet.uav[11] utilizationCountOverdrawnAfterMission 0
scalar OsgEarthNet.uav[11] utilizationCountIdleState 44
scalar OsgEarthNet.uav[11] utilizationFail 0
scalar OsgEarthNet.uav[11] simulationTime 259200
scalar OsgEarthNet.uav[12] utilizationSecMission 27561.454657046
scalar OsgEarthNet.uav[12] utilizationSecMaintenance 12429.99753777
scalar OsgEarthNet.uav[12] utilizationSecCharge 152456.54680518
scalar OsgEarthNet.uav[12] utilizationSecIdle 66752
scalar OsgEarthNet.uav[12] utilizationEnergyMission 127389.31117237
scalar OsgEarthNet.uav[12] utilizationEnergyMaintenance 58611.304683685
scalar OsgEarthNet.uav[12] utilizationEnergyCharge 185690.4140625
scalar OsgEarthNet.uav[12] utilizationEnergyOverdrawMission 0
scalar OsgEarthNet.uav[12] utilizationEnergyOverdrawMaintenance 0
scalar OsgEarthNet.uav[12] utilizationCountMissions 45
scalar OsgEarthNet.uav[12] utilizationCountManeuversMission 446
scalar OsgEarthNet.uav[12] utilizationCountManeuversMaintenance 89
scalar OsgEarthNet.uav[12] utilizationCountChargeState 45
scalar OsgEarthNet.uav[12] utilizationCountOverdrawnAfterMission 0
scalar OsgEarthNet.uav[12] utilizationCountIdleState 45
scalar OsgEarthNet.uav[12] utilizationFail 0
scalar OsgEarthNet.uav[12] simulationTime 259200
scalar OsgEarthNet.uav[13] utilizationSecMission 760.62515258028
scalar OsgEarthNet.uav[13] utilizationSecMaintenance 291.95923480269
scalar OsgEarthNet.uav[13] utilizationSecCharge 3830
scalar OsgEarthNet.uav[13] utilizationSecIdle 254317.41461262
scalar OsgEarthNet.uav[13] utilizationEnergyMission 3402.1065750122
scalar OsgEarthNet.uav[13] utilizationEnergyMaintenance 1403.6992416382
scalar OsgEarthNet.uav[13] utilizationEnergyCharge 4805.8076171875
scalar OsgEarthNet.uav[13] utilizationEnergyOverdrawMission 0
scalar OsgEarthNet.uav[13] utilizationEnergyOverdrawMaintenance 0
scalar OsgEarthNet.uav[13] utilizationCountMissions 1
scalar OsgEarthNet.uav[13] utilizationCountManeuversMission 12
scalar OsgEarthNet.uav[13] utilizationCountManeuversMaintenance 2
scalar OsgEarthNet.uav[13] utilizationCountChargeState 1
scalar OsgEarthNet.uav[13] utilizationCountOverdrawnAfterMission 0
scalar OsgEarthNet.uav[13] utilizationCountIdleState 2
scalar OsgEarthNet.uav[13] utilizationFail 0
scalar OsgEarthNet.uav[13] simulationTime 259200
scalar OsgEarthNet.uav[14] utilizationSecMission 213.40226662093
scalar OsgEarthNet.uav[14] utilizationSecMaintenance 292.41944606525
scalar OsgEarthNet.uav[14] utilizationSecCharge 2390
scalar OsgEarthNet.uav[14] utilizationSecIdle 256304.17728731
scalar OsgEarthNet.uav[14] utilizationEnergyMission 973.56802368164
scalar OsgEarthNet.uav[14] utilizationEnergyMaintenance 1385.4526596069
scalar OsgEarthNet.uav[14] utilizationEnergyCharge 2359.0217285156
scalar OsgEarthNet.uav[14] utilizationEnergyOverdrawMission 0
scalar OsgEarthNet.uav[14] utilizationEnergyOverdrawMaintenance 0
scalar OsgEarthNet.uav[14] utilizationCountMissions 1
scalar OsgEarthNet.uav[14] utilizationCountManeuversMission 3
scalar OsgEarthNet.uav[14] utilizationCountManeuversMaintenance 2
scalar OsgEarthNet.uav[14] utilizationCountChargeState 1
scalar OsgEarthNet.uav[14] utilizationCountOverdrawnAfterMission 0
scalar OsgEarthNet.uav[14] utilizationCountIdleState 2
scalar OsgEarthNet.uav[14] utilizationFail 0
scalar OsgEarthNet.uav[14] simulationTime 259200
scalar OsgEarthNet.uav[15] utilizationSecMission 31622.65987668
scalar OsgEarthNet.uav[15] utilizationSecMaintenance 8398.5285253932
scalar OsgEarthNet.uav[15] utilizationSecCharge 146900
scalar OsgEarthNet.uav[15] utilizationSecIdle 72278.810597926
scalar OsgEarthNet.uav[15] utilizationEnergyMission 145058.14336395
scalar OsgEarthNet.uav[15] utilizationEnergyMaintenance 39289.204730988
scalar OsgEarthNet.uav[15] utilizationEnergyCharge 184906.671875
scalar OsgEarthNet.uav[15] utilizationEnergyOverdrawMission 0
scalar OsgEarthNet.uav[15] utilizationEnergyOverdrawMaintenance 0
scalar OsgEarthNet.uav[15] utilizationCountMissions 39
scalar OsgEarthNet.uav[15] utilizationCountManeuversMission 506
scalar OsgEarthNet.uav[15] utilizationCountManeuversMaintenance 78
scalar OsgEarthNet.uav[15] utilizationCountChargeState 39
scalar OsgEarthNet.uav[15] utilizationCountOverdrawnAfterMission 0
scalar OsgEarthNet.uav[15] utilizationCountIdleState 40
scalar OsgEarthNet.uav[15] utilizationFail 0
scalar OsgEarthNet.uav[15] simulationTime 259200
scalar OsgEarthNet.uav[16] utilizationSecMission 27200.086430832
scalar OsgEarthNet.uav[16] utilizationSecMaintenance 14059.990663012
scalar OsgEarthNet.uav[16] utilizationSecCharge 153653.74883949
scalar OsgEarthNet.uav[16] utilizationSecIdle 64286.173066668
scalar OsgEarthNet.uav[16] utilizationEnergyMission 125375.69141006
scalar OsgEarthNet.uav[16] utilizationEnergyMaintenance 66467.348369598
scalar OsgEarthNet.uav[16] utilizationEnergyCharge 187755.96606445
scalar OsgEarthNet.uav[16] utilizationEnergyOverdrawMission 0
scalar OsgEarthNet.uav[16] utilizationEnergyOverdrawMaintenance 0
scalar OsgEarthNet.uav[16] utilizationCountMissions 45
scalar OsgEarthNet.uav[16] utilizationCountManeuversMission 436
scalar OsgEarthNet.uav[16] utilizationCountManeuversMaintenance 90
scalar OsgEarthNet.uav[16] utilizationCountChargeState 45
scalar OsgEarthNet.uav[16] utilizationCountOverdrawnAfterMission 0
scalar OsgEarthNet.uav[16] utilizationCountIdleState 45
scalar OsgEarthNet.uav[16] utilizationFail 0
scalar OsgEarthNet.uav[16] simulationTime 259200
scalar OsgEarthNet.uav[17] utilizationSecMission 16333.033099009
scalar OsgEarthNet.uav[17] utilizationSecMaintenance 5881.297827808
scalar OsgEarthNet.uav[17] utilizationSecCharge 84680
scalar OsgEarthNet.uav[17] utilizationSecIdle 152305.66807318
scalar OsgEarthNet.uav[17] utilizationEnergyMission 76605.835220337
scalar OsgEarthNet.uav[17] utilizationEnergyMaintenance 27781.239528656
scalar OsgEarthNet.uav[17] utilizationEnergyCharge 104329.69897461
scalar OsgEarthNet.uav[17] utilizationEnergyOverdrawMission 0
scalar OsgEarthNet.uav[17] utilizationEnergyOverdrawMaintenance 0
scalar OsgEarthNet.uav[17] utilizationCountMissions 24
scalar OsgEarthNet.uav[17] utilizationCountManeuversMission 253
scalar OsgEarthNet.uav[17] utilizationCountManeuversMaintenance 48
scalar OsgEarthNet.uav[17] utilizationCountChargeState 24
scalar OsgEarthNet.uav[17] utilizationCountOverdrawnAfterMission 0
scalar OsgEarthNet.uav[17] utilizationCountIdleState 25
scalar OsgEarthNet.uav[17] utilizationFail 0
scalar OsgEarthNet.uav[17] simulationTime 259200
scalar OsgEarthNet.uav[18] utilizationSecMission 28616.344041991
scalar OsgEarthNet.uav[18] utilizationSecMaintenance 12620.811238366
scalar OsgEarthNet.uav[18] utilizationSecCharge 150795.39345561
scalar OsgEarthNet.uav[18] utilizationSecIdle 67167.450264031
scalar OsgEarthNet.uav[18] utilizationEnergyMission 132664.60401154
scalar OsgEarthNet.uav[18] utilizationEnergyMaintenance 58216.873565674
scalar OsgEarthNet.uav[18] utilizationEnergyCharge 186339.99163818
scalar OsgEarthNet.uav[18] utilizationEnergyOverdrawMission 0
scalar OsgEarthNet.uav[18] utilizationEnergyOverdrawMaintenance 0
scalar OsgEarthNet.uav[18] utilizationCountMissions 43
scalar OsgEarthNet.uav[18] utilizationCountManeuversMission 482
scalar OsgEarthNet.uav[18] utilizationCountManeuversMaintenance 86
scalar OsgEarthNet.uav[18] utilizationCountChargeState 43
scalar OsgEarthNet.uav[18] utilizationCountOverdrawnAfterMission 0
scalar OsgEarthNet.uav[18] utilizationCountIdleState 43
scalar OsgEarthNet.uav[18] utilizationFail 0
scalar OsgEarthNet.uav[18] simulationTime 259200
scalar OsgEarthNet.uav[19] utilizationSecMission 30523.22698976
scalar OsgEarthNet.uav[19] utilizationSecMaintenance 12588.310955177
scalar OsgEarthNet.uav[19] utilizationSecCharge 161052.9141458
scalar OsgEarthNet.uav[19] utilizationSecIdle 55035.546909258
scalar OsgEarthNet.uav[19] utilizationEnergyMission 140068.2134552
scalar OsgEarthNet.uav[19] utilizationEnergyMaintenance 59410.524868011
scalar OsgEarthNet.uav[19] utilizationEnergyCharge 196996.64111328
scalar OsgEarthNet.uav[19] utilizationEnergyOverdrawMission 0
scalar OsgEarthNet.uav[19] utilizationEnergyOverdrawMaintenance 0
scalar OsgEarthNet.uav[19] utilizationCountMissions 47
scalar OsgEarthNet.uav[19] utilizationCountManeuversMission 486
scalar OsgEarthNet.uav[19] utilizationCountManeuversMaintenance 94
scalar OsgEarthNet.uav[19] utilizationCountChargeState 47
scalar OsgEarthNet.uav[19] utilizationCountOverdrawnAfterMission 0
scalar OsgEarthNet.uav[19] utilizationCountIdleState 47
scalar OsgEarthNet.uav[19] utilizationFail 0
scalar OsgEarthNet.uav[19] simulationTime 259200
scalar OsgEarthNet.uav[20] utilizationSecMission 684.4732299383
scalar OsgEarthNet.uav[20] utilizationSecMaintenance 298.56834692969
scalar OsgEarthNet.uav[20] utilizationSecCharge 3720
scalar OsgEarthNet.uav[20] utilizationSecIdle 254496.95742313
scalar OsgEarthNet.uav[20] utilizationEnergyMission 3143.8428649902
scalar OsgEarthNet.uav[20] utilizationEnergyMaintenance 1502.2679672241
scalar OsgEarthNet.uav[20] utilizationEnergyCharge 4646.1103515625
scalar OsgEarthNet.uav[20] utilizationEnergyOverdrawMission 0
scalar OsgEarthNet.uav[20] utilizationEnergyOverdrawMaintenance 0
scalar OsgEarthNet.uav[20] utilizationCountMissions 1
scalar OsgEarthNet.uav[20] utilizationCountManeuversMission 11
scalar OsgEarthNet.uav[20] utilizationCountManeuversMaintenance 2
scalar OsgEarthNet.uav[20] utilizationCountChargeState 1
scalar OsgEarthNet.uav[20] utilizationCountOverdrawnAfterMission 0
scalar OsgEarthNet.uav[20] utilizationCountIdleState 2
scalar OsgEarthNet.uav[20] utilizationFail 0
scalar OsgEarthNet.uav[20] simulationTime 259200
scalar OsgEarthNet.uav[21] utilizationSecMission 2197.5152049994
scalar OsgEarthNet.uav[21] utilizationSecMaintenance 701.83833992325
scalar OsgEarthNet.uav[21] utilizationSecCharge 10940
scalar OsgEarthNet.uav[21] utilizationSecIdle 245360.64545508
scalar OsgEarthNet.uav[21] utilizationEnergyMission 10095.821060181
scalar OsgEarthNet.uav[21] utilizationEnergyMaintenance 3502.5892486572
scalar OsgEarthNet.uav[21] utilizationEnergyCharge 13598.409667969
scalar OsgEarthNet.uav[21] utilizationEnergyOverdrawMission 0
scalar OsgEarthNet.uav[21] utilizationEnergyOverdrawMaintenance 0
scalar OsgEarthNet.uav[21] utilizationCountMissions 3
scalar OsgEarthNet.uav[21] utilizationCountManeuversMission 38
scalar OsgEarthNet.uav[21] utilizationCountManeuversMaintenance 6
scalar OsgEarthNet.uav[21] utilizationCountChargeState 3
scalar OsgEarthNet.uav[21] utilizationCountOverdrawnAfterMission 0
scalar OsgEarthNet.uav[21] utilizationCountIdleState 4
scalar OsgEarthNet.uav[21] utilizationFail 0
scalar OsgEarthNet.uav[21] simulationTime 259200
scalar OsgEarthNet.uav[22] utilizationSecMission 698.84532193436
scalar OsgEarthNet.uav[22] utilizationSecMaintenance 251.76601760685
scalar OsgEarthNet.uav[22] utilizationSecCharge 3610
scalar OsgEarthNet.uav[22] utilizationSecIdle 254639.38766046
scalar OsgEarthNet.uav[22] utilizationEnergyMission 3260.128036499
scalar OsgEarthNet.uav[22] utilizationEnergyMaintenance 1245.388469696
scalar OsgEarthNet.uav[22] utilizationEnergyCharge 4505.517578125
scalar OsgEarthNet.uav[22] utilizationEnergyOverdrawMission 0
scalar OsgEarthNet.uav[22] utilizationEnergyOverdrawMaintenance 0
scalar OsgEarthNet.uav[22] utilizationCountMissions 1
scalar OsgEarthNet.uav[22] utilizationCountManeuversMission 10
scalar OsgEarthNet.uav[22] utilizationCountManeuversMaintenance 2
scalar OsgEarthNet.uav[22] utilizationCountChargeState 1
scalar OsgEarthNet.uav[22] utilizationCountOverdrawnAfterMission 0
scalar OsgEarthNet.uav[22] utilizationCountIdleState 2
scalar OsgEarthNet.uav[22] utilizationFail 0
scalar OsgEarthNet.uav[22] simulationTime 259200
scalar OsgEarthNet.uav[23] utilizationSecMission 760.62515258028
scalar OsgEarthNet.uav[23] utilizationSecMaintenance 291.95923480269
scalar OsgEarthNet.uav[23] utilizationSecCharge 3880
scalar OsgEarthNet.uav[23] utilizationSecIdle 254267.41461262
scalar OsgEarthNet.uav[23] utilizationEnergyMission 3437.0937652588
scalar OsgEarthNet.uav[23] utilizationEnergyMaintenance 1462.0533676147
scalar OsgEarthNet.uav[23] utilizationEnergyCharge 4899.1455078125
scalar OsgEarthNet.uav[23] utilizationEnergyOverdrawMission 0
scalar OsgEarthNet.uav[23] utilizationEnergyOverdrawMaintenance 0
scalar OsgEarthNet.uav[23] utilizationCountMissions 1
scalar OsgEarthNet.uav[23] utilizationCountManeuversMission 12
scalar OsgEarthNet.uav[23] utilizationCountManeuversMaintenance 2
scalar OsgEarthNet.uav[23] utilizationCountChargeState 1
scalar OsgEarthNet.uav[23] utilizationCountOverdrawnAfterMission 0
scalar OsgEarthNet.uav[23] utilizationCountIdleState 2
scalar OsgEarthNet.uav[23] utilizationFail 0
scalar OsgEarthNet.uav[23] simulationTime 259200
scalar OsgEarthNet.uav[24] utilizationSecMission 22709.744714213
scalar OsgEarthNet.uav[24] utilizationSecMaintenance 11772.821497858
scalar OsgEarthNet.uav[24] utilizationSecCharge 131810
scalar OsgEarthNet.uav[24] utilizationSecIdle 92907.432787929
scalar OsgEarthNet.uav[24] utilizationEnergyMission 105169.35844421
scalar OsgEarthNet.uav[24] utilizationEnergyMaintenance 55879.238739014
scalar OsgEarthNet.uav[24] utilizationEnergyCharge 160798.4831543
scalar OsgEarthNet.uav[24] utilizationEnergyOverdrawMission 0
scalar OsgEarthNet.uav[24] utilizationEnergyOverdrawMaintenance 0
scalar OsgEarthNet.uav[24] utilizationCountMissions 38
scalar OsgEarthNet.uav[24] utilizationCountManeuversMission 379
scalar OsgEarthNet.uav[24] utilizationCountManeuversMaintenance 76
scalar OsgEarthNet.uav[24] utilizationCountChargeState 38
scalar OsgEarthNet.uav[24] utilizationCountOverdrawnAfterMission 0
scalar OsgEarthNet.uav[24] utilizationCountIdleState 39
scalar OsgEarthNet.uav[24] utilizationFail 0
scalar OsgEarthNet.uav[24] simulationTime 259200
scalar OsgEarthNet.uav[25] utilizationSecMission 25168.747405795
scalar OsgEarthNet.uav[25] utilizationSecMaintenance 10922.59633915
scalar OsgEarthNet.uav[25] utilizationSecCharge 135415.95258734
scalar OsgEarthNet.uav[25] utilizationSecIdle 87692.702667718
scalar OsgEarthNet.uav[25] utilizationEnergyMission 116738.77149963
scalar OsgEarthNet.uav[25] utilizationEnergyMaintenance 51103.283210754
scalar OsgEarthNet.uav[25] utilizationEnergyCharge 168119.41552734
scalar OsgEarthNet.uav[25] utilizationEnergyOverdrawMission 0
scalar OsgEarthNet.uav[25] utilizationEnergyOverdrawMaintenance 0
scalar OsgEarthNet.uav[25] utilizationCountMissions 38
scalar OsgEarthNet.uav[25] utilizationCountManeuversMission 409
scalar OsgEarthNet.uav[25] utilizationCountManeuversMaintenance 76
scalar OsgEarthNet.uav[25] utilizationCountChargeState 38
scalar OsgEarthNet.uav[25] utilizationCountOverdrawnAfterMission 0
scalar OsgEarthNet.uav[25] utilizationCountIdleState 38
scalar OsgEarthNet.uav[25] utilizationFail 0
scalar OsgEarthNet.uav[25] simulationTime 259200
scalar OsgEarthNet.uav[26] utilizationSecMission 760.62515258028
scalar OsgEarthNet.uav[26] utilizationSecMaintenance 291.95923480269
scalar OsgEarthNet.uav[26] utilizationSecCharge 3640
scalar OsgEarthNet.uav[26] utilizationSecIdle 254507.41461262
scalar OsgEarthNet.uav[26] utilizationEnergyMission 3223.4494781494
scalar OsgEarthNet.uav[26] utilizationEnergyMaintenance 1276.0285263062
scalar OsgEarthNet.uav[26] utilizationEnergyCharge 4499.4799804688
scalar OsgEarthNet.uav[26] utilizationEnergyOverdrawMission 0
scalar OsgEarthNet.uav[26] utilizationEnergyOverdrawMaintenance 0
scalar OsgEarthNet.uav[26] utilizationCountMissions 1
scalar OsgEarthNet.uav[26] utilizationCountManeuversMission 12
scalar OsgEarthNet.uav[26] utilizationCountManeuversMaintenance 2
scalar OsgEarthNet.uav[26] utilizationCountChargeState 1
scalar OsgEarthNet.uav[26] utilizationCountOverdrawnAfterMission 0
scalar OsgEarthNet.uav[26] utilizationCountIdleState 2
scalar OsgEarthNet.uav[26] utilizationFail 0
scalar OsgEarthNet.uav[26] simulationTime 259200
scalar OsgEarthNet.uav[27] utilizationSecMission 25841.564573218
scalar OsgEarthNet.uav[27] utilizationSecMaintenance 10742.063062383
scalar OsgEarthNet.uav[27] utilizationSecCharge 135980
scalar OsgEarthNet.uav[27] utilizationSecIdle 86636.371364399
scalar OsgEarthNet.uav[27] utilizationEnergyMission 122039.31827852
scalar OsgEarthNet.uav[27] utilizationEnergyMaintenance 50242.64421463
scalar OsgEarthNet.uav[27] utilizationEnergyCharge 167990.11376953
scalar OsgEarthNet.uav[27] utilizationEnergyOverdrawMission 0
scalar OsgEarthNet.uav[27] utilizationEnergyOverdrawMaintenance 0
scalar OsgEarthNet.uav[27] utilizationCountMissions 38
scalar OsgEarthNet.uav[27] utilizationCountManeuversMission 428
scalar OsgEarthNet.uav[27] utilizationCountManeuversMaintenance 77
scalar OsgEarthNet.uav[27] utilizationCountChargeState 38
scalar OsgEarthNet.uav[27] utilizationCountOverdrawnAfterMission 0
scalar OsgEarthNet.uav[27] utilizationCountIdleState 39
scalar OsgEarthNet.uav[27] utilizationFail 0
scalar OsgEarthNet.uav[27] simulationTime 259200
scalar OsgEarthNet.uav[28] utilizationSecMission 25341.969861633
scalar OsgEarthNet.uav[28] utilizationSecMaintenance 9159.2969861667
scalar OsgEarthNet.uav[28] utilizationSecCharge 125192.38193138
scalar OsgEarthNet.uav[28] utilizationSecIdle 99506.350220821
scalar OsgEarthNet.uav[28] utilizationEnergyMission 115639.02648163
scalar OsgEarthNet.uav[28] utilizationEnergyMaintenance 43617.795658112
scalar OsgEarthNet.uav[28] utilizationEnergyCharge 156198.66430664
scalar OsgEarthNet.uav[28] utilizationEnergyOverdrawMission 0
scalar OsgEarthNet.uav[28] utilizationEnergyOverdrawMaintenance 0
scalar OsgEarthNet.uav[28] utilizationCountMissions 35
scalar OsgEarthNet.uav[28] utilizationCountManeuversMission 401
scalar OsgEarthNet.uav[28] utilizationCountManeuversMaintenance 70
scalar OsgEarthNet.uav[28] utilizationCountChargeState 35
scalar OsgEarthNet.uav[28] utilizationCountOverdrawnAfterMission 0
scalar OsgEarthNet.uav[28] utilizationCountIdleState 35
scalar OsgEarthNet.uav[28] utilizationFail 0
scalar OsgEarthNet.uav[28] simulationTime 259200
scalar OsgEarthNet.uav[29] utilizationSecMission 9967.657920104
scalar OsgEarthNet.uav[29] utilizationSecMaintenance 3985.9257287161
scalar OsgEarthNet.uav[29] utilizationSecCharge 52610
scalar OsgEarthNet.uav[29] utilizationSecIdle 192636.41535118
scalar OsgEarthNet.uav[29] utilizationEnergyMission 45960.896278381
scalar OsgEarthNet.uav[29] utilizationEnergyMaintenance 18890.120471954
scalar OsgEarthNet.uav[29] utilizationEnergyCharge 64675.625
scalar OsgEarthNet.uav[29] utilizationEnergyOverdrawMission 0
scalar OsgEarthNet.uav[29] utilizationEnergyOverdrawMaintenance 0
scalar OsgEarthNet.uav[29] utilizationCountMissions 15
scalar OsgEarthNet.uav[29] utilizationCountManeuversMission 158
scalar OsgEarthNet.uav[29] utilizationCountManeuversMaintenance 30
scalar OsgEarthNet.uav[29] utilizationCountChargeState 15
scalar OsgEarthNet.uav[29] utilizationCountOverdrawnAfterMission 0
scalar OsgEarthNet.uav[29] utilizationCountIdleState 16
scalar OsgEarthNet.uav[29] utilizationFail 0
scalar OsgEarthNet.uav[29] simulationTime 259200
scalar OsgEarthNet.uav[30] utilizationSecMission 18880.709200409
scalar OsgEarthNet.uav[30] utilizationSecMaintenance 9348.5052926393
scalar OsgEarthNet.uav[30] utilizationSecCharge 104241.48064478
scalar OsgEarthNet.uav[30] utilizationSecIdle 126729.30386217
scalar OsgEarthNet.uav[30] utilizationEnergyMission 86749.496383667
scalar OsgEarthNet.uav[30] utilizationEnergyMaintenance 43408.260036469
scalar OsgEarthNet.uav[30] utilizationEnergyCharge 128895.17578125
scalar OsgEarthNet.uav[30] utilizationEnergyOverdrawMission 0
scalar OsgEarthNet.uav[30] utilizationEnergyOverdrawMaintenance 0
scalar OsgEarthNet.uav[30] utilizationCountMissions 30
scalar OsgEarthNet.uav[30] utilizationCountManeuversMission 307
scalar OsgEarthNet.uav[30] utilizationCountManeuversMaintenance 60
scalar OsgEarthNet.uav[30] utilizationCountChargeState 30
scalar OsgEarthNet.uav[30] utilizationCountOverdrawnAfterMission 0
scalar OsgEarthNet.uav[30] utilizationCountIdleState 30
scalar OsgEarthNet.uav[30] utilizationFail 0
scalar OsgEarthNet.uav[30] simulationTime 259200
scalar OsgEarthNet.uav[31] utilizationSecMission 28226.193305677
scalar OsgEarthNet.uav[31] utilizationSecMaintenance 13481.375961625
scalar OsgEarthNet.uav[31] utilizationSecCharge 153574.0547625
scalar OsgEarthNet.uav[31] utilizationSecIdle 63918.374970194
scalar OsgEarthNet.uav[31] utilizationEnergyMission 130396.18300629
scalar OsgEarthNet.uav[31] utilizationEnergyMaintenance 62981.96881485
scalar OsgEarthNet.uav[31] utilizationEnergyCharge 189513.55480957
scalar OsgEarthNet.uav[31] utilizationEnergyOverdrawMission 0
scalar OsgEarthNet.uav[31] utilizationEnergyOverdrawMaintenance 0
scalar OsgEarthNet.uav[31] utilizationCountMissions 44
scalar OsgEarthNet.uav[31] utilizationCountManeuversMission 464
scalar OsgEarthNet.uav[31] utilizationCountManeuversMaintenance 88
scalar OsgEarthNet.uav[31] utilizationCountChargeState 44
scalar OsgEarthNet.uav[31] utilizationCountOverdrawnAfterMission 0
scalar OsgEarthNet.uav[31] utilizationCountIdleState 44
scalar OsgEarthNet.uav[31] utilizationFail 0
scalar OsgEarthNet.uav[31] simulationTime 259200
scalar OsgEarthNet.uav[32] utilizationSecMission 694.00169469977
scalar OsgEarthNet.uav[32] utilizationSecMaintenance 338.49695459722
scalar OsgEarthNet.uav[32] utilizationSecCharge 3660
scalar OsgEarthNet.uav[32] utilizationSecIdle 254507.5003507
scalar OsgEarthNet.uav[32] utilizationEnergyMission 3047.2682876587
scalar OsgEarthNet.uav[32] utilizationEnergyMaintenance 1520.6842765808
scalar OsgEarthNet.uav[32] utilizationEnergyCharge 4567.955078125
scalar OsgEarthNet.uav[32] utilizationEnergyOverdrawMission 0
scalar OsgEarthNet.uav[32] utilizationEnergyOverdrawMaintenance 0
scalar OsgEarthNet.uav[32] utilizationCountMissions 1
scalar OsgEarthNet.uav[32] utilizationCountManeuversMission 13
scalar OsgEarthNet.uav[32] utilizationCountManeuversMaintenance 2
scalar OsgEarthNet.uav[32] utilizationCountChargeState 1
scalar OsgEarthNet.uav[32] utilizationCountOverdrawnAfterMission 0
scalar OsgEarthNet.uav[32] utilizationCountIdleState 2
scalar OsgEarthNet.uav[32] utilizationFail 0
scalar OsgEarthNet.uav[32] simulationTime 259200
scalar OsgEarthNet.uav[33] utilizationSecMission 760.62515258028
scalar OsgEarthNet.uav[33] utilizationSecMaintenance 291.95923480269
scalar OsgEarthNet.uav[33] utilizationSecCharge 3850
scalar OsgEarthNet.uav[33] utilizationSecIdle 254297.41461262
scalar OsgEarthNet.uav[33] utilizationEnergyMission 3471.5052337647
scalar OsgEarthNet.uav[33] utilizationEnergyMaintenance 1434.8202133179
scalar OsgEarthNet.uav[33] utilizationEnergyCharge 4906.3232421875
scalar OsgEarthNet.uav[33] utilizationEnergyOverdrawMission 0
scalar OsgEarthNet.uav[33] utilizationEnergyOverdrawMaintenance 0
scalar OsgEarthNet.uav[33] utilizationCountMissions 1
scalar OsgEarthNet.uav[33] utilizationCountManeuversMission 12
scalar OsgEarthNet.uav[33] utilizationCountManeuversMaintenance 2
scalar OsgEarthNet.uav[33] utilizationCountChargeState 1
scalar OsgEarthNet.uav[33] utilizationCountOverdrawnAfterMission 0
scalar OsgEarthNet.uav[33] utilizationCountIdleState 2
scalar OsgEarthNet.uav[33] utilizationFail 0
scalar OsgEarthNet.uav[33] simulationTime 259200
scalar OsgEarthNet.uav[34] utilizationSecMission 20946.432561222
scalar OsgEarthNet.uav[34] utilizationSecMaintenance 8432.5020511909
scalar OsgEarthNet.uav[34] utilizationSecCharge 108480
scalar OsgEarthNet.uav[34] utilizationSecIdle 121341.06438759
scalar OsgEarthNet.uav[34] utilizationEnergyMission 96722.173389435
scalar OsgEarthNet.uav[34] utilizationEnergyMaintenance 38989.98261261
scalar OsgEarthNet.uav[34] utilizationEnergyCharge 134962.33178711
scalar OsgEarthNet.uav[34] utilizationEnergyOverdrawMission 0
scalar OsgEarthNet.uav[34] utilizationEnergyOverdrawMaintenance 0
scalar OsgEarthNet.uav[34] utilizationCountMissions 30
scalar OsgEarthNet.uav[34] utilizationCountManeuversMission 355
scalar OsgEarthNet.uav[34] utilizationCountManeuversMaintenance 60
scalar OsgEarthNet.uav[34] utilizationCountChargeState 30
scalar OsgEarthNet.uav[34] utilizationCountOverdrawnAfterMission 0
scalar OsgEarthNet.uav[34] utilizationCountIdleState 31
scalar OsgEarthNet.uav[34] utilizationFail 0
scalar OsgEarthNet.uav[34] simulationTime 259200
scalar OsgEarthNet.uav[35] utilizationSecMission 2272.4000913469
scalar OsgEarthNet.uav[35] utilizationSecMaintenance 776.26329764268
scalar OsgEarthNet.uav[35] utilizationSecCharge 11180
scalar OsgEarthNet.uav[35] utilizationSecIdle 244971.33561101
scalar OsgEarthNet.uav[35] utilizationEnergyMission 10343.157363892
scalar OsgEarthNet.uav[35] utilizationEnergyMaintenance 3508.3475189209
scalar OsgEarthNet.uav[35] utilizationEnergyCharge 13986.452148438
scalar OsgEarthNet.uav[35] utilizationEnergyOverdrawMission 0
scalar OsgEarthNet.uav[35] utilizationEnergyOverdrawMaintenance 0
scalar OsgEarthNet.uav[35] utilizationCountMissions 3
scalar OsgEarthNet.uav[35] utilizationCountManeuversMission 37
scalar OsgEarthNet.uav[35] utilizationCountManeuversMaintenance 6
scalar OsgEarthNet.uav[35] utilizationCountChargeState 3
scalar OsgEarthNet.uav[35] utilizationCountOverdrawnAfterMission 0
scalar OsgEarthNet.uav[35] utilizationCountIdleState 4
scalar OsgEarthNet.uav[35] utilizationFail 0
scalar OsgEarthNet.uav[35] simulationTime 259200
scalar OsgEarthNet.uav[36] utilizationSecMission 760.62515258028
scalar OsgEarthNet.uav[36] utilizationSecMaintenance 291.95923480269
scalar OsgEarthNet.uav[36] utilizationSecCharge 3850
scalar OsgEarthNet.uav[36] utilizationSecIdle 254297.41461262
scalar OsgEarthNet.uav[36] utilizationEnergyMission 3566.7879486084
scalar OsgEarthNet.uav[36] utilizationEnergyMaintenance 1333.6955490112
scalar OsgEarthNet.uav[36] utilizationEnergyCharge 4900.4819335938
scalar OsgEarthNet.uav[36] utilizationEnergyOverdrawMission 0
scalar OsgEarthNet.uav[36] utilizationEnergyOverdrawMaintenance 0
scalar OsgEarthNet.uav[36] utilizationCountMissions 1
scalar OsgEarthNet.uav[36] utilizationCountManeuversMission 12
scalar OsgEarthNet.uav[36] utilizationCountManeuversMaintenance 2
scalar OsgEarthNet.uav[36] utilizationCountChargeState 1
scalar OsgEarthNet.uav[36] utilizationCountOverdrawnAfterMission 0
scalar OsgEarthNet.uav[36] utilizationCountIdleState 2
scalar OsgEarthNet.uav[36] utilizationFail 0
scalar OsgEarthNet.uav[36] simulationTime 259200
scalar OsgEarthNet.uav[37] utilizationSecMission 29703.84321765
scalar OsgEarthNet.uav[37] utilizationSecMaintenance 12280.009662537
scalar OsgEarthNet.uav[37] utilizationSecCharge 152572.86667323
scalar OsgEarthNet.uav[37] utilizationSecIdle 64643.279446582
scalar OsgEarthNet.uav[37] utilizationEnergyMission 137338.95480728
scalar OsgEarthNet.uav[37] utilizationEnergyMaintenance 57281.366317749
scalar OsgEarthNet.uav[37] utilizationEnergyCharge 189520.72680664
scalar OsgEarthNet.uav[37] utilizationEnergyOverdrawMission 0
scalar OsgEarthNet.uav[37] utilizationEnergyOverdrawMaintenance 0
scalar OsgEarthNet.uav[37] utilizationCountMissions 43
scalar OsgEarthNet.uav[37] utilizationCountManeuversMission 491
scalar OsgEarthNet.uav[37] utilizationCountManeuversMaintenance 86
scalar OsgEarthNet.uav[37] utilizationCountChargeState 43
scalar OsgEarthNet.uav[37] utilizationCountOverdrawnAfterMission 0
scalar OsgEarthNet.uav[37] utilizationCountIdleState 43
scalar OsgEarthNet.uav[37] utilizationFail 0
scalar OsgEarthNet.uav[37] simulationTime 259200
scalar OsgEarthNet.uav[38] utilizationSecMission 887.1741082606
scalar OsgEarthNet.uav[38] utilizationSecMaintenance 148.2728194454
scalar OsgEarthNet.uav[38] utilizationSecCharge 3740
scalar OsgEarthNet.uav[38] utilizationSecIdle 254424.55207229
scalar OsgEarthNet.uav[38] utilizationEnergyMission 3987.0250396729
scalar OsgEarthNet.uav[38] utilizationEnergyMaintenance 717.71950531006
scalar OsgEarthNet.uav[38] utilizationEnergyCharge 4707.2641601562
scalar OsgEarthNet.uav[38] utilizationEnergyOverdrawMission 0
scalar OsgEarthNet.uav[38] utilizationEnergyOverdrawMaintenance 0
scalar OsgEarthNet.uav[38] utilizationCountMissions 1
scalar OsgEarthNet.uav[38] utilizationCountManeuversMission 14
scalar OsgEarthNet.uav[38] utilizationCountManeuversMaintenance 2
scalar OsgEarthNet.uav[38] utilizationCountChargeState 1
scalar OsgEarthNet.uav[38] utilizationCountOverdrawnAfterMission 0
scalar OsgEarthNet.uav[38] utilizationCountIdleState 2
scalar OsgEarthNet.uav[38] utilizationFail 0
scalar OsgEarthNet.uav[38] simulationTime 259200
scalar OsgEarthNet.uav[39] utilizationSecMission 760.62515258028
scalar OsgEarthNet.uav[39] utilizationSecMaintenance 291.95923480269
scalar OsgEarthNet.uav[39] utilizationSecCharge 3820
scalar OsgEarthNet.uav[39] utilizationSecIdle 254327.41461262
scalar OsgEarthNet.uav[39] utilizationEnergyMission 3522.8452072144
scalar OsgEarthNet.uav[39] utilizationEnergyMaintenance 1321.5848312378
scalar OsgEarthNet.uav[39] utilizationEnergyCharge 4844.43359375
scalar OsgEarthNet.uav[39] utilizationEnergyOverdrawMission 0
scalar OsgEarthNet.uav[39] utilizationEnergyOverdrawMaintenance 0
scalar OsgEarthNet.uav[39] utilizationCountMissions 1
scalar OsgEarthNet.uav[39] utilizationCountManeuversMission 12
scalar OsgEarthNet.uav[39] utilizationCountManeuversMaintenance 2
scalar OsgEarthNet.uav[39] utilizationCountChargeState 1
scalar OsgEarthNet.uav[39] utilizationCountOverdrawnAfterMission 0
scalar OsgEarthNet.uav[39] utilizationCountIdleState 2
scalar OsgEarthNet.uav[39] utilizationFail 0
scalar OsgEarthNet.uav[39] simulationTime 259200
scalar OsgEarthNet.uav[40] utilizationSecMission 29469.974839344
scalar OsgEarthNet.uav[40] utilizationSecMaintenance 13400.954681377
scalar OsgEarthNet.uav[40] utilizationSecCharge 162830
scalar OsgEarthNet.uav[40] utilizationSecIdle 53499.069479279
scalar OsgEarthNet.uav[40] utilizationEnergyMission 136921.25571056
scalar OsgEarthNet.uav[40] utilizationEnergyMaintenance 62788.399269104
scalar OsgEarthNet.uav[40] utilizationEnergyCharge 200106.08227539
scalar OsgEarthNet.uav[40] utilizationEnergyOverdrawMission 0
scalar OsgEarthNet.uav[40] utilizationEnergyOverdrawMaintenance 0
scalar OsgEarthNet.uav[40] utilizationCountMissions 46
scalar OsgEarthNet.uav[40] utilizationCountManeuversMission 499
scalar OsgEarthNet.uav[40] utilizationCountManeuversMaintenance 91
scalar OsgEarthNet.uav[40] utilizationCountChargeState 46
scalar OsgEarthNet.uav[40] utilizationCountOverdrawnAfterMission 0
scalar OsgEarthNet.uav[40] utilizationCountIdleState 47
scalar OsgEarthNet.uav[40] utilizationFail 0
scalar OsgEarthNet.uav[40] simulationTime 259200
scalar OsgEarthNet.uav[41] utilizationSecMission 24858.643546516
scalar OsgEarthNet.uav[41] utilizationSecMaintenance 9097.2544200923
scalar OsgEarthNet.uav[41] utilizationSecCharge 125460
scalar OsgEarthNet.uav[41] utilizationSecIdle 99784.101033391
scalar OsgEarthNet.uav[41] utilizationEnergyMission 114349.16527557
scalar OsgEarthNet.uav[41] utilizationEnergyMaintenance 42552.986225128
scalar OsgEarthNet.uav[41] utilizationEnergyCharge 156986.78344727
scalar OsgEarthNet.uav[41] utilizationEnergyOverdrawMission 0
scalar OsgEarthNet.uav[41] utilizationEnergyOverdrawMaintenance 0
scalar OsgEarthNet.uav[41] utilizationCountMissions 34
scalar OsgEarthNet.uav[41] utilizationCountManeuversMission 411
scalar OsgEarthNet.uav[41] utilizationCountManeuversMaintenance 68
scalar OsgEarthNet.uav[41] utilizationCountChargeState 34
scalar OsgEarthNet.uav[41] utilizationCountOverdrawnAfterMission 0
scalar OsgEarthNet.uav[41] utilizationCountIdleState 35
scalar OsgEarthNet.uav[41] utilizationFail 0
scalar OsgEarthNet.uav[41] simulationTime 259200
scalar OsgEarthNet.uav[42] utilizationSecMission 20375.242048878
scalar OsgEarthNet.uav[42] utilizationSecMaintenance 7818.0515885804
scalar OsgEarthNet.uav[42] utilizationSecCharge 102500
scalar OsgEarthNet.uav[42] utilizationSecIdle 128506.70536254
scalar OsgEarthNet.uav[42] utilizationEnergyMission 94831.488345522
scalar OsgEarthNet.uav[42] utilizationEnergyMaintenance 36099.765686035
scalar OsgEarthNet.uav[42] utilizationEnergyCharge 127674.52124023
scalar OsgEarthNet.uav[42] utilizationEnergyOverdrawMission 0
scalar OsgEarthNet.uav[42] utilizationEnergyOverdrawMaintenance 0
scalar OsgEarthNet.uav[42] utilizationCountMissions 28
scalar OsgEarthNet.uav[42] utilizationCountManeuversMission 335
scalar OsgEarthNet.uav[42] utilizationCountManeuversMaintenance 57
scalar OsgEarthNet.uav[42] utilizationCountChargeState 28
scalar OsgEarthNet.uav[42] utilizationCountOverdrawnAfterMission 0
scalar OsgEarthNet.uav[42] utilizationCountIdleState 29
scalar OsgEarthNet.uav[42] utilizationFail 0
scalar OsgEarthNet.uav[42] simulationTime 259200
scalar OsgEarthNet.uav[43] utilizationSecMission 750.20472747826
scalar OsgEarthNet.uav[43] utilizationSecMaintenance 261.68051383311
scalar OsgEarthNet.uav[43] utilizationSecCharge 3740
scalar OsgEarthNet.uav[43] utilizationSecIdle 254448.11375869
scalar OsgEarthNet.uav[43] utilizationEnergyMission 3470.416885376
scalar OsgEarthNet.uav[43] utilizationEnergyMaintenance 1246.2211418152
scalar OsgEarthNet.uav[43] utilizationEnergyCharge 4716.6342773438
scalar OsgEarthNet.uav[43] utilizationEnergyOverdrawMission 0
scalar OsgEarthNet.uav[43] utilizationEnergyOverdrawMaintenance 0
scalar OsgEarthNet.uav[43] utilizationCountMissions 1
scalar OsgEarthNet.uav[43] utilizationCountManeuversMission 11
scalar OsgEarthNet.uav[43] utilizationCountManeuversMaintenance 2
scalar OsgEarthNet.uav[43] utilizationCountChargeState 1
scalar OsgEarthNet.uav[43] utilizationCountOverdrawnAfterMission 0
scalar OsgEarthNet.uav[43] utilizationCountIdleState 2
scalar OsgEarthNet.uav[43] utilizationFail 0
scalar OsgEarthNet.uav[43] simulationTime 259200
scalar OsgEarthNet.uav[44] utilizationSecMission 7925.3172237496
scalar OsgEarthNet.uav[44] utilizationSecMaintenance 3343.0938529697
scalar OsgEarthNet.uav[44] utilizationSecCharge 39371.422478306
scalar OsgEarthNet.uav[44] utilizationSecIdle 208560.16544497
scalar OsgEarthNet.uav[44] utilizationEnergyMission 36724.110168457
scalar OsgEarthNet.uav[44] utilizationEnergyMaintenance 16036.104751587
scalar OsgEarthNet.uav[44] utilizationEnergyCharge 48622.68762207
scalar OsgEarthNet.uav[44] utilizationEnergyOverdrawMission 0
scalar OsgEarthNet.uav[44] utilizationEnergyOverdrawMaintenance 0
scalar OsgEarthNet.uav[44] utilizationCountMissions 12
scalar OsgEarthNet.uav[44] utilizationCountManeuversMission 138
scalar OsgEarthNet.uav[44] utilizationCountManeuversMaintenance 24
scalar OsgEarthNet.uav[44] utilizationCountChargeState 12
scalar OsgEarthNet.uav[44] utilizationCountOverdrawnAfterMission 0
scalar OsgEarthNet.uav[44] utilizationCountIdleState 12
scalar OsgEarthNet.uav[44] utilizationFail 0
scalar OsgEarthNet.uav[44] simulationTime 259200
scalar OsgEarthNet.uav[45] utilizationSecMission 887.1741082606
scalar OsgEarthNet.uav[45] utilizationSecMaintenance 148.2728194454
scalar OsgEarthNet.uav[45] utilizationSecCharge 3760
scalar OsgEarthNet.uav[45] utilizationSecIdle 254404.55207229
scalar OsgEarthNet.uav[45] utilizationEnergyMission 4348.1603546143
scalar OsgEarthNet.uav[45] utilizationEnergyMaintenance 651.08960723877
scalar OsgEarthNet.uav[45] utilizationEnergyCharge 4718.8647460938
scalar OsgEarthNet.uav[45] utilizationEnergyOverdrawMission 0
scalar OsgEarthNet.uav[45] utilizationEnergyOverdrawMaintenance 0
scalar OsgEarthNet.uav[45] utilizationCountMissions 1
scalar OsgEarthNet.uav[45] utilizationCountManeuversMission 14
scalar OsgEarthNet.uav[45] utilizationCountManeuversMaintenance 2
scalar OsgEarthNet.uav[45] utilizationCountChargeState 1
scalar OsgEarthNet.uav[45] utilizationCountOverdrawnAfterMission 0
scalar OsgEarthNet.uav[45] utilizationCountIdleState 2
scalar OsgEarthNet.uav[45] utilizationFail 0
scalar OsgEarthNet.uav[45] simulationTime 259200
scalar OsgEarthNet.uav[46] utilizationSecMission 1479.7471601298
scalar OsgEarthNet.uav[46] utilizationSecMaintenance 774.79170145232
scalar OsgEarthNet.uav[46] utilizationSecCharge 7460.0619452098
scalar OsgEarthNet.uav[46] utilizationSecIdle 249485.39819321
scalar OsgEarthNet.uav[46] utilizationEnergyMission 6793.7713928223
scalar OsgEarthNet.uav[46] utilizationEnergyMaintenance 3701.5301971435
scalar OsgEarthNet.uav[46] utilizationEnergyCharge 9315.7180175781
scalar OsgEarthNet.uav[46] utilizationEnergyOverdrawMission 0
scalar OsgEarthNet.uav[46] utilizationEnergyOverdrawMaintenance 0
scalar OsgEarthNet.uav[46] utilizationCountMissions 3
scalar OsgEarthNet.uav[46] utilizationCountManeuversMission 23
scalar OsgEarthNet.uav[46] utilizationCountManeuversMaintenance 6
scalar OsgEarthNet.uav[46] utilizationCountChargeState 3
scalar OsgEarthNet.uav[46] utilizationCountOverdrawnAfterMission 0
scalar OsgEarthNet.uav[46] utilizationCountIdleState 3
scalar OsgEarthNet.uav[46] utilizationFail 0
scalar OsgEarthNet.uav[46] simulationTime 259200
scalar OsgEarthNet.uav[47] utilizationSecMission 28639.769148304
scalar OsgEarthNet.uav[47] utilizationSecMaintenance 11681.87725472
scalar OsgEarthNet.uav[47] utilizationSecCharge 152670
scalar OsgEarthNet.uav[47] utilizationSecIdle 66208.352596976
scalar OsgEarthNet.uav[47] utilizationEnergyMission 132595.12622554
scalar OsgEarthNet.uav[47] utilizationEnergyMaintenance 55015.699146271
scalar OsgEarthNet.uav[47] utilizationEnergyCharge 186152.6875
scalar OsgEarthNet.uav[47] utilizationEnergyOverdrawMission 0
scalar OsgEarthNet.uav[47] utilizationEnergyOverdrawMaintenance 0
scalar OsgEarthNet.uav[47] utilizationCountMissions 44
scalar OsgEarthNet.uav[47] utilizationCountManeuversMission 467
scalar OsgEarthNet.uav[47] utilizationCountManeuversMaintenance 89
scalar OsgEarthNet.uav[47] utilizationCountChargeState 44
scalar OsgEarthNet.uav[47] utilizationCountOverdrawnAfterMission 0
scalar OsgEarthNet.uav[47] utilizationCountIdleState 45
scalar OsgEarthNet.uav[47] utilizationFail 0
scalar OsgEarthNet.uav[47] simulationTime 259200
scalar OsgEarthNet.uav[48] utilizationSecMission 1460.8290423374
scalar OsgEarthNet.uav[48] utilizationSecMaintenance 645.55379479307
scalar OsgEarthNet.uav[48] utilizationSecCharge 7660
scalar OsgEarthNet.uav[48] utilizationSecIdle 249433.61616287
scalar OsgEarthNet.uav[48] utilizationEnergyMission 6729.4212341308
scalar OsgEarthNet.uav[48] utilizationEnergyMaintenance 3067.0068092346
scalar OsgEarthNet.uav[48] utilizationEnergyCharge 9705.9418945312
scalar OsgEarthNet.uav[48] utilizationEnergyOverdrawMission 0
scalar OsgEarthNet.uav[48] utilizationEnergyOverdrawMaintenance 0
scalar OsgEarthNet.uav[48] utilizationCountMissions 2
scalar OsgEarthNet.uav[48] utilizationCountManeuversMission 27
scalar OsgEarthNet.uav[48] utilizationCountManeuversMaintenance 4
scalar OsgEarthNet.uav[48] utilizationCountChargeState 2
scalar OsgEarthNet.uav[48] utilizationCountOverdrawnAfterMission 0
scalar OsgEarthNet.uav[48] utilizationCountIdleState 3
scalar OsgEarthNet.uav[48] utilizationFail 0
scalar OsgEarthNet.uav[48] simulationTime 259200
scalar OsgEarthNet.uav[49] utilizationSecMission 25297.032060474
scalar OsgEarthNet.uav[49] utilizationSecMaintenance 11976.167715448
scalar OsgEarthNet.uav[49] utilizationSecCharge 139850
scalar OsgEarthNet.uav[49] utilizationSecIdle 82076.799224078
scalar OsgEarthNet.uav[49] utilizationEnergyMission 117452.47496375
scalar OsgEarthNet.uav[49] utilizationEnergyMaintenance 56164.066509247
scalar OsgEarthNet.uav[49] utilizationEnergyCharge 171017.40917969
scalar OsgEarthNet.uav[49] utilizationEnergyOverdrawMission 0
scalar OsgEarthNet.uav[49] utilizationEnergyOverdrawMaintenance 0
scalar OsgEarthNet.uav[49] utilizationCountMissions 40
scalar OsgEarthNet.uav[49] utilizationCountManeuversMission 415
scalar OsgEarthNet.uav[49] utilizationCountManeuversMaintenance 81
scalar OsgEarthNet.uav[49] utilizationCountChargeState 40
scalar OsgEarthNet.uav[49] utilizationCountOverdrawnAfterMission 0
scalar OsgEarthNet.uav[49] utilizationCountIdleState 41
scalar OsgEarthNet.uav[49] utilizationFail 0
scalar OsgEarthNet.uav[49] simulationTime 259200
scalar OsgEarthNet.uav[50] utilizationSecMission 836.77707522227
scalar OsgEarthNet.uav[50] utilizationSecMaintenance 217.0347828456
scalar OsgEarthNet.uav[50] utilizationSecCharge 3880
scalar OsgEarthNet.uav[50] utilizationSecIdle 254266.18714193
scalar OsgEarthNet.uav[50] utilizationEnergyMission 3971.9774780273
scalar OsgEarthNet.uav[50] utilizationEnergyMaintenance 966.48328781128
scalar OsgEarthNet.uav[50] utilizationEnergyCharge 4938.4614257812
scalar OsgEarthNet.uav[50] utilizationEnergyOverdrawMission 0
scalar OsgEarthNet.uav[50] utilizationEnergyOverdrawMaintenance 0
scalar OsgEarthNet.uav[50] utilizationCountMissions 1
scalar OsgEarthNet.uav[50] utilizationCountManeuversMission 13
scalar OsgEarthNet.uav[50] utilizationCountManeuversMaintenance 2
scalar OsgEarthNet.uav[50] utilizationCountChargeState 1
scalar OsgEarthNet.uav[50] utilizationCountOverdrawnAfterMission 0
scalar OsgEarthNet.uav[50] utilizationCountIdleState 2
scalar OsgEarthNet.uav[50] utilizationFail 0
scalar OsgEarthNet.uav[50] simulationTime 259200
scalar OsgEarthNet.uav[51] utilizationSecMission 23664.35708145
scalar OsgEarthNet.uav[51] utilizationSecMaintenance 10881.141801407
scalar OsgEarthNet.uav[51] utilizationSecCharge 132240
scalar OsgEarthNet.uav[51] utilizationSecIdle 92414.500117143
scalar OsgEarthNet.uav[51] utilizationEnergyMission 110272.38176727
scalar OsgEarthNet.uav[51] utilizationEnergyMaintenance 51294.208194733
scalar OsgEarthNet.uav[51] utilizationEnergyCharge 161558.55688477
scalar OsgEarthNet.uav[51] utilizationEnergyOverdrawMission 0
scalar OsgEarthNet.uav[51] utilizationEnergyOverdrawMaintenance 0
scalar OsgEarthNet.uav[51] utilizationCountMissions 38
scalar OsgEarthNet.uav[51] utilizationCountManeuversMission 385
scalar OsgEarthNet.uav[51] utilizationCountManeuversMaintenance 76
scalar OsgEarthNet.uav[51] utilizationCountChargeState 38
scalar OsgEarthNet.uav[51] utilizationCountOverdrawnAfterMission 0
scalar OsgEarthNet.uav[51] utilizationCountIdleState 39
scalar OsgEarthNet.uav[51] utilizationFail 0
scalar OsgEarthNet.uav[51] simulationTime 259200
scalar OsgEarthNet.uav[52] utilizationSecMission 29497.222495411
scalar OsgEarthNet.uav[52] utilizationSecMaintenance 12505.08463826
scalar OsgEarthNet.uav[52] utilizationSecCharge 157030
scalar OsgEarthNet.uav[52] utilizationSecIdle 60167.691866328
scalar OsgEarthNet.uav[52] utilizationEnergyMission 136634.69679642
scalar OsgEarthNet.uav[52] utilizationEnergyMaintenance 58753.28338623
scalar OsgEarthNet.uav[52] utilizationEnergyCharge 195419.37158203
scalar OsgEarthNet.uav[52] utilizationEnergyOverdrawMission 0
scalar OsgEarthNet.uav[52] utilizationEnergyOverdrawMaintenance 0
scalar OsgEarthNet.uav[52] utilizationCountMissions 43
scalar OsgEarthNet.uav[52] utilizationCountManeuversMission 483
scalar OsgEarthNet.uav[52] utilizationCountManeuversMaintenance 86
scalar OsgEarthNet.uav[52] utilizationCountChargeState 43
scalar OsgEarthNet.uav[52] utilizationCountOverdrawnAfterMission 0
scalar OsgEarthNet.uav[52] utilizationCountIdleState 44
scalar OsgEarthNet.uav[52] utilizationFail 0
scalar OsgEarthNet.uav[52] simulationTime 259200
scalar OsgEarthNet.uav[53] utilizationSecMission 24232.293501961
scalar OsgEarthNet.uav[53] utilizationSecMaintenance 9937.1367600436
scalar OsgEarthNet.uav[53] utilizationSecCharge 126670.92067064
scalar OsgEarthNet.uav[53] utilizationSecIdle 98359.648067353
scalar OsgEarthNet.uav[53] utilizationEnergyMission 111407.4403801
scalar OsgEarthNet.uav[53] utilizationEnergyMaintenance 46688.097084045
scalar OsgEarthNet.uav[53] utilizationEnergyCharge 158085.96289062
scalar OsgEarthNet.uav[53] utilizationEnergyOverdrawMission 0
scalar OsgEarthNet.uav[53] utilizationEnergyOverdrawMaintenance 0
scalar OsgEarthNet.uav[53] utilizationCountMissions 35
scalar OsgEarthNet.uav[53] utilizationCountManeuversMission 398
scalar OsgEarthNet.uav[53] utilizationCountManeuversMaintenance 70
scalar OsgEarthNet.uav[53] utilizationCountChargeState 35
scalar OsgEarthNet.uav[53] utilizationCountOverdrawnAfterMission 0
scalar OsgEarthNet.uav[53] utilizationCountIdleState 35
scalar OsgEarthNet.uav[53] utilizationFail 0
scalar OsgEarthNet.uav[53] simulationTime 259200
scalar OsgEarthNet.uav[54] utilizationSecMission 25054.776707608
scalar OsgEarthNet.uav[54] utilizationSecMaintenance 11135.842365831
scalar OsgEarthNet.uav[54] utilizationSecCharge 137040
scalar OsgEarthNet.uav[54] utilizationSecIdle 85969.379926561
scalar OsgEarthNet.uav[54] utilizationEnergyMission 117284.21257782
scalar OsgEarthNet.uav[54] utilizationEnergyMaintenance 52380.865406036
scalar OsgEarthNet.uav[54] utilizationEnergyCharge 169929.89770508
scalar OsgEarthNet.uav[54] utilizationEnergyOverdrawMission 0
scalar OsgEarthNet.uav[54] utilizationEnergyOverdrawMaintenance 0
scalar OsgEarthNet.uav[54] utilizationCountMissions 38
scalar OsgEarthNet.uav[54] utilizationCountManeuversMission 413
scalar OsgEarthNet.uav[54] utilizationCountManeuversMaintenance 76
scalar OsgEarthNet.uav[54] utilizationCountChargeState 38
scalar OsgEarthNet.uav[54] utilizationCountOverdrawnAfterMission 0
scalar OsgEarthNet.uav[54] utilizationCountIdleState 39
scalar OsgEarthNet.uav[54] utilizationFail 0
scalar OsgEarthNet.uav[54] simulationTime 259200
scalar OsgEarthNet.uav[55] utilizationSecMission 31178.79044117
scalar OsgEarthNet.uav[55] utilizationSecMaintenance 12776.43345531
scalar OsgEarthNet.uav[55] utilizationSecCharge 165758.73900475
scalar OsgEarthNet.uav[55] utilizationSecIdle 49486.036098769
scalar OsgEarthNet.uav[55] utilizationEnergyMission 145239.60505676
scalar OsgEarthNet.uav[55] utilizationEnergyMaintenance 59385.576625824
scalar OsgEarthNet.uav[55] utilizationEnergyCharge 204570.45922852
scalar OsgEarthNet.uav[55] utilizationEnergyOverdrawMission 0
scalar OsgEarthNet.uav[55] utilizationEnergyOverdrawMaintenance 0
scalar OsgEarthNet.uav[55] utilizationCountMissions 47
scalar OsgEarthNet.uav[55] utilizationCountManeuversMission 494
scalar OsgEarthNet.uav[55] utilizationCountManeuversMaintenance 94
scalar OsgEarthNet.uav[55] utilizationCountChargeState 47
scalar OsgEarthNet.uav[55] utilizationCountOverdrawnAfterMission 0
scalar OsgEarthNet.uav[55] utilizationCountIdleState 47
scalar OsgEarthNet.uav[55] utilizationFail 0
scalar OsgEarthNet.uav[55] simulationTime 259200
scalar OsgEarthNet.uav[56] utilizationSecMission 750.20472747826
scalar OsgEarthNet.uav[56] utilizationSecMaintenance 261.68051383311
scalar OsgEarthNet.uav[56] utilizationSecCharge 3780
scalar OsgEarthNet.uav[56] utilizationSecIdle 254408.11375869
scalar OsgEarthNet.uav[56] utilizationEnergyMission 3496.7616424561
scalar OsgEarthNet.uav[56] utilizationEnergyMaintenance 1271.8499565125
scalar OsgEarthNet.uav[56] utilizationEnergyCharge 4768.6108398438
scalar OsgEarthNet.uav[56] utilizationEnergyOverdrawMission 0
scalar OsgEarthNet.uav[56] utilizationEnergyOverdrawMaintenance 0
scalar OsgEarthNet.uav[56] utilizationCountMissions 1
scalar OsgEarthNet.uav[56] utilizationCountManeuversMission 11
scalar OsgEarthNet.uav[56] utilizationCountManeuversMaintenance 2
scalar OsgEarthNet.uav[56] utilizationCountChargeState 1
scalar OsgEarthNet.uav[56] utilizationCountOverdrawnAfterMission 0
scalar OsgEarthNet.uav[56] utilizationCountIdleState 2
scalar OsgEarthNet.uav[56] utilizationFail 0
scalar OsgEarthNet.uav[56] simulationTime 259200
scalar OsgEarthNet.uav[57] utilizationSecMission 10506.192881454
scalar OsgEarthNet.uav[57] utilizationSecMaintenance 4802.5175086403
scalar OsgEarthNet.uav[57] utilizationSecCharge 57150
scalar OsgEarthNet.uav[57] utilizationSecIdle 186741.28860991
scalar OsgEarthNet.uav[57] utilizationEnergyMission 48251.336921692
scalar OsgEarthNet.uav[57] utilizationEnergyMaintenance 22295.607219696
scalar OsgEarthNet.uav[57] utilizationEnergyCharge 70546.94921875
scalar OsgEarthNet.uav[57] utilizationEnergyOverdrawMission 0
scalar OsgEarthNet.uav[57] utilizationEnergyOverdrawMaintenance 0
scalar OsgEarthNet.uav[57] utilizationCountMissions 16
scalar OsgEarthNet.uav[57] utilizationCountManeuversMission 176
scalar OsgEarthNet.uav[57] utilizationCountManeuversMaintenance 32
scalar OsgEarthNet.uav[57] utilizationCountChargeState 16
scalar OsgEarthNet.uav[57] utilizationCountOverdrawnAfterMission 0
scalar OsgEarthNet.uav[57] utilizationCountIdleState 17
scalar OsgEarthNet.uav[57] utilizationFail 0
scalar OsgEarthNet.uav[57] simulationTime 259200
scalar OsgEarthNet.uav[58] utilizationSecMission 25404.118060291
scalar OsgEarthNet.uav[58] utilizationSecMaintenance 8201.1695086946
scalar OsgEarthNet.uav[58] utilizationSecCharge 123321.76675004
scalar OsgEarthNet.uav[58] utilizationSecIdle 102272.94468098
scalar OsgEarthNet.uav[58] utilizationEnergyMission 117258.85017014
scalar OsgEarthNet.uav[58] utilizationEnergyMaintenance 38044.121776581
scalar OsgEarthNet.uav[58] utilizationEnergyCharge 155336.67724609
scalar OsgEarthNet.uav[58] utilizationEnergyOverdrawMission 0
scalar OsgEarthNet.uav[58] utilizationEnergyOverdrawMaintenance 0
scalar OsgEarthNet.uav[58] utilizationCountMissions 33
scalar OsgEarthNet.uav[58] utilizationCountManeuversMission 419
scalar OsgEarthNet.uav[58] utilizationCountManeuversMaintenance 66
scalar OsgEarthNet.uav[58] utilizationCountChargeState 33
scalar OsgEarthNet.uav[58] utilizationCountOverdrawnAfterMission 0
scalar OsgEarthNet.uav[58] utilizationCountIdleState 33
scalar OsgEarthNet.uav[58] utilizationFail 0
scalar OsgEarthNet.uav[58] simulationTime 259200
scalar OsgEarthNet.uav[59] utilizationSecMission 26838.181048997
scalar OsgEarthNet.uav[59] utilizationSecMaintenance 11828.786541788
scalar OsgEarthNet.uav[59] utilizationSecCharge 147130
scalar OsgEarthNet.uav[59] utilizationSecIdle 73403.031409216
scalar OsgEarthNet.uav[59] utilizationEnergyMission 124915.08527374
scalar OsgEarthNet.uav[59] utilizationEnergyMaintenance 55444.528648376
scalar OsgEarthNet.uav[59] utilizationEnergyCharge 180264.375
scalar OsgEarthNet.uav[59] utilizationEnergyOverdrawMission 0
scalar OsgEarthNet.uav[59] utilizationEnergyOverdrawMaintenance 0
scalar OsgEarthNet.uav[59] utilizationCountMissions 42
scalar OsgEarthNet.uav[59] utilizationCountManeuversMission 439
scalar OsgEarthNet.uav[59] utilizationCountManeuversMaintenance 84
scalar OsgEarthNet.uav[59] utilizationCountChargeState 42
scalar OsgEarthNet.uav[59] utilizationCountOverdrawnAfterMission 0
scalar OsgEarthNet.uav[59] utilizationCountIdleState 43
scalar OsgEarthNet.uav[59] utilizationFail 0
scalar OsgEarthNet.uav[59] simulationTime 259200
scalar OsgEarthNet.uav[60] utilizationSecMission 760.62515258028
scalar OsgEarthNet.uav[60] utilizationSecMaintenance 291.95923480269
scalar OsgEarthNet.uav[60] utilizationSecCharge 3760
scalar OsgEarthNet.uav[60] utilizationSecIdle 254387.41461262
scalar OsgEarthNet.uav[60] utilizationEnergyMission 3268.0424346924
scalar OsgEarthNet.uav[60] utilizationEnergyMaintenance 1406.4792098999
scalar OsgEarthNet.uav[60] utilizationEnergyCharge 4674.51953125
scalar OsgEarthNet.uav[60] utilizationEnergyOverdrawMission 0
scalar OsgEarthNet.uav[60] utilizationEnergyOverdrawMaintenance 0
scalar OsgEarthNet.uav[60] utilizationCountMissions 1
scalar OsgEarthNet.uav[60] utilizationCountManeuversMission 12
scalar OsgEarthNet.uav[60] utilizationCountManeuversMaintenance 2
scalar OsgEarthNet.uav[60] utilizationCountChargeState 1
scalar OsgEarthNet.uav[60] utilizationCountOverdrawnAfterMission 0
scalar OsgEarthNet.uav[60] utilizationCountIdleState 2
scalar OsgEarthNet.uav[60] utilizationFail 0
scalar OsgEarthNet.uav[60] simulationTime 259200
scalar OsgEarthNet.uav[61] utilizationSecMission 494.14522745751
scalar OsgEarthNet.uav[61] utilizationSecMaintenance 475.67121193677
scalar OsgEarthNet.uav[61] utilizationSecCharge 3750
scalar OsgEarthNet.uav[61] utilizationSecIdle 254480.18256061
scalar OsgEarthNet.uav[61] utilizationEnergyMission 2190.0278320313
scalar OsgEarthNet.uav[61] utilizationEnergyMaintenance 2396.9295768738
scalar OsgEarthNet.uav[61] utilizationEnergyCharge 4696.9331054688
scalar OsgEarthNet.uav[61] utilizationEnergyOverdrawMission 0
scalar OsgEarthNet.uav[61] utilizationEnergyOverdrawMaintenance 0
scalar OsgEarthNet.uav[61] utilizationCountMissions 1
scalar OsgEarthNet.uav[61] utilizationCountManeuversMission 8
scalar OsgEarthNet.uav[61] utilizationCountManeuversMaintenance 2
scalar OsgEarthNet.uav[61] utilizationCountChargeState 1
scalar OsgEarthNet.uav[61] utilizationCountOverdrawnAfterMission 0
scalar OsgEarthNet.uav[61] utilizationCountIdleState 2
scalar OsgEarthNet.uav[61] utilizationFail 0
scalar OsgEarthNet.uav[61] simulationTime 259200
scalar OsgEarthNet.uav[62] utilizationSecMission 27180.987142102
scalar OsgEarthNet.uav[62] utilizationSecMaintenance 11582.358548574
scalar OsgEarthNet.uav[62] utilizationSecCharge 144020
scalar OsgEarthNet.uav[62] utilizationSecIdle 76416.653309323
scalar OsgEarthNet.uav[62] utilizationEnergyMission 126406.54312744
scalar OsgEarthNet.uav[62] utilizationEnergyMaintenance 55332.519668579
scalar OsgEarthNet.uav[62] utilizationEnergyCharge 178098.73095703
scalar OsgEarthNet.uav[62] utilizationEnergyOverdrawMission 0
scalar OsgEarthNet.uav[62] utilizationEnergyOverdrawMaintenance 0
scalar OsgEarthNet.uav[62] utilizationCountMissions 40
scalar OsgEarthNet.uav[62] utilizationCountManeuversMission 436
scalar OsgEarthNet.uav[62] utilizationCountManeuversMaintenance 81
scalar OsgEarthNet.uav[62] utilizationCountChargeState 40
scalar OsgEarthNet.uav[62] utilizationCountOverdrawnAfterMission 0
scalar OsgEarthNet.uav[62] utilizationCountIdleState 41
scalar OsgEarthNet.uav[62] utilizationFail 0
scalar OsgEarthNet.uav[62] simulationTime 259200
scalar OsgEarthNet.uav[63] utilizationSecMission 623.68863475643
scalar OsgEarthNet.uav[63] utilizationSecMaintenance 394.94199877579
scalar OsgEarthNet.uav[63] utilizationSecCharge 3710
scalar OsgEarthNet.uav[63] utilizationSecIdle 254471.36836647
scalar OsgEarthNet.uav[63] utilizationEnergyMission 2701.111831665
scalar OsgEarthNet.uav[63] utilizationEnergyMaintenance 1883.2182540894
scalar OsgEarthNet.uav[63] utilizationEnergyCharge 4712.6342773438
scalar OsgEarthNet.uav[63] utilizationEnergyOverdrawMission 0
scalar OsgEarthNet.uav[63] utilizationEnergyOverdrawMaintenance 0
scalar OsgEarthNet.uav[63] utilizationCountMissions 1
scalar OsgEarthNet.uav[63] utilizationCountManeuversMission 10
scalar OsgEarthNet.uav[63] utilizationCountManeuversMaintenance 2
scalar OsgEarthNet.uav[63] utilizationCountChargeState 1
scalar OsgEarthNet.uav[63] utilizationCountOverdrawnAfterMission 0
scalar OsgEarthNet.uav[63] utilizationCountIdleState 2
scalar OsgEarthNet.uav[63] utilizationFail 0
scalar OsgEarthNet.uav[63] simulationTime 259200
scalar OsgEarthNet.uav[64] utilizationSecMission 30822.493030672
scalar OsgEarthNet.uav[64] utilizationSecMaintenance 10568.200674046
scalar OsgEarthNet.uav[64] utilizationSecCharge 153411.99021935
scalar OsgEarthNet.uav[64] utilizationSecIdle 64397.315075928
scalar OsgEarthNet.uav[64] utilizationEnergyMission 142043.01032257
scalar OsgEarthNet.uav[64] utilizationEnergyMaintenance 49972.673938751
scalar OsgEarthNet.uav[64] utilizationEnergyCharge 191768.48120117
scalar OsgEarthNet.uav[64] utilizationEnergyOverdrawMission 0
scalar OsgEarthNet.uav[64] utilizationEnergyOverdrawMaintenance 0
scalar OsgEarthNet.uav[64] utilizationCountMissions 42
scalar OsgEarthNet.uav[64] utilizationCountManeuversMission 500
scalar OsgEarthNet.uav[64] utilizationCountManeuversMaintenance 84
scalar OsgEarthNet.uav[64] utilizationCountChargeState 42
scalar OsgEarthNet.uav[64] utilizationCountOverdrawnAfterMission 0
scalar OsgEarthNet.uav[64] utilizationCountIdleState 42
scalar OsgEarthNet.uav[64] utilizationFail 0
scalar OsgEarthNet.uav[64] simulationTime 259200
scalar OsgEarthNet.uav[65] utilizationSecMission 8411.3379487055
scalar OsgEarthNet.uav[65] utilizationSecMaintenance 2719.3355877521
scalar OsgEarthNet.uav[65] utilizationSecCharge 41315.969316209
[...]
scalar OsgEarthNet.uav[82] utilizationSecIdle 254337.5003507
scalar OsgEarthNet.uav[82] utilizationEnergyMission 3272.9457702637
scalar OsgEarthNet.uav[82] utilizationEnergyMaintenance 1573.3709831238
scalar OsgEarthNet.uav[82] utilizationEnergyCharge 4846.3168945312
scalar OsgEarthNet.uav[82] utilizationEnergyOverdrawMission 0
scalar OsgEarthNet.uav[82] utilizationEnergyOverdrawMaintenance 0
scalar OsgEarthNet.uav[82] utilizationCountMissions 1
scalar OsgEarthNet.uav[82] utilizationCountManeuversMission 13
scalar OsgEarthNet.uav[82] utilizationCountManeuversMaintenance 2
scalar OsgEarthNet.uav[82] utilizationCountChargeState 1
scalar OsgEarthNet.uav[82] utilizationCountOverdrawnAfterMission 0
scalar OsgEarthNet.uav[82] utilizationCountIdleState 2
scalar OsgEarthNet.uav[82] utilizationFail 0
scalar OsgEarthNet.uav[82] simulationTime 259200
scalar OsgEarthNet.uav[83] utilizationSecMission 760.62515258028
scalar OsgEarthNet.uav[83] utilizationSecMaintenance 291.95923480269
scalar OsgEarthNet.uav[83] utilizationSecCharge 3830
scalar OsgEarthNet.uav[83] utilizationSecIdle 254317.41461262
scalar OsgEarthNet.uav[83] utilizationEnergyMission 3590.0140838623
scalar OsgEarthNet.uav[83] utilizationEnergyMaintenance 1251.5915145874
scalar OsgEarthNet.uav[83] utilizationEnergyCharge 4841.603515625
scalar OsgEarthNet.uav[83] utilizationEnergyOverdrawMission 0
scalar OsgEarthNet.uav[83] utilizationEnergyOverdrawMaintenance 0
scalar OsgEarthNet.uav[83] utilizationCountMissions 1
scalar OsgEarthNet.uav[83] utilizationCountManeuversMission 12
scalar OsgEarthNet.uav[83] utilizationCountManeuversMaintenance 2
scalar OsgEarthNet.uav[83] utilizationCountChargeState 1
scalar OsgEarthNet.uav[83] utilizationCountOverdrawnAfterMission 0
scalar OsgEarthNet.uav[83] utilizationCountIdleState 2
scalar OsgEarthNet.uav[83] utilizationFail 0
scalar OsgEarthNet.uav[83] simulationTime 259200
scalar OsgEarthNet.uav[84] utilizationSecMission 694.00169469977
scalar OsgEarthNet.uav[84] utilizationSecMaintenance 297.56999528428
scalar OsgEarthNet.uav[84] utilizationSecCharge 3840
scalar OsgEarthNet.uav[84] utilizationSecIdle 254368.42731002
scalar OsgEarthNet.uav[84] utilizationEnergyMission 3457.9566574097
scalar OsgEarthNet.uav[84] utilizationEnergyMaintenance 1419.722240448
scalar OsgEarthNet.uav[84] utilizationEnergyCharge 4877.68359375
scalar OsgEarthNet.uav[84] utilizationEnergyOverdrawMission 0
scalar OsgEarthNet.uav[84] utilizationEnergyOverdrawMaintenance 0
scalar OsgEarthNet.uav[84] utilizationCountMissions 1
scalar OsgEarthNet.uav[84] utilizationCountManeuversMission 13
scalar OsgEarthNet.uav[84] utilizationCountManeuversMaintenance 2
scalar OsgEarthNet.uav[84] utilizationCountChargeState 1
scalar OsgEarthNet.uav[84] utilizationCountOverdrawnAfterMission 0
scalar OsgEarthNet.uav[84] utilizationCountIdleState 2
scalar OsgEarthNet.uav[84] utilizationFail 0
scalar OsgEarthNet.uav[84] simulationTime 259200
scalar OsgEarthNet.uav[85] utilizationSecMission 32420.018304614
scalar OsgEarthNet.uav[85] utilizationSecMaintenance 11683.504850648
scalar OsgEarthNet.uav[85] utilizationSecCharge 160500.23400912
scalar OsgEarthNet.uav[85] utilizationSecIdle 54596.241835621
scalar OsgEarthNet.uav[85] utilizationEnergyMission 150721.91299438
scalar OsgEarthNet.uav[85] utilizationEnergyMaintenance 54241.530532837
scalar OsgEarthNet.uav[85] utilizationEnergyCharge 201519.28393555
scalar OsgEarthNet.uav[85] utilizationEnergyOverdrawMission 0
scalar OsgEarthNet.uav[85] utilizationEnergyOverdrawMaintenance 0
scalar OsgEarthNet.uav[85] utilizationCountMissions 44
scalar OsgEarthNet.uav[85] utilizationCountManeuversMission 531
scalar OsgEarthNet.uav[85] utilizationCountManeuversMaintenance 88
scalar OsgEarthNet.uav[85] utilizationCountChargeState 44
scalar OsgEarthNet.uav[85] utilizationCountOverdrawnAfterMission 0
scalar OsgEarthNet.uav[85] utilizationCountIdleState 44
scalar OsgEarthNet.uav[85] utilizationFail 0
scalar OsgEarthNet.uav[85] simulationTime 259200
scalar OsgEarthNet.uav[86] utilizationSecMission 750.20472747826
scalar OsgEarthNet.uav[86] utilizationSecMaintenance 261.68051383311
scalar OsgEarthNet.uav[86] utilizationSecCharge 3780
scalar OsgEarthNet.uav[86] utilizationSecIdle 254408.11375869
scalar OsgEarthNet.uav[86] utilizationEnergyMission 3452.344833374
scalar OsgEarthNet.uav[86] utilizationEnergyMaintenance 1288.398815155
scalar OsgEarthNet.uav[86] utilizationEnergyCharge 4740.7436523438
scalar OsgEarthNet.uav[86] utilizationEnergyOverdrawMission 0
scalar OsgEarthNet.uav[86] utilizationEnergyOverdrawMaintenance 0
scalar OsgEarthNet.uav[86] utilizationCountMissions 1
scalar OsgEarthNet.uav[86] utilizationCountManeuversMission 11
scalar OsgEarthNet.uav[86] utilizationCountManeuversMaintenance 2
scalar OsgEarthNet.uav[86] utilizationCountChargeState 1
scalar OsgEarthNet.uav[86] utilizationCountOverdrawnAfterMission 0
scalar OsgEarthNet.uav[86] utilizationCountIdleState 2
scalar OsgEarthNet.uav[86] utilizationFail 0
scalar OsgEarthNet.uav[86] simulationTime 259200
scalar OsgEarthNet.uav[87] utilizationSecMission 30260.360964585
scalar OsgEarthNet.uav[87] utilizationSecMaintenance 13078.738314574
scalar OsgEarthNet.uav[87] utilizationSecCharge 162488.89972084
scalar OsgEarthNet.uav[87] utilizationSecIdle 53372
scalar OsgEarthNet.uav[87] utilizationEnergyMission 139784.8521843
scalar OsgEarthNet.uav[87] utilizationEnergyMaintenance 61599.606098175
scalar OsgEarthNet.uav[87] utilizationEnergyCharge 199580.26831055
scalar OsgEarthNet.uav[87] utilizationEnergyOverdrawMission 0
scalar OsgEarthNet.uav[87] utilizationEnergyOverdrawMaintenance 0
scalar OsgEarthNet.uav[87] utilizationCountMissions 47
scalar OsgEarthNet.uav[87] utilizationCountManeuversMission 473
scalar OsgEarthNet.uav[87] utilizationCountManeuversMaintenance 93
scalar OsgEarthNet.uav[87] utilizationCountChargeState 47
scalar OsgEarthNet.uav[87] utilizationCountOverdrawnAfterMission 0
scalar OsgEarthNet.uav[87] utilizationCountIdleState 47
scalar OsgEarthNet.uav[87] utilizationFail 0
scalar OsgEarthNet.uav[87] simulationTime 259200
scalar OsgEarthNet.uav[88] utilizationSecMission 13201.622660765
scalar OsgEarthNet.uav[88] utilizationSecMaintenance 5511.5772758233
scalar OsgEarthNet.uav[88] utilizationSecCharge 70790
scalar OsgEarthNet.uav[88] utilizationSecIdle 169696.79906341
scalar OsgEarthNet.uav[88] utilizationEnergyMission 61813.365844727
scalar OsgEarthNet.uav[88] utilizationEnergyMaintenance 25734.961837769
scalar OsgEarthNet.uav[88] utilizationEnergyCharge 86818.657226562
scalar OsgEarthNet.uav[88] utilizationEnergyOverdrawMission 0
scalar OsgEarthNet.uav[88] utilizationEnergyOverdrawMaintenance 0
scalar OsgEarthNet.uav[88] utilizationCountMissions 20
scalar OsgEarthNet.uav[88] utilizationCountManeuversMission 203
scalar OsgEarthNet.uav[88] utilizationCountManeuversMaintenance 40
scalar OsgEarthNet.uav[88] utilizationCountChargeState 20
scalar OsgEarthNet.uav[88] utilizationCountOverdrawnAfterMission 0
scalar OsgEarthNet.uav[88] utilizationCountIdleState 21
scalar OsgEarthNet.uav[88] utilizationFail 0
scalar OsgEarthNet.uav[88] simulationTime 259200
scalar OsgEarthNet.uav[89] utilizationSecMission 750.20472747826
scalar OsgEarthNet.uav[89] utilizationSecMaintenance 261.68051383311
scalar OsgEarthNet.uav[89] utilizationSecCharge 3890
scalar OsgEarthNet.uav[89] utilizationSecIdle 254298.11375869
scalar OsgEarthNet.uav[89] utilizationEnergyMission 3707.233581543
scalar OsgEarthNet.uav[89] utilizationEnergyMaintenance 1190.3549613953
scalar OsgEarthNet.uav[89] utilizationEnergyCharge 4897.5888671875
scalar OsgEarthNet.uav[89] utilizationEnergyOverdrawMission 0
scalar OsgEarthNet.uav[89] utilizationEnergyOverdrawMaintenance 0
scalar OsgEarthNet.uav[89] utilizationCountMissions 1
scalar OsgEarthNet.uav[89] utilizationCountManeuversMission 11
scalar OsgEarthNet.uav[89] utilizationCountManeuversMaintenance 2
scalar OsgEarthNet.uav[89] utilizationCountChargeState 1
scalar OsgEarthNet.uav[89] utilizationCountOverdrawnAfterMission 0
scalar OsgEarthNet.uav[89] utilizationCountIdleState 2
scalar OsgEarthNet.uav[89] utilizationFail 0
scalar OsgEarthNet.uav[89] simulationTime 259200
scalar OsgEarthNet.uav[90] utilizationSecMission 684.4732299383
scalar OsgEarthNet.uav[90] utilizationSecMaintenance 298.56834692969
scalar OsgEarthNet.uav[90] utilizationSecCharge 3760
scalar OsgEarthNet.uav[90] utilizationSecIdle 254456.95742313
scalar OsgEarthNet.uav[90] utilizationEnergyMission 3277.4665908814
scalar OsgEarthNet.uav[90] utilizationEnergyMaintenance 1387.6334152222
scalar OsgEarthNet.uav[90] utilizationEnergyCharge 4665.0952148438
scalar OsgEarthNet.uav[90] utilizationEnergyOverdrawMission 0
scalar OsgEarthNet.uav[90] utilizationEnergyOverdrawMaintenance 0
scalar OsgEarthNet.uav[90] utilizationCountMissions 1
scalar OsgEarthNet.uav[90] utilizationCountManeuversMission 11
scalar OsgEarthNet.uav[90] utilizationCountManeuversMaintenance 2
scalar OsgEarthNet.uav[90] utilizationCountChargeState 1
scalar OsgEarthNet.uav[90] utilizationCountOverdrawnAfterMission 0
scalar OsgEarthNet.uav[90] utilizationCountIdleState 2
scalar OsgEarthNet.uav[90] utilizationFail 0
scalar OsgEarthNet.uav[90] simulationTime 259200
scalar OsgEarthNet.uav[91] utilizationSecMission 23479.301918801
scalar OsgEarthNet.uav[91] utilizationSecMaintenance 13166.143353855
scalar OsgEarthNet.uav[91] utilizationSecCharge 140640
scalar OsgEarthNet.uav[91] utilizationSecIdle 81914.553727345
scalar OsgEarthNet.uav[91] utilizationEnergyMission 108825.85792542
scalar OsgEarthNet.uav[91] utilizationEnergyMaintenance 61775.77293396
scalar OsgEarthNet.uav[91] utilizationEnergyCharge 170560.42089844
scalar OsgEarthNet.uav[91] utilizationEnergyOverdrawMission 0
scalar OsgEarthNet.uav[91] utilizationEnergyOverdrawMaintenance 0
scalar OsgEarthNet.uav[91] utilizationCountMissions 41
scalar OsgEarthNet.uav[91] utilizationCountManeuversMission 395
scalar OsgEarthNet.uav[91] utilizationCountManeuversMaintenance 82
scalar OsgEarthNet.uav[91] utilizationCountChargeState 41
scalar OsgEarthNet.uav[91] utilizationCountOverdrawnAfterMission 0
scalar OsgEarthNet.uav[91] utilizationCountIdleState 42
scalar OsgEarthNet.uav[91] utilizationFail 0
scalar OsgEarthNet.uav[91] simulationTime 259200
scalar OsgEarthNet.uav[92] utilizationSecMission 963.60699409918
scalar OsgEarthNet.uav[92] utilizationSecMaintenance 749.32061627835
scalar OsgEarthNet.uav[92] utilizationSecCharge 6690
scalar OsgEarthNet.uav[92] utilizationSecIdle 250797.07138962
scalar OsgEarthNet.uav[92] utilizationEnergyMission 4475.7189483643
scalar OsgEarthNet.uav[92] utilizationEnergyMaintenance 3582.9090805054
scalar OsgEarthNet.uav[92] utilizationEnergyCharge 8058.6262207031
scalar OsgEarthNet.uav[92] utilizationEnergyOverdrawMission 0
scalar OsgEarthNet.uav[92] utilizationEnergyOverdrawMaintenance 0
scalar OsgEarthNet.uav[92] utilizationCountMissions 2
scalar OsgEarthNet.uav[92] utilizationCountManeuversMission 14
scalar OsgEarthNet.uav[92] utilizationCountManeuversMaintenance 4
scalar OsgEarthNet.uav[92] utilizationCountChargeState 2
scalar OsgEarthNet.uav[92] utilizationCountOverdrawnAfterMission 0
scalar OsgEarthNet.uav[92] utilizationCountIdleState 3
scalar OsgEarthNet.uav[92] utilizationFail 0
scalar OsgEarthNet.uav[92] simulationTime 259200
scalar OsgEarthNet.uav[93] utilizationSecMission 27507.223795217
scalar OsgEarthNet.uav[93] utilizationSecMaintenance 12800.572932889
scalar OsgEarthNet.uav[93] utilizationSecCharge 150611.96195178
scalar OsgEarthNet.uav[93] utilizationSecIdle 68280.240320113
scalar OsgEarthNet.uav[93] utilizationEnergyMission 126012.0651474
scalar OsgEarthNet.uav[93] utilizationEnergyMaintenance 60756.96680069
scalar OsgEarthNet.uav[93] utilizationEnergyCharge 186104.25830078
scalar OsgEarthNet.uav[93] utilizationEnergyOverdrawMission 0
scalar OsgEarthNet.uav[93] utilizationEnergyOverdrawMaintenance 0
scalar OsgEarthNet.uav[93] utilizationCountMissions 43
scalar OsgEarthNet.uav[93] utilizationCountManeuversMission 465
scalar OsgEarthNet.uav[93] utilizationCountManeuversMaintenance 86
scalar OsgEarthNet.uav[93] utilizationCountChargeState 43
scalar OsgEarthNet.uav[93] utilizationCountOverdrawnAfterMission 0
scalar OsgEarthNet.uav[93] utilizationCountIdleState 43
scalar OsgEarthNet.uav[93] utilizationFail 0
scalar OsgEarthNet.uav[93] simulationTime 259200
scalar OsgEarthNet.uav[94] utilizationSecMission 27558.493894727
scalar OsgEarthNet.uav[94] utilizationSecMaintenance 12393.593924048
scalar OsgEarthNet.uav[94] utilizationSecCharge 149413.20648809
scalar OsgEarthNet.uav[94] utilizationSecIdle 69834.704693133
scalar OsgEarthNet.uav[94] utilizationEnergyMission 128105.94491577
scalar OsgEarthNet.uav[94] utilizationEnergyMaintenance 58888.23223114
scalar OsgEarthNet.uav[94] utilizationEnergyCharge 185795.40014648
scalar OsgEarthNet.uav[94] utilizationEnergyOverdrawMission 0
scalar OsgEarthNet.uav[94] utilizationEnergyOverdrawMaintenance 0
scalar OsgEarthNet.uav[94] utilizationCountMissions 42
scalar OsgEarthNet.uav[94] utilizationCountManeuversMission 452
scalar OsgEarthNet.uav[94] utilizationCountManeuversMaintenance 84
scalar OsgEarthNet.uav[94] utilizationCountChargeState 42
scalar OsgEarthNet.uav[94] utilizationCountOverdrawnAfterMission 0
scalar OsgEarthNet.uav[94] utilizationCountIdleState 42
scalar OsgEarthNet.uav[94] utilizationFail 0
scalar OsgEarthNet.uav[94] simulationTime 259200
scalar OsgEarthNet.uav[95] utilizationSecMission 29139.3135977
scalar OsgEarthNet.uav[95] utilizationSecMaintenance 13625.415587522
scalar OsgEarthNet.uav[95] utilizationSecCharge 161543.26981478
scalar OsgEarthNet.uav[95] utilizationSecIdle 54892
scalar OsgEarthNet.uav[95] utilizationEnergyMission 134547.1506354
scalar OsgEarthNet.uav[95] utilizationEnergyMaintenance 64871.998954773
scalar OsgEarthNet.uav[95] utilizationEnergyCharge 197901.4597168
scalar OsgEarthNet.uav[95] utilizationEnergyOverdrawMission 0
scalar OsgEarthNet.uav[95] utilizationEnergyOverdrawMaintenance 0
scalar OsgEarthNet.uav[95] utilizationCountMissions 47
scalar OsgEarthNet.uav[95] utilizationCountManeuversMission 479
scalar OsgEarthNet.uav[95] utilizationCountManeuversMaintenance 93
scalar OsgEarthNet.uav[95] utilizationCountChargeState 47
scalar OsgEarthNet.uav[95] utilizationCountOverdrawnAfterMission 0
scalar OsgEarthNet.uav[95] utilizationCountIdleState 47
scalar OsgEarthNet.uav[95] utilizationFail 0
scalar OsgEarthNet.uav[95] simulationTime 259200
scalar OsgEarthNet.uav[96] utilizationSecMission 30505.044889126
scalar OsgEarthNet.uav[96] utilizationSecMaintenance 13396.587125042
scalar OsgEarthNet.uav[96] utilizationSecCharge 164426.36698583
scalar OsgEarthNet.uav[96] utilizationSecIdle 50872
scalar OsgEarthNet.uav[96] utilizationEnergyMission 142650.79220581
scalar OsgEarthNet.uav[96] utilizationEnergyMaintenance 63322.343574524
scalar OsgEarthNet.uav[96] utilizationEnergyCharge 204836.4609375
scalar OsgEarthNet.uav[96] utilizationEnergyOverdrawMission 0
scalar OsgEarthNet.uav[96] utilizationEnergyOverdrawMaintenance 0
scalar OsgEarthNet.uav[96] utilizationCountMissions 46
scalar OsgEarthNet.uav[96] utilizationCountManeuversMission 508
scalar OsgEarthNet.uav[96] utilizationCountManeuversMaintenance 91
scalar OsgEarthNet.uav[96] utilizationCountChargeState 46
scalar OsgEarthNet.uav[96] utilizationCountOverdrawnAfterMission 0
scalar OsgEarthNet.uav[96] utilizationCountIdleState 46
scalar OsgEarthNet.uav[96] utilizationFail 0
scalar OsgEarthNet.uav[96] simulationTime 259200
scalar OsgEarthNet.uav[97] utilizationSecMission 28724.968733883
scalar OsgEarthNet.uav[97] utilizationSecMaintenance 12366.420431929
scalar OsgEarthNet.uav[97] utilizationSecCharge 150304.9426621
scalar OsgEarthNet.uav[97] utilizationSecIdle 67803.667172085
scalar OsgEarthNet.uav[97] utilizationEnergyMission 131757.46195221
scalar OsgEarthNet.uav[97] utilizationEnergyMaintenance 58451.35383606
scalar OsgEarthNet.uav[97] utilizationEnergyCharge 187633.37084961
scalar OsgEarthNet.uav[97] utilizationEnergyOverdrawMission 0
scalar OsgEarthNet.uav[97] utilizationEnergyOverdrawMaintenance 0
scalar OsgEarthNet.uav[97] utilizationCountMissions 42
scalar OsgEarthNet.uav[97] utilizationCountManeuversMission 471
scalar OsgEarthNet.uav[97] utilizationCountManeuversMaintenance 84
scalar OsgEarthNet.uav[97] utilizationCountChargeState 42
scalar OsgEarthNet.uav[97] utilizationCountOverdrawnAfterMission 0
scalar OsgEarthNet.uav[97] utilizationCountIdleState 42
scalar OsgEarthNet.uav[97] utilizationFail 0
scalar OsgEarthNet.uav[97] simulationTime 259200
scalar OsgEarthNet.uav[98] utilizationSecMission 5808.4247859526
scalar OsgEarthNet.uav[98] utilizationSecMaintenance 1892.7296920772
scalar OsgEarthNet.uav[98] utilizationSecCharge 28970
scalar OsgEarthNet.uav[98] utilizationSecIdle 222528.84452197
scalar OsgEarthNet.uav[98] utilizationEnergyMission 26718.999282837
scalar OsgEarthNet.uav[98] utilizationEnergyMaintenance 8836.3279724121
scalar OsgEarthNet.uav[98] utilizationEnergyCharge 35826.056640625
scalar OsgEarthNet.uav[98] utilizationEnergyOverdrawMission 0
scalar OsgEarthNet.uav[98] utilizationEnergyOverdrawMaintenance 0
scalar OsgEarthNet.uav[98] utilizationCountMissions 8
scalar OsgEarthNet.uav[98] utilizationCountManeuversMission 94
scalar OsgEarthNet.uav[98] utilizationCountManeuversMaintenance 16
scalar OsgEarthNet.uav[98] utilizationCountChargeState 8
scalar OsgEarthNet.uav[98] utilizationCountOverdrawnAfterMission 0
scalar OsgEarthNet.uav[98] utilizationCountIdleState 9
scalar OsgEarthNet.uav[98] utilizationFail 0
scalar OsgEarthNet.uav[98] simulationTime 259200
scalar OsgEarthNet.uav[99] utilizationSecMission 3892.0558821525
scalar OsgEarthNet.uav[99] utilizationSecMaintenance 2580.9498933545
scalar OsgEarthNet.uav[99] utilizationSecCharge 23237.715396139
scalar OsgEarthNet.uav[99] utilizationSecIdle 229489.27782835
scalar OsgEarthNet.uav[99] utilizationEnergyMission 17941.765563965
scalar OsgEarthNet.uav[99] utilizationEnergyMaintenance 12087.415924072
scalar OsgEarthNet.uav[99] utilizationEnergyCharge 29439.021240234
scalar OsgEarthNet.uav[99] utilizationEnergyOverdrawMission 0
scalar OsgEarthNet.uav[99] utilizationEnergyOverdrawMaintenance 0
scalar OsgEarthNet.uav[99] utilizationCountMissions 7
scalar OsgEarthNet.uav[99] utilizationCountManeuversMission 62
scalar OsgEarthNet.uav[99] utilizationCountManeuversMaintenance 14
scalar OsgEarthNet.uav[99] utilizationCountChargeState 7
scalar OsgEarthNet.uav[99] utilizationCountOverdrawnAfterMission 0
scalar OsgEarthNet.uav[99] utilizationCountIdleState 7
scalar OsgEarthNet.uav[99] utilizationFail 0
scalar OsgEarthNet.uav[99] simulationTime 259200
scalar OsgEarthNet.cs[0] usedPower 564813.63737938
scalar OsgEarthNet.cs[0] chargedPower 564813.63737938
scalar OsgEarthNet.cs[0] chargedMobileNodes 120
scalar OsgEarthNet.cs[0] reservations 121
scalar OsgEarthNet.cs[1] usedPower 679606.68764915
scalar OsgEarthNet.cs[1] chargedPower 679606.68764915
scalar OsgEarthNet.cs[1] chargedMobileNodes 218
scalar OsgEarthNet.cs[1] reservations 220
scalar OsgEarthNet.cs[2] usedPower 2702338.2707689
scalar OsgEarthNet.cs[2] chargedPower 2702338.2707689
scalar OsgEarthNet.cs[2] chargedMobileNodes 568
scalar OsgEarthNet.cs[2] reservations 577
scalar OsgEarthNet.cs[3] usedPower 638458.62410471
scalar OsgEarthNet.cs[3] chargedPower 638458.62410471
scalar OsgEarthNet.cs[3] chargedMobileNodes 143
scalar OsgEarthNet.cs[3] reservations 145
scalar OsgEarthNet.cs[4] usedPower 823504.43543083
scalar OsgEarthNet.cs[4] chargedPower 823504.43543083
scalar OsgEarthNet.cs[4] chargedMobileNodes 182
scalar OsgEarthNet.cs[4] reservations 186
scalar OsgEarthNet.cs[5] usedPower 778164.45765298
scalar OsgEarthNet.cs[5] chargedPower 778164.45765298
scalar OsgEarthNet.cs[5] chargedMobileNodes 165
scalar OsgEarthNet.cs[5] reservations 165
scalar OsgEarthNet.cs[6] usedPower 2241938.7369474
scalar OsgEarthNet.cs[6] chargedPower 2241938.7369474
scalar OsgEarthNet.cs[6] chargedMobileNodes 503
scalar OsgEarthNet.cs[6] reservations 512

