version 2
run Szenario_Hotel_Gabelbach-26-20180709-13:36:32-12624
attr configname Szenario_Hotel_Gabelbach
attr datetime 20180709-13:36:32
attr experiment Szenario_Hotel_Gabelbach
attr inifile omnetpp.ini
attr iterationvars "$replM=2, $biWeight=0.4"
attr iterationvarsf replM=2,biWeight=0.4-
attr measurement "$replM=2, $biWeight=0.4"
attr network OsgEarthNet
attr processid 12624
attr repetition 2
attr replication #2
attr resultdir results
attr runnumber 26
attr seedset 26
itervar biWeight 0.4
itervar replM 2
param *.osgEarthScene.scene "\"Szenario_Hotel_Gabelbach.earth\""
param *.playgroundLatitude 50.6830269
param *.playgroundLongitude 10.8538055
param *.playgroundWidth 3500m
param *.playgroundHeight 3500m
param *.numUAVs 100
param *.cs[0].posX 3537m
param *.cs[0].posY 965m
param *.cs[0].posZ 538m
param *.cs[1].posX 312m
param *.cs[1].posY 1262m
param *.cs[1].posZ 539m
param *.cs[2].posX 2185m
param *.cs[2].posY 3026m
param *.cs[2].posZ 777m
param *.cs[3].posX 10m
param *.cs[3].posY 2200m
param *.cs[3].posZ 560m
param *.cs[4].posX 750m
param *.cs[4].posY 200m
param *.cs[4].posZ 540m
param *.cs[5].posX 2450m
param *.cs[5].posY 180m
param *.cs[5].posZ 524m
param *.cs[6].posX 3140m
param *.cs[6].posY 1790m
param *.cs[6].posZ 606m
param *.numCSs 7
param *.uav[*].replacementMethod 2
param *.uav[*].weightedSumWeight 0.4
param *.*.timeStep 10s
param *.uav[*].commandPreviewCommandCount 20
param *.missionControl.missionFiles "\"missions\\\\Szenario_WB_Hotel_Gabelbach_Mission_Hotel.waypoints,missions\\\\Szenario_WB_Hotel_Gabelbach_Mission_Kickelhahn.waypoints,missions\\\\Szenario_WB_Hotel_Gabelbach_Mission_Ilmenau_Sportplatz.waypoints,missions\\\\Szenario_WB_Hotel_Gabelbach_Mission_Manebach_Mitte.waypoints,missions\\\\Szenario_WB_Hotel_Gabelbach_Mission_Manebach_Sued.waypoints\""
param *.missionControl.missionFiles "\"missions\\\\Szenario_WB_Hotel_Gabelbach_Mission_Hotel.waypoints,missions\\\\Szenario_WB_Hotel_Gabelbach_Mission_Kickelhahn.waypoints,missions\\\\Szenario_WB_Hotel_Gabelbach_Mission_Ilmenau_Sportplatz.waypoints,missions\\\\Szenario_WB_Hotel_Gabelbach_Mission_Manebach_Mitte.waypoints,missions\\\\Szenario_WB_Hotel_Gabelbach_Mission_Manebach_Sued.waypoints,missions\\\\Szenario_WB_Hotel_Gabelbach_Hover_HoheSchlaufe.waypoints,missions\\\\Szenario_WB_Hotel_Gabelbach_Hover_Kickelhahn.waypoints,missions\\\\Szenario_WB_Hotel_Gabelbach_Hover_Gabelbachskopf.waypoints,missions\\\\Szenario_WB_Hotel_Gabelbach_Hover_Dachskopf.waypoints\""
param *.uav[0].startX 3537m
param *.uav[0].startY 965m
param *.uav[0].startZ 539m
param *.uav[1].startX 312m
param *.uav[1].startY 1262m
param *.uav[1].startZ 540m
param *.uav[2].startX 2185m
param *.uav[2].startY 3026m
param *.uav[2].startZ 778m
param *.uav[3].startX 3537m
param *.uav[3].startY 965m
param *.uav[3].startZ 539m
param *.uav[4].startX 312m
param *.uav[4].startY 1262m
param *.uav[4].startZ 540m
param *.uav[5].startX 2185m
param *.uav[5].startY 3026m
param *.uav[5].startZ 778m
param *.uav[6].startX 3537m
param *.uav[6].startY 965m
param *.uav[6].startZ 539m
param *.uav[7].startX 312m
param *.uav[7].startY 1262m
param *.uav[7].startZ 540m
param *.uav[8].startX 2185m
param *.uav[8].startY 3026m
param *.uav[8].startZ 778m
param *.uav[9].startX 3537m
param *.uav[9].startY 965m
param *.uav[9].startZ 539m
param *.uav[10].startX 3537m
param *.uav[10].startY 965m
param *.uav[10].startZ 539m
param *.uav[11].startX 312m
param *.uav[11].startY 1262m
param *.uav[11].startZ 540m
param *.uav[12].startX 2185m
param *.uav[12].startY 3026m
param *.uav[12].startZ 778m
param *.uav[13].startX 3537m
param *.uav[13].startY 965m
param *.uav[13].startZ 539m
param *.uav[14].startX 312m
param *.uav[14].startY 1262m
param *.uav[14].startZ 540m
param *.uav[15].startX 2185m
param *.uav[15].startY 3026m
param *.uav[15].startZ 778m
param *.uav[16].startX 3537m
param *.uav[16].startY 965m
param *.uav[16].startZ 539m
param *.uav[17].startX 312m
param *.uav[17].startY 1262m
param *.uav[17].startZ 540m
param *.uav[18].startX 2185m
param *.uav[18].startY 3026m
param *.uav[18].startZ 778m
param *.uav[19].startX 3537m
param *.uav[19].startY 965m
param *.uav[19].startZ 539m
param *.uav[20].startX 3537m
param *.uav[20].startY 965m
param *.uav[20].startZ 539m
param *.uav[21].startX 312m
param *.uav[21].startY 1262m
param *.uav[21].startZ 540m
param *.uav[22].startX 2185m
param *.uav[22].startY 3026m
param *.uav[22].startZ 778m
param *.uav[23].startX 3537m
param *.uav[23].startY 965m
param *.uav[23].startZ 539m
param *.uav[24].startX 312m
param *.uav[24].startY 1262m
param *.uav[24].startZ 540m
param *.uav[25].startX 2185m
param *.uav[25].startY 3026m
param *.uav[25].startZ 778m
param *.uav[26].startX 3537m
param *.uav[26].startY 965m
param *.uav[26].startZ 539m
param *.uav[27].startX 312m
param *.uav[27].startY 1262m
param *.uav[27].startZ 540m
param *.uav[28].startX 2185m
param *.uav[28].startY 3026m
param *.uav[28].startZ 778m
param *.uav[29].startX 3537m
param *.uav[29].startY 965m
param *.uav[29].startZ 539m
param *.uav[30].startX 3537m
param *.uav[30].startY 965m
param *.uav[30].startZ 539m
param *.uav[31].startX 312m
param *.uav[31].startY 1262m
param *.uav[31].startZ 540m
param *.uav[32].startX 2185m
param *.uav[32].startY 3026m
param *.uav[32].startZ 778m
param *.uav[33].startX 3537m
param *.uav[33].startY 965m
param *.uav[33].startZ 539m
param *.uav[34].startX 312m
param *.uav[34].startY 1262m
param *.uav[34].startZ 540m
param *.uav[35].startX 2185m
param *.uav[35].startY 3026m
param *.uav[35].startZ 778m
param *.uav[36].startX 3537m
param *.uav[36].startY 965m
param *.uav[36].startZ 539m
param *.uav[37].startX 312m
param *.uav[37].startY 1262m
param *.uav[37].startZ 540m
param *.uav[38].startX 2185m
param *.uav[38].startY 3026m
param *.uav[38].startZ 778m
param *.uav[39].startX 3537m
param *.uav[39].startY 965m
param *.uav[39].startZ 539m
param *.uav[40].startX 3537m
param *.uav[40].startY 965m
param *.uav[40].startZ 539m
param *.uav[41].startX 312m
param *.uav[41].startY 1262m
param *.uav[41].startZ 540m
param *.uav[42].startX 2185m
param *.uav[42].startY 3026m
param *.uav[42].startZ 778m
param *.uav[43].startX 3537m
param *.uav[43].startY 965m
param *.uav[43].startZ 539m
param *.uav[44].startX 312m
param *.uav[44].startY 1262m
param *.uav[44].startZ 540m
param *.uav[45].startX 2185m
param *.uav[45].startY 3026m
param *.uav[45].startZ 778m
param *.uav[46].startX 3537m
param *.uav[46].startY 965m
param *.uav[46].startZ 539m
param *.uav[47].startX 312m
param *.uav[47].startY 1262m
param *.uav[47].startZ 540m
param *.uav[48].startX 2185m
param *.uav[48].startY 3026m
param *.uav[48].startZ 778m
param *.uav[49].startX 3537m
param *.uav[49].startY 965m
param *.uav[49].startZ 539m
param *.uav[50].startX 3537m
param *.uav[50].startY 965m
param *.uav[50].startZ 539m
param *.uav[51].startX 312m
param *.uav[51].startY 1262m
param *.uav[51].startZ 540m
param *.uav[52].startX 2185m
param *.uav[52].startY 3026m
param *.uav[52].startZ 778m
param *.uav[53].startX 3537m
param *.uav[53].startY 965m
param *.uav[53].startZ 539m
param *.uav[54].startX 312m
param *.uav[54].startY 1262m
param *.uav[54].startZ 540m
param *.uav[55].startX 2185m
param *.uav[55].startY 3026m
param *.uav[55].startZ 778m
param *.uav[56].startX 3537m
param *.uav[56].startY 965m
param *.uav[56].startZ 539m
param *.uav[57].startX 312m
param *.uav[57].startY 1262m
param *.uav[57].startZ 540m
param *.uav[58].startX 2185m
param *.uav[58].startY 3026m
param *.uav[58].startZ 778m
param *.uav[59].startX 3537m
param *.uav[59].startY 965m
param *.uav[59].startZ 539m
param *.uav[60].startX 3537m
param *.uav[60].startY 965m
param *.uav[60].startZ 539m
param *.uav[61].startX 312m
param *.uav[61].startY 1262m
param *.uav[61].startZ 540m
param *.uav[62].startX 2185m
param *.uav[62].startY 3026m
param *.uav[62].startZ 778m
param *.uav[63].startX 3537m
param *.uav[63].startY 965m
param *.uav[63].startZ 539m
param *.uav[64].startX 312m
param *.uav[64].startY 1262m
param *.uav[64].startZ 540m
param *.uav[65].startX 2185m
param *.uav[65].startY 3026m
param *.uav[65].startZ 778m
param *.uav[66].startX 3537m
param *.uav[66].startY 965m
param *.uav[66].startZ 539m
param *.uav[67].startX 312m
param *.uav[67].startY 1262m
param *.uav[67].startZ 540m
param *.uav[68].startX 2185m
param *.uav[68].startY 3026m
param *.uav[68].startZ 778m
param *.uav[69].startX 3537m
param *.uav[69].startY 965m
param *.uav[69].startZ 539m
param *.uav[70].startX 3537m
param *.uav[70].startY 965m
param *.uav[70].startZ 539m
param *.uav[71].startX 312m
param *.uav[71].startY 1262m
param *.uav[71].startZ 540m
param *.uav[72].startX 2185m
param *.uav[72].startY 3026m
param *.uav[72].startZ 778m
param *.uav[73].startX 3537m
param *.uav[73].startY 965m
param *.uav[73].startZ 539m
param *.uav[74].startX 312m
param *.uav[74].startY 1262m
param *.uav[74].startZ 540m
param *.uav[75].startX 2185m
param *.uav[75].startY 3026m
param *.uav[75].startZ 778m
param *.uav[76].startX 3537m
param *.uav[76].startY 965m
param *.uav[76].startZ 539m
param *.uav[77].startX 312m
param *.uav[77].startY 1262m
param *.uav[77].startZ 540m
param *.uav[78].startX 2185m
param *.uav[78].startY 3026m
param *.uav[78].startZ 778m
param *.uav[79].startX 3537m
param *.uav[79].startY 965m
param *.uav[79].startZ 539m
param *.uav[80].startX 3537m
param *.uav[80].startY 965m
param *.uav[80].startZ 539m
param *.uav[81].startX 312m
param *.uav[81].startY 1262m
param *.uav[81].startZ 540m
param *.uav[82].startX 2185m
param *.uav[82].startY 3026m
param *.uav[82].startZ 778m
param *.uav[83].startX 3537m
param *.uav[83].startY 965m
param *.uav[83].startZ 539m
param *.uav[84].startX 312m
param *.uav[84].startY 1262m
param *.uav[84].startZ 540m
param *.uav[85].startX 2185m
param *.uav[85].startY 3026m
param *.uav[85].startZ 778m
param *.uav[86].startX 3537m
param *.uav[86].startY 965m
param *.uav[86].startZ 539m
param *.uav[87].startX 312m
param *.uav[87].startY 1262m
param *.uav[87].startZ 540m
param *.uav[88].startX 2185m
param *.uav[88].startY 3026m
param *.uav[88].startZ 778m
param *.uav[89].startX 3537m
param *.uav[89].startY 965m
param *.uav[89].startZ 539m
param *.uav[90].startX 3537m
param *.uav[90].startY 965m
param *.uav[90].startZ 539m
param *.uav[91].startX 312m
param *.uav[91].startY 1262m
param *.uav[91].startZ 540m
param *.uav[92].startX 2185m
param *.uav[92].startY 3026m
param *.uav[92].startZ 778m
param *.uav[93].startX 3537m
param *.uav[93].startY 965m
param *.uav[93].startZ 539m
param *.uav[94].startX 312m
param *.uav[94].startY 1262m
param *.uav[94].startZ 540m
param *.uav[95].startX 2185m
param *.uav[95].startY 3026m
param *.uav[95].startZ 778m
param *.uav[96].startX 3537m
param *.uav[96].startY 965m
param *.uav[96].startZ 539m
param *.uav[97].startX 312m
param *.uav[97].startY 1262m
param *.uav[97].startZ 540m
param *.uav[98].startX 2185m
param *.uav[98].startY 3026m
param *.uav[98].startZ 778m
param *.uav[99].startX 3537m
param *.uav[99].startY 965m
param *.uav[99].startZ 539m
param *.osgEarthScene.scene "\"boston.earth\""
param *.playgroundLatitude 42.3558
param *.playgroundLongitude -71.0677
param *.playgroundWidth 400m
param *.playgroundHeight 200m
param *.channelController.connectionColor "\"#0000FF40\""
param *.channelController.showConnections false
param *.uav[*].modelURL "\"quadrocopter.small.obj.15.scale.0,0,90.rot\""
param *.uav[*].labelColor "\"#FF7C00CC\""
param *.uav[*].label2Color "\"#FF7C00EE\""
param *.uav[*].batteryCapacity 5200mAh
param *.uav[*].batteryRemaining uav[index].batteryCapacity
param *.uav[*].predictionQuantile 0.95
param *.uav[*].replacementMethod 2
param *.uav[*].weightedSumWeight 0.5
param *.cs[*].modelURL "\"chargingstation_v1.osgt.2.scale.0,0,0.rot.0,0,-15e-1.trans\""
param *.cs[*].spotsWaiting 999
param *.cs[*].spotsCharging 999
param *.cs[*].chargeEffectivenessPercentage 100
param *.cs[*].nonLinearPhaseStartPercentage 85
param *.cs[*].chargeCurrent 6.0A
param *.cs[*].prioritizeFastCharge true
param *.missionControl.replacementSearchMethod 0
param *.*.timeStep 9s

scalar OsgEarthNet.uav[0] utilizationSecMission 3082.3362168974
scalar OsgEarthNet.uav[0] utilizationSecMaintenance 1279.8158197649
scalar OsgEarthNet.uav[0] utilizationSecCharge 17180
scalar OsgEarthNet.uav[0] utilizationSecIdle 237657.84696334
scalar OsgEarthNet.uav[0] utilizationEnergyMission 14647.684753418
scalar OsgEarthNet.uav[0] utilizationEnergyMaintenance 6217.9574966431
scalar OsgEarthNet.uav[0] utilizationEnergyCharge 20877.97265625
scalar OsgEarthNet.uav[0] utilizationEnergyOverdrawMission 0
scalar OsgEarthNet.uav[0] utilizationEnergyOverdrawMaintenance 0
scalar OsgEarthNet.uav[0] utilizationCountMissions 5
scalar OsgEarthNet.uav[0] utilizationCountManeuversMission 46
scalar OsgEarthNet.uav[0] utilizationCountManeuversMaintenance 10
scalar OsgEarthNet.uav[0] utilizationCountChargeState 5
scalar OsgEarthNet.uav[0] utilizationCountOverdrawnAfterMission 0
scalar OsgEarthNet.uav[0] utilizationCountIdleState 6
scalar OsgEarthNet.uav[0] utilizationFail 0
scalar OsgEarthNet.uav[0] simulationTime 259200
scalar OsgEarthNet.uav[1] utilizationSecMission 24113.151598349
scalar OsgEarthNet.uav[1] utilizationSecMaintenance 11143.179223663
scalar OsgEarthNet.uav[1] utilizationSecCharge 130900
scalar OsgEarthNet.uav[1] utilizationSecIdle 93043.668177988
scalar OsgEarthNet.uav[1] utilizationEnergyMission 111349.19003971
scalar OsgEarthNet.uav[1] utilizationEnergyMaintenance 52138.226623535
scalar OsgEarthNet.uav[1] utilizationEnergyCharge 160857.66772461
scalar OsgEarthNet.uav[1] utilizationEnergyOverdrawMission 0
scalar OsgEarthNet.uav[1] utilizationEnergyOverdrawMaintenance 0
scalar OsgEarthNet.uav[1] utilizationCountMissions 37
scalar OsgEarthNet.uav[1] utilizationCountManeuversMission 416
scalar OsgEarthNet.uav[1] utilizationCountManeuversMaintenance 75
scalar OsgEarthNet.uav[1] utilizationCountChargeState 37
scalar OsgEarthNet.uav[1] utilizationCountOverdrawnAfterMission 0
scalar OsgEarthNet.uav[1] utilizationCountIdleState 38
scalar OsgEarthNet.uav[1] utilizationFail 0
scalar OsgEarthNet.uav[1] simulationTime 259200
scalar OsgEarthNet.uav[2] utilizationSecMission 18095.849567925
scalar OsgEarthNet.uav[2] utilizationSecMaintenance 7540.6780812196
scalar OsgEarthNet.uav[2] utilizationSecCharge 93600.320951348
scalar OsgEarthNet.uav[2] utilizationSecIdle 139963.15039951
scalar OsgEarthNet.uav[2] utilizationEnergyMission 83434.319458008
scalar OsgEarthNet.uav[2] utilizationEnergyMaintenance 34911.863868713
scalar OsgEarthNet.uav[2] utilizationEnergyCharge 117706.42602539
scalar OsgEarthNet.uav[2] utilizationEnergyOverdrawMission 0
scalar OsgEarthNet.uav[2] utilizationEnergyOverdrawMaintenance 0
scalar OsgEarthNet.uav[2] utilizationCountMissions 26
scalar OsgEarthNet.uav[2] utilizationCountManeuversMission 298
scalar OsgEarthNet.uav[2] utilizationCountManeuversMaintenance 52
scalar OsgEarthNet.uav[2] utilizationCountChargeState 26
scalar OsgEarthNet.uav[2] utilizationCountOverdrawnAfterMission 0
scalar OsgEarthNet.uav[2] utilizationCountIdleState 26
scalar OsgEarthNet.uav[2] utilizationFail 0
scalar OsgEarthNet.uav[2] simulationTime 259200
scalar OsgEarthNet.uav[3] utilizationSecMission 684.4732299383
scalar OsgEarthNet.uav[3] utilizationSecMaintenance 298.56834692969
scalar OsgEarthNet.uav[3] utilizationSecCharge 3800
scalar OsgEarthNet.uav[3] utilizationSecIdle 254416.95742313
scalar OsgEarthNet.uav[3] utilizationEnergyMission 3334.1929168701
scalar OsgEarthNet.uav[3] utilizationEnergyMaintenance 1463.7588729858
scalar OsgEarthNet.uav[3] utilizationEnergyCharge 4797.9555664062
scalar OsgEarthNet.uav[3] utilizationEnergyOverdrawMission 0
scalar OsgEarthNet.uav[3] utilizationEnergyOverdrawMaintenance 0
scalar OsgEarthNet.uav[3] utilizationCountMissions 1
scalar OsgEarthNet.uav[3] utilizationCountManeuversMission 11
scalar OsgEarthNet.uav[3] utilizationCountManeuversMaintenance 2
scalar OsgEarthNet.uav[3] utilizationCountChargeState 1
scalar OsgEarthNet.uav[3] utilizationCountOverdrawnAfterMission 0
scalar OsgEarthNet.uav[3] utilizationCountIdleState 2
scalar OsgEarthNet.uav[3] utilizationFail 0
scalar OsgEarthNet.uav[3] simulationTime 259200
scalar OsgEarthNet.uav[4] utilizationSecMission 29210.936755599
scalar OsgEarthNet.uav[4] utilizationSecMaintenance 13652.713209257
scalar OsgEarthNet.uav[4] utilizationSecCharge 160724.34903514
scalar OsgEarthNet.uav[4] utilizationSecIdle 55612
scalar OsgEarthNet.uav[4] utilizationEnergyMission 135246.55809784
scalar OsgEarthNet.uav[4] utilizationEnergyMaintenance 64403.163856506
scalar OsgEarthNet.uav[4] utilizationEnergyCharge 198540.04638672
scalar OsgEarthNet.uav[4] utilizationEnergyOverdrawMission 0
scalar OsgEarthNet.uav[4] utilizationEnergyOverdrawMaintenance 0
scalar OsgEarthNet.uav[4] utilizationCountMissions 46
scalar OsgEarthNet.uav[4] utilizationCountManeuversMission 479
scalar OsgEarthNet.uav[4] utilizationCountManeuversMaintenance 91
scalar OsgEarthNet.uav[4] utilizationCountChargeState 46
scalar OsgEarthNet.uav[4] utilizationCountOverdrawnAfterMission 0
scalar OsgEarthNet.uav[4] utilizationCountIdleState 46
scalar OsgEarthNet.uav[4] utilizationFail 0
scalar OsgEarthNet.uav[4] simulationTime 259200
scalar OsgEarthNet.uav[5] utilizationSecMission 31048.59982789
scalar OsgEarthNet.uav[5] utilizationSecMaintenance 11448.027687669
scalar OsgEarthNet.uav[5] utilizationSecCharge 160061.37148444
scalar OsgEarthNet.uav[5] utilizationSecIdle 56642
scalar OsgEarthNet.uav[5] utilizationEnergyMission 143141.62190518
scalar OsgEarthNet.uav[5] utilizationEnergyMaintenance 54486.08896637
scalar OsgEarthNet.uav[5] utilizationEnergyCharge 197412.93652344
scalar OsgEarthNet.uav[5] utilizationEnergyOverdrawMission 0
scalar OsgEarthNet.uav[5] utilizationEnergyOverdrawMaintenance 0
scalar OsgEarthNet.uav[5] utilizationCountMissions 45
scalar OsgEarthNet.uav[5] utilizationCountManeuversMission 498
scalar OsgEarthNet.uav[5] utilizationCountManeuversMaintenance 89
scalar OsgEarthNet.uav[5] utilizationCountChargeState 45
scalar OsgEarthNet.uav[5] utilizationCountOverdrawnAfterMission 0
scalar OsgEarthNet.uav[5] utilizationCountIdleState 45
scalar OsgEarthNet.uav[5] utilizationFail 0
scalar OsgEarthNet.uav[5] simulationTime 259200
scalar OsgEarthNet.uav[6] utilizationSecMission 623.68863475643
scalar OsgEarthNet.uav[6] utilizationSecMaintenance 394.94199877579
scalar OsgEarthNet.uav[6] utilizationSecCharge 3780
scalar OsgEarthNet.uav[6] utilizationSecIdle 254401.36836647
scalar OsgEarthNet.uav[6] utilizationEnergyMission 2787.3788146973
scalar OsgEarthNet.uav[6] utilizationEnergyMaintenance 1927.0281906128
scalar OsgEarthNet.uav[6] utilizationEnergyCharge 4771.5307617188
scalar OsgEarthNet.uav[6] utilizationEnergyOverdrawMission 0
scalar OsgEarthNet.uav[6] utilizationEnergyOverdrawMaintenance 0
scalar OsgEarthNet.uav[6] utilizationCountMissions 1
scalar OsgEarthNet.uav[6] utilizationCountManeuversMission 10
scalar OsgEarthNet.uav[6] utilizationCountManeuversMaintenance 2
scalar OsgEarthNet.uav[6] utilizationCountChargeState 1
scalar OsgEarthNet.uav[6] utilizationCountOverdrawnAfterMission 0
scalar OsgEarthNet.uav[6] utilizationCountIdleState 2
scalar OsgEarthNet.uav[6] utilizationFail 0
scalar OsgEarthNet.uav[6] simulationTime 259200
scalar OsgEarthNet.uav[7] utilizationSecMission 24927.382204357
scalar OsgEarthNet.uav[7] utilizationSecMaintenance 11749.504006684
scalar OsgEarthNet.uav[7] utilizationSecCharge 140910
scalar OsgEarthNet.uav[7] utilizationSecIdle 81613.112788959
scalar OsgEarthNet.uav[7] utilizationEnergyMission 113930.59355164
scalar OsgEarthNet.uav[7] utilizationEnergyMaintenance 55690.931480408
scalar OsgEarthNet.uav[7] utilizationEnergyCharge 169439.9284668
scalar OsgEarthNet.uav[7] utilizationEnergyOverdrawMission 0
scalar OsgEarthNet.uav[7] utilizationEnergyOverdrawMaintenance 0
scalar OsgEarthNet.uav[7] utilizationCountMissions 42
scalar OsgEarthNet.uav[7] utilizationCountManeuversMission 413
scalar OsgEarthNet.uav[7] utilizationCountManeuversMaintenance 84
scalar OsgEarthNet.uav[7] utilizationCountChargeState 42
scalar OsgEarthNet.uav[7] utilizationCountOverdrawnAfterMission 0
scalar OsgEarthNet.uav[7] utilizationCountIdleState 43
scalar OsgEarthNet.uav[7] utilizationFail 0
scalar OsgEarthNet.uav[7] simulationTime 259200
scalar OsgEarthNet.uav[8] utilizationSecMission 694.00169469977
scalar OsgEarthNet.uav[8] utilizationSecMaintenance 338.49695459722
scalar OsgEarthNet.uav[8] utilizationSecCharge 3770
scalar OsgEarthNet.uav[8] utilizationSecIdle 254397.5003507
scalar OsgEarthNet.uav[8] utilizationEnergyMission 3312.5629730225
scalar OsgEarthNet.uav[8] utilizationEnergyMaintenance 1461.4057121277
scalar OsgEarthNet.uav[8] utilizationEnergyCharge 4773.966796875
scalar OsgEarthNet.uav[8] utilizationEnergyOverdrawMission 0
scalar OsgEarthNet.uav[8] utilizationEnergyOverdrawMaintenance 0
scalar OsgEarthNet.uav[8] utilizationCountMissions 1
scalar OsgEarthNet.uav[8] utilizationCountManeuversMission 13
scalar OsgEarthNet.uav[8] utilizationCountManeuversMaintenance 2
scalar OsgEarthNet.uav[8] utilizationCountChargeState 1
scalar OsgEarthNet.uav[8] utilizationCountOverdrawnAfterMission 0
scalar OsgEarthNet.uav[8] utilizationCountIdleState 2
scalar OsgEarthNet.uav[8] utilizationFail 0
scalar OsgEarthNet.uav[8] simulationTime 259200
scalar OsgEarthNet.uav[9] utilizationSecMission 19793.225887025
scalar OsgEarthNet.uav[9] utilizationSecMaintenance 7580.9529893338
scalar OsgEarthNet.uav[9] utilizationSecCharge 103560
scalar OsgEarthNet.uav[9] utilizationSecIdle 128265.82012364
scalar OsgEarthNet.uav[9] utilizationEnergyMission 90832.838623047
scalar OsgEarthNet.uav[9] utilizationEnergyMaintenance 36918.800273895
scalar OsgEarthNet.uav[9] utilizationEnergyCharge 127733.19018555
scalar OsgEarthNet.uav[9] utilizationEnergyOverdrawMission 0
scalar OsgEarthNet.uav[9] utilizationEnergyOverdrawMaintenance 0
scalar OsgEarthNet.uav[9] utilizationCountMissions 29
scalar OsgEarthNet.uav[9] utilizationCountManeuversMission 313
scalar OsgEarthNet.uav[9] utilizationCountManeuversMaintenance 58
scalar OsgEarthNet.uav[9] utilizationCountChargeState 29
scalar OsgEarthNet.uav[9] utilizationCountOverdrawnAfterMission 0
scalar OsgEarthNet.uav[9] utilizationCountIdleState 30
scalar OsgEarthNet.uav[9] utilizationFail 0
scalar OsgEarthNet.uav[9] simulationTime 259200
scalar OsgEarthNet.uav[10] utilizationSecMission 750.20472747826
scalar OsgEarthNet.uav[10] utilizationSecMaintenance 261.68051383311
scalar OsgEarthNet.uav[10] utilizationSecCharge 3620
scalar OsgEarthNet.uav[10] utilizationSecIdle 254568.11375869
scalar OsgEarthNet.uav[10] utilizationEnergyMission 3193.3196716309
scalar OsgEarthNet.uav[10] utilizationEnergyMaintenance 1299.7053947449
scalar OsgEarthNet.uav[10] utilizationEnergyCharge 4493.0278320312
scalar OsgEarthNet.uav[10] utilizationEnergyOverdrawMission 0
scalar OsgEarthNet.uav[10] utilizationEnergyOverdrawMaintenance 0
scalar OsgEarthNet.uav[10] utilizationCountMissions 1
scalar OsgEarthNet.uav[10] utilizationCountManeuversMission 11
scalar OsgEarthNet.uav[10] utilizationCountManeuversMaintenance 2
scalar OsgEarthNet.uav[10] utilizationCountChargeState 1
scalar OsgEarthNet.uav[10] utilizationCountOverdrawnAfterMission 0
scalar OsgEarthNet.uav[10] utilizationCountIdleState 2
scalar OsgEarthNet.uav[10] utilizationFail 0
scalar OsgEarthNet.uav[10] simulationTime 259200
scalar OsgEarthNet.uav[11] utilizationSecMission 24981.367822233
scalar OsgEarthNet.uav[11] utilizationSecMaintenance 9689.5682353477
scalar OsgEarthNet.uav[11] utilizationSecCharge 126511.65305107
scalar OsgEarthNet.uav[11] utilizationSecIdle 98017.40989135
scalar OsgEarthNet.uav[11] utilizationEnergyMission 114689.05632019
scalar OsgEarthNet.uav[11] utilizationEnergyMaintenance 45248.226787567
scalar OsgEarthNet.uav[11] utilizationEnergyCharge 156654.52124023
scalar OsgEarthNet.uav[11] utilizationEnergyOverdrawMission 0
scalar OsgEarthNet.uav[11] utilizationEnergyOverdrawMaintenance 0
scalar OsgEarthNet.uav[11] utilizationCountMissions 36
scalar OsgEarthNet.uav[11] utilizationCountManeuversMission 410
scalar OsgEarthNet.uav[11] utilizationCountManeuversMaintenance 72
scalar OsgEarthNet.uav[11] utilizationCountChargeState 36
scalar OsgEarthNet.uav[11] utilizationCountOverdrawnAfterMission 0
scalar OsgEarthNet.uav[11] utilizationCountIdleState 36
scalar OsgEarthNet.uav[11] utilizationFail 0
scalar OsgEarthNet.uav[11] simulationTime 259200
scalar OsgEarthNet.uav[12] utilizationSecMission 27864.29600977
scalar OsgEarthNet.uav[12] utilizationSecMaintenance 9821.6083301225
scalar OsgEarthNet.uav[12] utilizationSecCharge 138060
scalar OsgEarthNet.uav[12] utilizationSecIdle 83454.094660108
scalar OsgEarthNet.uav[12] utilizationEnergyMission 128209.4507786
scalar OsgEarthNet.uav[12] utilizationEnergyMaintenance 47486.253620148
scalar OsgEarthNet.uav[12] utilizationEnergyCharge 171723.21435547
scalar OsgEarthNet.uav[12] utilizationEnergyOverdrawMission 0
scalar OsgEarthNet.uav[12] utilizationEnergyOverdrawMaintenance 0
scalar OsgEarthNet.uav[12] utilizationCountMissions 38
scalar OsgEarthNet.uav[12] utilizationCountManeuversMission 454
scalar OsgEarthNet.uav[12] utilizationCountManeuversMaintenance 77
scalar OsgEarthNet.uav[12] utilizationCountChargeState 38
scalar OsgEarthNet.uav[12] utilizationCountOverdrawnAfterMission 0
scalar OsgEarthNet.uav[12] utilizationCountIdleState 39
scalar OsgEarthNet.uav[12] utilizationFail 0
scalar OsgEarthNet.uav[12] simulationTime 259200
scalar OsgEarthNet.uav[13] utilizationSecMission 23089.942966736
scalar OsgEarthNet.uav[13] utilizationSecMaintenance 9349.1604770013
scalar OsgEarthNet.uav[13] utilizationSecCharge 123460
scalar OsgEarthNet.uav[13] utilizationSecIdle 103300.89555626
scalar OsgEarthNet.uav[13] utilizationEnergyMission 106829.06035614
scalar OsgEarthNet.uav[13] utilizationEnergyMaintenance 44615.717666626
scalar OsgEarthNet.uav[13] utilizationEnergyCharge 151742.26171875
scalar OsgEarthNet.uav[13] utilizationEnergyOverdrawMission 0
scalar OsgEarthNet.uav[13] utilizationEnergyOverdrawMaintenance 0
scalar OsgEarthNet.uav[13] utilizationCountMissions 35
scalar OsgEarthNet.uav[13] utilizationCountManeuversMission 374
scalar OsgEarthNet.uav[13] utilizationCountManeuversMaintenance 70
scalar OsgEarthNet.uav[13] utilizationCountChargeState 35
scalar OsgEarthNet.uav[13] utilizationCountOverdrawnAfterMission 0
scalar OsgEarthNet.uav[13] utilizationCountIdleState 36
scalar OsgEarthNet.uav[13] utilizationFail 0
scalar OsgEarthNet.uav[13] simulationTime 259200
scalar OsgEarthNet.uav[14] utilizationSecMission 533.25626237336
scalar OsgEarthNet.uav[14] utilizationSecMaintenance 451.14699917938
scalar OsgEarthNet.uav[14] utilizationSecCharge 3750
scalar OsgEarthNet.uav[14] utilizationSecIdle 254465.59573845
scalar OsgEarthNet.uav[14] utilizationEnergyMission 2527.6259307861
scalar OsgEarthNet.uav[14] utilizationEnergyMaintenance 2188.2890281677
scalar OsgEarthNet.uav[14] utilizationEnergyCharge 4717.7377929688
scalar OsgEarthNet.uav[14] utilizationEnergyOverdrawMission 0
scalar OsgEarthNet.uav[14] utilizationEnergyOverdrawMaintenance 0
scalar OsgEarthNet.uav[14] utilizationCountMissions 1
scalar OsgEarthNet.uav[14] utilizationCountManeuversMission 8
scalar OsgEarthNet.uav[14] utilizationCountManeuversMaintenance 2
scalar OsgEarthNet.uav[14] utilizationCountChargeState 1
scalar OsgEarthNet.uav[14] utilizationCountOverdrawnAfterMission 0
scalar OsgEarthNet.uav[14] utilizationCountIdleState 2
scalar OsgEarthNet.uav[14] utilizationFail 0
scalar OsgEarthNet.uav[14] simulationTime 259200
scalar OsgEarthNet.uav[15] utilizationSecMission 24032.002830364
scalar OsgEarthNet.uav[15] utilizationSecMaintenance 10085.582241884
scalar OsgEarthNet.uav[15] utilizationSecCharge 126380
scalar OsgEarthNet.uav[15] utilizationSecIdle 98702.413927753
scalar OsgEarthNet.uav[15] utilizationEnergyMission 111225.36122894
scalar OsgEarthNet.uav[15] utilizationEnergyMaintenance 46374.56659317
scalar OsgEarthNet.uav[15] utilizationEnergyCharge 156828.99072266
scalar OsgEarthNet.uav[15] utilizationEnergyOverdrawMission 0
scalar OsgEarthNet.uav[15] utilizationEnergyOverdrawMaintenance 22.875427246094
scalar OsgEarthNet.uav[15] utilizationCountMissions 35
scalar OsgEarthNet.uav[15] utilizationCountManeuversMission 395
scalar OsgEarthNet.uav[15] utilizationCountManeuversMaintenance 70
scalar OsgEarthNet.uav[15] utilizationCountChargeState 35
scalar OsgEarthNet.uav[15] utilizationCountOverdrawnAfterMission 1
scalar OsgEarthNet.uav[15] utilizationCountIdleState 36
scalar OsgEarthNet.uav[15] utilizationFail 0
scalar OsgEarthNet.uav[15] simulationTime 259200
scalar OsgEarthNet.uav[16] utilizationSecMission 684.4732299383
scalar OsgEarthNet.uav[16] utilizationSecMaintenance 298.56834692969
scalar OsgEarthNet.uav[16] utilizationSecCharge 3780
scalar OsgEarthNet.uav[16] utilizationSecIdle 254436.95742313
scalar OsgEarthNet.uav[16] utilizationEnergyMission 3323.1846466064
scalar OsgEarthNet.uav[16] utilizationEnergyMaintenance 1471.7059249878
scalar OsgEarthNet.uav[16] utilizationEnergyCharge 4794.8940429688
scalar OsgEarthNet.uav[16] utilizationEnergyOverdrawMission 0
scalar OsgEarthNet.uav[16] utilizationEnergyOverdrawMaintenance 0
scalar OsgEarthNet.uav[16] utilizationCountMissions 1
scalar OsgEarthNet.uav[16] utilizationCountManeuversMission 11
scalar OsgEarthNet.uav[16] utilizationCountManeuversMaintenance 2
scalar OsgEarthNet.uav[16] utilizationCountChargeState 1
scalar OsgEarthNet.uav[16] utilizationCountOverdrawnAfterMission 0
scalar OsgEarthNet.uav[16] utilizationCountIdleState 2
scalar OsgEarthNet.uav[16] utilizationFail 0
scalar OsgEarthNet.uav[16] simulationTime 259200
scalar OsgEarthNet.uav[17] utilizationSecMission 2807.4558936967
scalar OsgEarthNet.uav[17] utilizationSecMaintenance 1704.3007157628
scalar OsgEarthNet.uav[17] utilizationSecCharge 17410
scalar OsgEarthNet.uav[17] utilizationSecIdle 237278.24239054
scalar OsgEarthNet.uav[17] utilizationEnergyMission 13238.572662353
scalar OsgEarthNet.uav[17] utilizationEnergyMaintenance 8069.9476280212
scalar OsgEarthNet.uav[17] utilizationEnergyCharge 21236.12109375
scalar OsgEarthNet.uav[17] utilizationEnergyOverdrawMission 0
scalar OsgEarthNet.uav[17] utilizationEnergyOverdrawMaintenance 0
scalar OsgEarthNet.uav[17] utilizationCountMissions 5
scalar OsgEarthNet.uav[17] utilizationCountManeuversMission 51
scalar OsgEarthNet.uav[17] utilizationCountManeuversMaintenance 10
scalar OsgEarthNet.uav[17] utilizationCountChargeState 5
scalar OsgEarthNet.uav[17] utilizationCountOverdrawnAfterMission 0
scalar OsgEarthNet.uav[17] utilizationCountIdleState 6
scalar OsgEarthNet.uav[17] utilizationFail 0
scalar OsgEarthNet.uav[17] simulationTime 259200
scalar OsgEarthNet.uav[18] utilizationSecMission 694.00169469977
scalar OsgEarthNet.uav[18] utilizationSecMaintenance 338.49695459722
scalar OsgEarthNet.uav[18] utilizationSecCharge 3690
scalar OsgEarthNet.uav[18] utilizationSecIdle 254477.5003507
scalar OsgEarthNet.uav[18] utilizationEnergyMission 3196.2879486084
scalar OsgEarthNet.uav[18] utilizationEnergyMaintenance 1443.3118400574
scalar OsgEarthNet.uav[18] utilizationEnergyCharge 4639.6010742188
scalar OsgEarthNet.uav[18] utilizationEnergyOverdrawMission 0
scalar OsgEarthNet.uav[18] utilizationEnergyOverdrawMaintenance 0
scalar OsgEarthNet.uav[18] utilizationCountMissions 1
scalar OsgEarthNet.uav[18] utilizationCountManeuversMission 13
scalar OsgEarthNet.uav[18] utilizationCountManeuversMaintenance 2
scalar OsgEarthNet.uav[18] utilizationCountChargeState 1
scalar OsgEarthNet.uav[18] utilizationCountOverdrawnAfterMission 0
scalar OsgEarthNet.uav[18] utilizationCountIdleState 2
scalar OsgEarthNet.uav[18] utilizationFail 0
scalar OsgEarthNet.uav[18] simulationTime 259200
scalar OsgEarthNet.uav[19] utilizationSecMission 606.44898061421
scalar OsgEarthNet.uav[19] utilizationSecMaintenance 389.43253153929
scalar OsgEarthNet.uav[19] utilizationSecCharge 3610
scalar OsgEarthNet.uav[19] utilizationSecIdle 254594.11748785
scalar OsgEarthNet.uav[19] utilizationEnergyMission 2681.5047149658
scalar OsgEarthNet.uav[19] utilizationEnergyMaintenance 1796.5466537476
scalar OsgEarthNet.uav[19] utilizationEnergyCharge 4478.048828125
scalar OsgEarthNet.uav[19] utilizationEnergyOverdrawMission 0
scalar OsgEarthNet.uav[19] utilizationEnergyOverdrawMaintenance 0
scalar OsgEarthNet.uav[19] utilizationCountMissions 1
scalar OsgEarthNet.uav[19] utilizationCountManeuversMission 9
scalar OsgEarthNet.uav[19] utilizationCountManeuversMaintenance 2
scalar OsgEarthNet.uav[19] utilizationCountChargeState 1
scalar OsgEarthNet.uav[19] utilizationCountOverdrawnAfterMission 0
scalar OsgEarthNet.uav[19] utilizationCountIdleState 2
scalar OsgEarthNet.uav[19] utilizationFail 0
scalar OsgEarthNet.uav[19] simulationTime 259200
scalar OsgEarthNet.uav[20] utilizationSecMission 750.20472747826
scalar OsgEarthNet.uav[20] utilizationSecMaintenance 261.68051383311
scalar OsgEarthNet.uav[20] utilizationSecCharge 3810
scalar OsgEarthNet.uav[20] utilizationSecIdle 254378.11375869
scalar OsgEarthNet.uav[20] utilizationEnergyMission 3604.1830444336
scalar OsgEarthNet.uav[20] utilizationEnergyMaintenance 1217.9184684753
scalar OsgEarthNet.uav[20] utilizationEnergyCharge 4822.103515625
scalar OsgEarthNet.uav[20] utilizationEnergyOverdrawMission 0
scalar OsgEarthNet.uav[20] utilizationEnergyOverdrawMaintenance 0
scalar OsgEarthNet.uav[20] utilizationCountMissions 1
scalar OsgEarthNet.uav[20] utilizationCountManeuversMission 11
scalar OsgEarthNet.uav[20] utilizationCountManeuversMaintenance 2
scalar OsgEarthNet.uav[20] utilizationCountChargeState 1
scalar OsgEarthNet.uav[20] utilizationCountOverdrawnAfterMission 0
scalar OsgEarthNet.uav[20] utilizationCountIdleState 2
scalar OsgEarthNet.uav[20] utilizationFail 0
scalar OsgEarthNet.uav[20] simulationTime 259200
scalar OsgEarthNet.uav[21] utilizationSecMission 4011.4039669365
scalar OsgEarthNet.uav[21] utilizationSecMaintenance 2067.4808455412
scalar OsgEarthNet.uav[21] utilizationSecCharge 23510
scalar OsgEarthNet.uav[21] utilizationSecIdle 229611.11418752
scalar OsgEarthNet.uav[21] utilizationEnergyMission 18139.703353882
scalar OsgEarthNet.uav[21] utilizationEnergyMaintenance 10067.105865479
scalar OsgEarthNet.uav[21] utilizationEnergyCharge 28206.826904297
scalar OsgEarthNet.uav[21] utilizationEnergyOverdrawMission 0
scalar OsgEarthNet.uav[21] utilizationEnergyOverdrawMaintenance 0
scalar OsgEarthNet.uav[21] utilizationCountMissions 7
scalar OsgEarthNet.uav[21] utilizationCountManeuversMission 66
scalar OsgEarthNet.uav[21] utilizationCountManeuversMaintenance 14
scalar OsgEarthNet.uav[21] utilizationCountChargeState 7
scalar OsgEarthNet.uav[21] utilizationCountOverdrawnAfterMission 0
scalar OsgEarthNet.uav[21] utilizationCountIdleState 8
scalar OsgEarthNet.uav[21] utilizationFail 0
scalar OsgEarthNet.uav[21] simulationTime 259200
scalar OsgEarthNet.uav[22] utilizationSecMission 694.00169469977
scalar OsgEarthNet.uav[22] utilizationSecMaintenance 338.49695459722
scalar OsgEarthNet.uav[22] utilizationSecCharge 3720
scalar OsgEarthNet.uav[22] utilizationSecIdle 254447.5003507
scalar OsgEarthNet.uav[22] utilizationEnergyMission 3206.4340820312
scalar OsgEarthNet.uav[22] utilizationEnergyMaintenance 1482.6873283386
scalar OsgEarthNet.uav[22] utilizationEnergyCharge 4689.1254882812
scalar OsgEarthNet.uav[22] utilizationEnergyOverdrawMission 0
scalar OsgEarthNet.uav[22] utilizationEnergyOverdrawMaintenance 0
scalar OsgEarthNet.uav[22] utilizationCountMissions 1
scalar OsgEarthNet.uav[22] utilizationCountManeuversMission 13
scalar OsgEarthNet.uav[22] utilizationCountManeuversMaintenance 2
scalar OsgEarthNet.uav[22] utilizationCountChargeState 1
scalar OsgEarthNet.uav[22] utilizationCountOverdrawnAfterMission 0
scalar OsgEarthNet.uav[22] utilizationCountIdleState 2
scalar OsgEarthNet.uav[22] utilizationFail 0
scalar OsgEarthNet.uav[22] simulationTime 259200
scalar OsgEarthNet.uav[23] utilizationSecMission 23277.109648833
scalar OsgEarthNet.uav[23] utilizationSecMaintenance 10123.720345849
scalar OsgEarthNet.uav[23] utilizationSecCharge 126120
scalar OsgEarthNet.uav[23] utilizationSecIdle 99679.169005318
scalar OsgEarthNet.uav[23] utilizationEnergyMission 107111.45718384
scalar OsgEarthNet.uav[23] utilizationEnergyMaintenance 47414.221588135
scalar OsgEarthNet.uav[23] utilizationEnergyCharge 154523.67700195
scalar OsgEarthNet.uav[23] utilizationEnergyOverdrawMission 0
scalar OsgEarthNet.uav[23] utilizationEnergyOverdrawMaintenance 0
scalar OsgEarthNet.uav[23] utilizationCountMissions 36
scalar OsgEarthNet.uav[23] utilizationCountManeuversMission 375
scalar OsgEarthNet.uav[23] utilizationCountManeuversMaintenance 72
scalar OsgEarthNet.uav[23] utilizationCountChargeState 36
scalar OsgEarthNet.uav[23] utilizationCountOverdrawnAfterMission 0
scalar OsgEarthNet.uav[23] utilizationCountIdleState 37
scalar OsgEarthNet.uav[23] utilizationFail 0
scalar OsgEarthNet.uav[23] simulationTime 259200
scalar OsgEarthNet.uav[24] utilizationSecMission 682.94783150361
scalar OsgEarthNet.uav[24] utilizationSecMaintenance 228.1606024445
scalar OsgEarthNet.uav[24] utilizationSecCharge 3480
scalar OsgEarthNet.uav[24] utilizationSecIdle 254808.89056605
scalar OsgEarthNet.uav[24] utilizationEnergyMission 3180.6035308838
scalar OsgEarthNet.uav[24] utilizationEnergyMaintenance 1054.4108200073
scalar OsgEarthNet.uav[24] utilizationEnergyCharge 4235.017578125
scalar OsgEarthNet.uav[24] utilizationEnergyOverdrawMission 0
scalar OsgEarthNet.uav[24] utilizationEnergyOverdrawMaintenance 0
scalar OsgEarthNet.uav[24] utilizationCountMissions 1
scalar OsgEarthNet.uav[24] utilizationCountManeuversMission 12
scalar OsgEarthNet.uav[24] utilizationCountManeuversMaintenance 2
scalar OsgEarthNet.uav[24] utilizationCountChargeState 1
scalar OsgEarthNet.uav[24] utilizationCountOverdrawnAfterMission 0
scalar OsgEarthNet.uav[24] utilizationCountIdleState 2
scalar OsgEarthNet.uav[24] utilizationFail 0
scalar OsgEarthNet.uav[24] simulationTime 259200
scalar OsgEarthNet.uav[25] utilizationSecMission 887.1741082606
scalar OsgEarthNet.uav[25] utilizationSecMaintenance 181.20511066264
scalar OsgEarthNet.uav[25] utilizationSecCharge 3920
scalar OsgEarthNet.uav[25] utilizationSecIdle 254211.61978108
scalar OsgEarthNet.uav[25] utilizationEnergyMission 4196.6268920899
scalar OsgEarthNet.uav[25] utilizationEnergyMaintenance 979.78956222534
scalar OsgEarthNet.uav[25] utilizationEnergyCharge 5008.9887695312
scalar OsgEarthNet.uav[25] utilizationEnergyOverdrawMission 0
scalar OsgEarthNet.uav[25] utilizationEnergyOverdrawMaintenance 0
scalar OsgEarthNet.uav[25] utilizationCountMissions 1
scalar OsgEarthNet.uav[25] utilizationCountManeuversMission 14
scalar OsgEarthNet.uav[25] utilizationCountManeuversMaintenance 2
scalar OsgEarthNet.uav[25] utilizationCountChargeState 1
scalar OsgEarthNet.uav[25] utilizationCountOverdrawnAfterMission 0
scalar OsgEarthNet.uav[25] utilizationCountIdleState 2
scalar OsgEarthNet.uav[25] utilizationFail 0
scalar OsgEarthNet.uav[25] simulationTime 259200
scalar OsgEarthNet.uav[26] utilizationSecMission 606.44898061421
scalar OsgEarthNet.uav[26] utilizationSecMaintenance 389.43253153929
scalar OsgEarthNet.uav[26] utilizationSecCharge 3750
scalar OsgEarthNet.uav[26] utilizationSecIdle 254454.11748785
scalar OsgEarthNet.uav[26] utilizationEnergyMission 2790.1029815674
scalar OsgEarthNet.uav[26] utilizationEnergyMaintenance 1845.6134262085
scalar OsgEarthNet.uav[26] utilizationEnergyCharge 4635.7231445312
scalar OsgEarthNet.uav[26] utilizationEnergyOverdrawMission 0
scalar OsgEarthNet.uav[26] utilizationEnergyOverdrawMaintenance 0
scalar OsgEarthNet.uav[26] utilizationCountMissions 1
scalar OsgEarthNet.uav[26] utilizationCountManeuversMission 9
scalar OsgEarthNet.uav[26] utilizationCountManeuversMaintenance 2
scalar OsgEarthNet.uav[26] utilizationCountChargeState 1
scalar OsgEarthNet.uav[26] utilizationCountOverdrawnAfterMission 0
scalar OsgEarthNet.uav[26] utilizationCountIdleState 2
scalar OsgEarthNet.uav[26] utilizationFail 0
scalar OsgEarthNet.uav[26] simulationTime 259200
scalar OsgEarthNet.uav[27] utilizationSecMission 29620.769896217
scalar OsgEarthNet.uav[27] utilizationSecMaintenance 11967.227597061
scalar OsgEarthNet.uav[27] utilizationSecCharge 155530
scalar OsgEarthNet.uav[27] utilizationSecIdle 62082.001506722
scalar OsgEarthNet.uav[27] utilizationEnergyMission 136761.91017885
scalar OsgEarthNet.uav[27] utilizationEnergyMaintenance 57086.822589874
scalar OsgEarthNet.uav[27] utilizationEnergyCharge 189606.4934082
scalar OsgEarthNet.uav[27] utilizationEnergyOverdrawMission 0
scalar OsgEarthNet.uav[27] utilizationEnergyOverdrawMaintenance 0
scalar OsgEarthNet.uav[27] utilizationCountMissions 45
scalar OsgEarthNet.uav[27] utilizationCountManeuversMission 493
scalar OsgEarthNet.uav[27] utilizationCountManeuversMaintenance 91
scalar OsgEarthNet.uav[27] utilizationCountChargeState 45
scalar OsgEarthNet.uav[27] utilizationCountOverdrawnAfterMission 0
scalar OsgEarthNet.uav[27] utilizationCountIdleState 46
scalar OsgEarthNet.uav[27] utilizationFail 0
scalar OsgEarthNet.uav[27] simulationTime 259200
scalar OsgEarthNet.uav[28] utilizationSecMission 766.82734763767
scalar OsgEarthNet.uav[28] utilizationSecMaintenance 306.92101052153
scalar OsgEarthNet.uav[28] utilizationSecCharge 3970
scalar OsgEarthNet.uav[28] utilizationSecIdle 254156.25064184
scalar OsgEarthNet.uav[28] utilizationEnergyMission 3559.2121734619
scalar OsgEarthNet.uav[28] utilizationEnergyMaintenance 1520.5465316772
scalar OsgEarthNet.uav[28] utilizationEnergyCharge 5079.7612304688
scalar OsgEarthNet.uav[28] utilizationEnergyOverdrawMission 0
scalar OsgEarthNet.uav[28] utilizationEnergyOverdrawMaintenance 0
scalar OsgEarthNet.uav[28] utilizationCountMissions 1
scalar OsgEarthNet.uav[28] utilizationCountManeuversMission 14
scalar OsgEarthNet.uav[28] utilizationCountManeuversMaintenance 2
scalar OsgEarthNet.uav[28] utilizationCountChargeState 1
scalar OsgEarthNet.uav[28] utilizationCountOverdrawnAfterMission 0
scalar OsgEarthNet.uav[28] utilizationCountIdleState 2
scalar OsgEarthNet.uav[28] utilizationFail 0
scalar OsgEarthNet.uav[28] simulationTime 259200
scalar OsgEarthNet.uav[29] utilizationSecMission 760.62515258028
scalar OsgEarthNet.uav[29] utilizationSecMaintenance 291.95923480269
scalar OsgEarthNet.uav[29] utilizationSecCharge 3920
scalar OsgEarthNet.uav[29] utilizationSecIdle 254227.41461262
scalar OsgEarthNet.uav[29] utilizationEnergyMission 3673.1881103516
scalar OsgEarthNet.uav[29] utilizationEnergyMaintenance 1358.2059860229
scalar OsgEarthNet.uav[29] utilizationEnergyCharge 5031.3979492188
scalar OsgEarthNet.uav[29] utilizationEnergyOverdrawMission 0
scalar OsgEarthNet.uav[29] utilizationEnergyOverdrawMaintenance 0
scalar OsgEarthNet.uav[29] utilizationCountMissions 1
scalar OsgEarthNet.uav[29] utilizationCountManeuversMission 12
scalar OsgEarthNet.uav[29] utilizationCountManeuversMaintenance 2
scalar OsgEarthNet.uav[29] utilizationCountChargeState 1
scalar OsgEarthNet.uav[29] utilizationCountOverdrawnAfterMission 0
scalar OsgEarthNet.uav[29] utilizationCountIdleState 2
scalar OsgEarthNet.uav[29] utilizationFail 0
scalar OsgEarthNet.uav[29] simulationTime 259200
scalar OsgEarthNet.uav[30] utilizationSecMission 760.62515258028
scalar OsgEarthNet.uav[30] utilizationSecMaintenance 291.95923480269
scalar OsgEarthNet.uav[30] utilizationSecCharge 3830
scalar OsgEarthNet.uav[30] utilizationSecIdle 254317.41461262
scalar OsgEarthNet.uav[30] utilizationEnergyMission 3501.757774353
scalar OsgEarthNet.uav[30] utilizationEnergyMaintenance 1393.2428817749
scalar OsgEarthNet.uav[30] utilizationEnergyCharge 4895.0029296875
scalar OsgEarthNet.uav[30] utilizationEnergyOverdrawMission 0
scalar OsgEarthNet.uav[30] utilizationEnergyOverdrawMaintenance 0
scalar OsgEarthNet.uav[30] utilizationCountMissions 1
scalar OsgEarthNet.uav[30] utilizationCountManeuversMission 12
scalar OsgEarthNet.uav[30] utilizationCountManeuversMaintenance 2
scalar OsgEarthNet.uav[30] utilizationCountChargeState 1
scalar OsgEarthNet.uav[30] utilizationCountOverdrawnAfterMission 0
scalar OsgEarthNet.uav[30] utilizationCountIdleState 2
scalar OsgEarthNet.uav[30] utilizationFail 0
scalar OsgEarthNet.uav[30] simulationTime 259200
scalar OsgEarthNet.uav[31] utilizationSecMission 14783.084859989
scalar OsgEarthNet.uav[31] utilizationSecMaintenance 5425.7160528282
scalar OsgEarthNet.uav[31] utilizationSecCharge 73970
scalar OsgEarthNet.uav[31] utilizationSecIdle 165021.19808718
scalar OsgEarthNet.uav[31] utilizationEnergyMission 68843.125175476
scalar OsgEarthNet.uav[31] utilizationEnergyMaintenance 24588.483200073
scalar OsgEarthNet.uav[31] utilizationEnergyCharge 92605.244628906
scalar OsgEarthNet.uav[31] utilizationEnergyOverdrawMission 0
scalar OsgEarthNet.uav[31] utilizationEnergyOverdrawMaintenance 0
scalar OsgEarthNet.uav[31] utilizationCountMissions 20
scalar OsgEarthNet.uav[31] utilizationCountManeuversMission 253
scalar OsgEarthNet.uav[31] utilizationCountManeuversMaintenance 40
scalar OsgEarthNet.uav[31] utilizationCountChargeState 20
scalar OsgEarthNet.uav[31] utilizationCountOverdrawnAfterMission 0
scalar OsgEarthNet.uav[31] utilizationCountIdleState 21
scalar OsgEarthNet.uav[31] utilizationFail 0
scalar OsgEarthNet.uav[31] simulationTime 259200
scalar OsgEarthNet.uav[32] utilizationSecMission 694.00169469977
scalar OsgEarthNet.uav[32] utilizationSecMaintenance 338.49695459722
scalar OsgEarthNet.uav[32] utilizationSecCharge 3750
scalar OsgEarthNet.uav[32] utilizationSecIdle 254417.5003507
scalar OsgEarthNet.uav[32] utilizationEnergyMission 3174.8418426514
scalar OsgEarthNet.uav[32] utilizationEnergyMaintenance 1545.7374992371
scalar OsgEarthNet.uav[32] utilizationEnergyCharge 4720.580078125
scalar OsgEarthNet.uav[32] utilizationEnergyOverdrawMission 0
scalar OsgEarthNet.uav[32] utilizationEnergyOverdrawMaintenance 0
scalar OsgEarthNet.uav[32] utilizationCountMissions 1
scalar OsgEarthNet.uav[32] utilizationCountManeuversMission 13
scalar OsgEarthNet.uav[32] utilizationCountManeuversMaintenance 2
scalar OsgEarthNet.uav[32] utilizationCountChargeState 1
scalar OsgEarthNet.uav[32] utilizationCountOverdrawnAfterMission 0
scalar OsgEarthNet.uav[32] utilizationCountIdleState 2
scalar OsgEarthNet.uav[32] utilizationFail 0
scalar OsgEarthNet.uav[32] simulationTime 259200
scalar OsgEarthNet.uav[33] utilizationSecMission 836.77707522227
scalar OsgEarthNet.uav[33] utilizationSecMaintenance 217.0347828456
scalar OsgEarthNet.uav[33] utilizationSecCharge 3870
scalar OsgEarthNet.uav[33] utilizationSecIdle 254276.18714193
scalar OsgEarthNet.uav[33] utilizationEnergyMission 3852.7613677979
scalar OsgEarthNet.uav[33] utilizationEnergyMaintenance 1073.6475639343
scalar OsgEarthNet.uav[33] utilizationEnergyCharge 4926.4052734375
scalar OsgEarthNet.uav[33] utilizationEnergyOverdrawMission 0
scalar OsgEarthNet.uav[33] utilizationEnergyOverdrawMaintenance 0
scalar OsgEarthNet.uav[33] utilizationCountMissions 1
scalar OsgEarthNet.uav[33] utilizationCountManeuversMission 13
scalar OsgEarthNet.uav[33] utilizationCountManeuversMaintenance 2
scalar OsgEarthNet.uav[33] utilizationCountChargeState 1
scalar OsgEarthNet.uav[33] utilizationCountOverdrawnAfterMission 0
scalar OsgEarthNet.uav[33] utilizationCountIdleState 2
scalar OsgEarthNet.uav[33] utilizationFail 0
scalar OsgEarthNet.uav[33] simulationTime 259200
scalar OsgEarthNet.uav[34] utilizationSecMission 22500.274623449
scalar OsgEarthNet.uav[34] utilizationSecMaintenance 8891.4537962418
scalar OsgEarthNet.uav[34] utilizationSecCharge 117838.25030616
scalar OsgEarthNet.uav[34] utilizationSecIdle 109970.02027414
scalar OsgEarthNet.uav[34] utilizationEnergyMission 104496.79819489
scalar OsgEarthNet.uav[34] utilizationEnergyMaintenance 41771.701972961
scalar OsgEarthNet.uav[34] utilizationEnergyCharge 145643.82495117
scalar OsgEarthNet.uav[34] utilizationEnergyOverdrawMission 0
scalar OsgEarthNet.uav[34] utilizationEnergyOverdrawMaintenance 0
scalar OsgEarthNet.uav[34] utilizationCountMissions 33
scalar OsgEarthNet.uav[34] utilizationCountManeuversMission 364
scalar OsgEarthNet.uav[34] utilizationCountManeuversMaintenance 66
scalar OsgEarthNet.uav[34] utilizationCountChargeState 33
scalar OsgEarthNet.uav[34] utilizationCountOverdrawnAfterMission 0
scalar OsgEarthNet.uav[34] utilizationCountIdleState 33
scalar OsgEarthNet.uav[34] utilizationFail 0
scalar OsgEarthNet.uav[34] simulationTime 259200
scalar OsgEarthNet.uav[35] utilizationSecMission 1508.3501500225
scalar OsgEarthNet.uav[35] utilizationSecMaintenance 495.1026104047
scalar OsgEarthNet.uav[35] utilizationSecCharge 7380
scalar OsgEarthNet.uav[35] utilizationSecIdle 249816.54623957
scalar OsgEarthNet.uav[35] utilizationEnergyMission 6961.932723999
scalar OsgEarthNet.uav[35] utilizationEnergyMaintenance 2346.9756393433
scalar OsgEarthNet.uav[35] utilizationEnergyCharge 9236.6669921875
scalar OsgEarthNet.uav[35] utilizationEnergyOverdrawMission 0
scalar OsgEarthNet.uav[35] utilizationEnergyOverdrawMaintenance 0
scalar OsgEarthNet.uav[35] utilizationCountMissions 2
scalar OsgEarthNet.uav[35] utilizationCountManeuversMission 26
scalar OsgEarthNet.uav[35] utilizationCountManeuversMaintenance 4
scalar OsgEarthNet.uav[35] utilizationCountChargeState 2
scalar OsgEarthNet.uav[35] utilizationCountOverdrawnAfterMission 0
scalar OsgEarthNet.uav[35] utilizationCountIdleState 3
scalar OsgEarthNet.uav[35] utilizationFail 0
scalar OsgEarthNet.uav[35] simulationTime 259200
scalar OsgEarthNet.uav[36] utilizationSecMission 11272.368746371
scalar OsgEarthNet.uav[36] utilizationSecMaintenance 4372.8641282244
scalar OsgEarthNet.uav[36] utilizationSecCharge 58630
scalar OsgEarthNet.uav[36] utilizationSecIdle 184924.7661254
scalar OsgEarthNet.uav[36] utilizationEnergyMission 52366.905029297
scalar OsgEarthNet.uav[36] utilizationEnergyMaintenance 20907.745555878
scalar OsgEarthNet.uav[36] utilizationEnergyCharge 73043.309082031
scalar OsgEarthNet.uav[36] utilizationEnergyOverdrawMission 0
scalar OsgEarthNet.uav[36] utilizationEnergyOverdrawMaintenance 0
scalar OsgEarthNet.uav[36] utilizationCountMissions 16
scalar OsgEarthNet.uav[36] utilizationCountManeuversMission 184
scalar OsgEarthNet.uav[36] utilizationCountManeuversMaintenance 32
scalar OsgEarthNet.uav[36] utilizationCountChargeState 16
scalar OsgEarthNet.uav[36] utilizationCountOverdrawnAfterMission 0
scalar OsgEarthNet.uav[36] utilizationCountIdleState 17
scalar OsgEarthNet.uav[36] utilizationFail 0
scalar OsgEarthNet.uav[36] simulationTime 259200
scalar OsgEarthNet.uav[37] utilizationSecMission 443.5870541303
scalar OsgEarthNet.uav[37] utilizationSecMaintenance 494.47431392059
scalar OsgEarthNet.uav[37] utilizationSecCharge 3650
scalar OsgEarthNet.uav[37] utilizationSecIdle 254611.93763195
scalar OsgEarthNet.uav[37] utilizationEnergyMission 2049.2794342041
scalar OsgEarthNet.uav[37] utilizationEnergyMaintenance 2416.1138114929
scalar OsgEarthNet.uav[37] utilizationEnergyCharge 4508.6616210938
scalar OsgEarthNet.uav[37] utilizationEnergyOverdrawMission 0
scalar OsgEarthNet.uav[37] utilizationEnergyOverdrawMaintenance 0
scalar OsgEarthNet.uav[37] utilizationCountMissions 1
scalar OsgEarthNet.uav[37] utilizationCountManeuversMission 7
scalar OsgEarthNet.uav[37] utilizationCountManeuversMaintenance 2
scalar OsgEarthNet.uav[37] utilizationCountChargeState 1
scalar OsgEarthNet.uav[37] utilizationCountOverdrawnAfterMission 0
scalar OsgEarthNet.uav[37] utilizationCountIdleState 2
scalar OsgEarthNet.uav[37] utilizationFail 0
scalar OsgEarthNet.uav[37] simulationTime 259200
scalar OsgEarthNet.uav[38] utilizationSecMission 19659.566034241
scalar OsgEarthNet.uav[38] utilizationSecMaintenance 9849.2566643822
scalar OsgEarthNet.uav[38] utilizationSecCharge 114334.82608056
scalar OsgEarthNet.uav[38] utilizationSecIdle 115356.35022082
scalar OsgEarthNet.uav[38] utilizationEnergyMission 91549.997917175
scalar OsgEarthNet.uav[38] utilizationEnergyMaintenance 46245.567958832
scalar OsgEarthNet.uav[38] utilizationEnergyCharge 137624.02758789
scalar OsgEarthNet.uav[38] utilizationEnergyOverdrawMission 0
scalar OsgEarthNet.uav[38] utilizationEnergyOverdrawMaintenance 0
scalar OsgEarthNet.uav[38] utilizationCountMissions 34
scalar OsgEarthNet.uav[38] utilizationCountManeuversMission 325
scalar OsgEarthNet.uav[38] utilizationCountManeuversMaintenance 68
scalar OsgEarthNet.uav[38] utilizationCountChargeState 34
scalar OsgEarthNet.uav[38] utilizationCountOverdrawnAfterMission 0
scalar OsgEarthNet.uav[38] utilizationCountIdleState 34
scalar OsgEarthNet.uav[38] utilizationFail 0
scalar OsgEarthNet.uav[38] simulationTime 259200
scalar OsgEarthNet.uav[39] utilizationSecMission 29064.878424361
scalar OsgEarthNet.uav[39] utilizationSecMaintenance 12058.80337371
scalar OsgEarthNet.uav[39] utilizationSecCharge 152190
scalar OsgEarthNet.uav[39] utilizationSecIdle 65886.317201928
scalar OsgEarthNet.uav[39] utilizationEnergyMission 135494.65486145
scalar OsgEarthNet.uav[39] utilizationEnergyMaintenance 56345.033563699
scalar OsgEarthNet.uav[39] utilizationEnergyCharge 187065.40991211
scalar OsgEarthNet.uav[39] utilizationEnergyOverdrawMission 0
scalar OsgEarthNet.uav[39] utilizationEnergyOverdrawMaintenance 0
scalar OsgEarthNet.uav[39] utilizationCountMissions 44
scalar OsgEarthNet.uav[39] utilizationCountManeuversMission 477
scalar OsgEarthNet.uav[39] utilizationCountManeuversMaintenance 88
scalar OsgEarthNet.uav[39] utilizationCountChargeState 43
scalar OsgEarthNet.uav[39] utilizationCountOverdrawnAfterMission 0
scalar OsgEarthNet.uav[39] utilizationCountIdleState 44
scalar OsgEarthNet.uav[39] utilizationFail 0
scalar OsgEarthNet.uav[39] simulationTime 259200
scalar OsgEarthNet.uav[40] utilizationSecMission 760.62515258028
scalar OsgEarthNet.uav[40] utilizationSecMaintenance 291.95923480269
scalar OsgEarthNet.uav[40] utilizationSecCharge 3920
scalar OsgEarthNet.uav[40] utilizationSecIdle 254227.41461262
scalar OsgEarthNet.uav[40] utilizationEnergyMission 3673.388671875
scalar OsgEarthNet.uav[40] utilizationEnergyMaintenance 1356.519859314
scalar OsgEarthNet.uav[40] utilizationEnergyCharge 5029.90625
scalar OsgEarthNet.uav[40] utilizationEnergyOverdrawMission 0
scalar OsgEarthNet.uav[40] utilizationEnergyOverdrawMaintenance 0
scalar OsgEarthNet.uav[40] utilizationCountMissions 1
scalar OsgEarthNet.uav[40] utilizationCountManeuversMission 12
scalar OsgEarthNet.uav[40] utilizationCountManeuversMaintenance 2
scalar OsgEarthNet.uav[40] utilizationCountChargeState 1
scalar OsgEarthNet.uav[40] utilizationCountOverdrawnAfterMission 0
scalar OsgEarthNet.uav[40] utilizationCountIdleState 2
scalar OsgEarthNet.uav[40] utilizationFail 0
scalar OsgEarthNet.uav[40] simulationTime 259200
scalar OsgEarthNet.uav[41] utilizationSecMission 17408.277406711
scalar OsgEarthNet.uav[41] utilizationSecMaintenance 7925.3921879708
scalar OsgEarthNet.uav[41] utilizationSecCharge 91501.167696673
scalar OsgEarthNet.uav[41] utilizationSecIdle 142365.16170865
scalar OsgEarthNet.uav[41] utilizationEnergyMission 79590.558609009
scalar OsgEarthNet.uav[41] utilizationEnergyMaintenance 37408.27350235
scalar OsgEarthNet.uav[41] utilizationEnergyCharge 112142.75805664
scalar OsgEarthNet.uav[41] utilizationEnergyOverdrawMission 0
scalar OsgEarthNet.uav[41] utilizationEnergyOverdrawMaintenance 0
scalar OsgEarthNet.uav[41] utilizationCountMissions 27
scalar OsgEarthNet.uav[41] utilizationCountManeuversMission 283
scalar OsgEarthNet.uav[41] utilizationCountManeuversMaintenance 54
scalar OsgEarthNet.uav[41] utilizationCountChargeState 27
scalar OsgEarthNet.uav[41] utilizationCountOverdrawnAfterMission 0
scalar OsgEarthNet.uav[41] utilizationCountIdleState 27
scalar OsgEarthNet.uav[41] utilizationFail 0
scalar OsgEarthNet.uav[41] simulationTime 259200
scalar OsgEarthNet.uav[42] utilizationSecMission 27839.040823867
scalar OsgEarthNet.uav[42] utilizationSecMaintenance 10187.766710519
scalar OsgEarthNet.uav[42] utilizationSecCharge 139580
scalar OsgEarthNet.uav[42] utilizationSecIdle 81593.191465614
scalar OsgEarthNet.uav[42] utilizationEnergyMission 128091.32749557
scalar OsgEarthNet.uav[42] utilizationEnergyMaintenance 46969.156333923
scalar OsgEarthNet.uav[42] utilizationEnergyCharge 174261.23486328
scalar OsgEarthNet.uav[42] utilizationEnergyOverdrawMission 0
scalar OsgEarthNet.uav[42] utilizationEnergyOverdrawMaintenance 0
scalar OsgEarthNet.uav[42] utilizationCountMissions 38
scalar OsgEarthNet.uav[42] utilizationCountManeuversMission 462
scalar OsgEarthNet.uav[42] utilizationCountManeuversMaintenance 76
scalar OsgEarthNet.uav[42] utilizationCountChargeState 38
scalar OsgEarthNet.uav[42] utilizationCountOverdrawnAfterMission 0
scalar OsgEarthNet.uav[42] utilizationCountIdleState 39
scalar OsgEarthNet.uav[42] utilizationFail 0
scalar OsgEarthNet.uav[42] simulationTime 259200
scalar OsgEarthNet.uav[43] utilizationSecMission 26299.222080032
scalar OsgEarthNet.uav[43] utilizationSecMaintenance 12834.6038533
scalar OsgEarthNet.uav[43] utilizationSecCharge 147440
scalar OsgEarthNet.uav[43] utilizationSecIdle 72626.173066668
scalar OsgEarthNet.uav[43] utilizationEnergyMission 121497.34745789
scalar OsgEarthNet.uav[43] utilizationEnergyMaintenance 62142.70318803
scalar OsgEarthNet.uav[43] utilizationEnergyCharge 182514.50634766
scalar OsgEarthNet.uav[43] utilizationEnergyOverdrawMission 0
scalar OsgEarthNet.uav[43] utilizationEnergyOverdrawMaintenance 0
scalar OsgEarthNet.uav[43] utilizationCountMissions 41
scalar OsgEarthNet.uav[43] utilizationCountManeuversMission 441
scalar OsgEarthNet.uav[43] utilizationCountManeuversMaintenance 83
scalar OsgEarthNet.uav[43] utilizationCountChargeState 41
scalar OsgEarthNet.uav[43] utilizationCountOverdrawnAfterMission 0
scalar OsgEarthNet.uav[43] utilizationCountIdleState 42
scalar OsgEarthNet.uav[43] utilizationFail 0
scalar OsgEarthNet.uav[43] simulationTime 259200
scalar OsgEarthNet.uav[44] utilizationSecMission 11445.807979989
scalar OsgEarthNet.uav[44] utilizationSecMaintenance 4253.5076328119
scalar OsgEarthNet.uav[44] utilizationSecCharge 60370
scalar OsgEarthNet.uav[44] utilizationSecIdle 183130.6833872
scalar OsgEarthNet.uav[44] utilizationEnergyMission 54087.541152954
scalar OsgEarthNet.uav[44] utilizationEnergyMaintenance 20374.985862732
scalar OsgEarthNet.uav[44] utilizationEnergyCharge 74166.706298828
scalar OsgEarthNet.uav[44] utilizationEnergyOverdrawMission 0
scalar OsgEarthNet.uav[44] utilizationEnergyOverdrawMaintenance 0
scalar OsgEarthNet.uav[44] utilizationCountMissions 17
scalar OsgEarthNet.uav[44] utilizationCountManeuversMission 181
scalar OsgEarthNet.uav[44] utilizationCountManeuversMaintenance 34
scalar OsgEarthNet.uav[44] utilizationCountChargeState 17
scalar OsgEarthNet.uav[44] utilizationCountOverdrawnAfterMission 0
scalar OsgEarthNet.uav[44] utilizationCountIdleState 18
scalar OsgEarthNet.uav[44] utilizationFail 0
scalar OsgEarthNet.uav[44] simulationTime 259200
scalar OsgEarthNet.uav[45] utilizationSecMission 17556.697020622
scalar OsgEarthNet.uav[45] utilizationSecMaintenance 6976.0289320989
scalar OsgEarthNet.uav[45] utilizationSecCharge 89894.945573182
scalar OsgEarthNet.uav[45] utilizationSecIdle 144772.3274741
scalar OsgEarthNet.uav[45] utilizationEnergyMission 81900.310165405
scalar OsgEarthNet.uav[45] utilizationEnergyMaintenance 33019.800102234
scalar OsgEarthNet.uav[45] utilizationEnergyCharge 111257.29638672
scalar OsgEarthNet.uav[45] utilizationEnergyOverdrawMission 0
scalar OsgEarthNet.uav[45] utilizationEnergyOverdrawMaintenance 0
scalar OsgEarthNet.uav[45] utilizationCountMissions 26
scalar OsgEarthNet.uav[45] utilizationCountManeuversMission 282
scalar OsgEarthNet.uav[45] utilizationCountManeuversMaintenance 52
scalar OsgEarthNet.uav[45] utilizationCountChargeState 26
scalar OsgEarthNet.uav[45] utilizationCountOverdrawnAfterMission 0
scalar OsgEarthNet.uav[45] utilizationCountIdleState 26
scalar OsgEarthNet.uav[45] utilizationFail 0
scalar OsgEarthNet.uav[45] simulationTime 259200
scalar OsgEarthNet.uav[46] utilizationSecMission 574.46784406449
scalar OsgEarthNet.uav[46] utilizationSecMaintenance 438.99680222315
scalar OsgEarthNet.uav[46] utilizationSecCharge 3840
scalar OsgEarthNet.uav[46] utilizationSecIdle 254346.53435371
scalar OsgEarthNet.uav[46] utilizationEnergyMission 2678.5380096436
scalar OsgEarthNet.uav[46] utilizationEnergyMaintenance 2060.4344291687
scalar OsgEarthNet.uav[46] utilizationEnergyCharge 4830.12109375
scalar OsgEarthNet.uav[46] utilizationEnergyOverdrawMission 0
scalar OsgEarthNet.uav[46] utilizationEnergyOverdrawMaintenance 0
scalar OsgEarthNet.uav[46] utilizationCountMissions 1
scalar OsgEarthNet.uav[46] utilizationCountManeuversMission 9
scalar OsgEarthNet.uav[46] utilizationCountManeuversMaintenance 2
scalar OsgEarthNet.uav[46] utilizationCountChargeState 1
scalar OsgEarthNet.uav[46] utilizationCountOverdrawnAfterMission 0
scalar OsgEarthNet.uav[46] utilizationCountIdleState 2
scalar OsgEarthNet.uav[46] utilizationFail 0
scalar OsgEarthNet.uav[46] simulationTime 259200
scalar OsgEarthNet.uav[47] utilizationSecMission 28486.298263167
scalar OsgEarthNet.uav[47] utilizationSecMaintenance 11837.114584802
scalar OsgEarthNet.uav[47] utilizationSecCharge 149151.97426252
scalar OsgEarthNet.uav[47] utilizationSecIdle 69724.611889516
scalar OsgEarthNet.uav[47] utilizationEnergyMission 131633.53824615
scalar OsgEarthNet.uav[47] utilizationEnergyMaintenance 56405.666976929
scalar OsgEarthNet.uav[47] utilizationEnergyCharge 184033.91546631
scalar OsgEarthNet.uav[47] utilizationEnergyOverdrawMission 0
scalar OsgEarthNet.uav[47] utilizationEnergyOverdrawMaintenance 0
scalar OsgEarthNet.uav[47] utilizationCountMissions 43
scalar OsgEarthNet.uav[47] utilizationCountManeuversMission 467
scalar OsgEarthNet.uav[47] utilizationCountManeuversMaintenance 86
scalar OsgEarthNet.uav[47] utilizationCountChargeState 43
scalar OsgEarthNet.uav[47] utilizationCountOverdrawnAfterMission 0
scalar OsgEarthNet.uav[47] utilizationCountIdleState 43
scalar OsgEarthNet.uav[47] utilizationFail 0
scalar OsgEarthNet.uav[47] simulationTime 259200
scalar OsgEarthNet.uav[48] utilizationSecMission 828.1936691689
scalar OsgEarthNet.uav[48] utilizationSecMaintenance 156.97870384097
scalar OsgEarthNet.uav[48] utilizationSecCharge 3690
scalar OsgEarthNet.uav[48] utilizationSecIdle 254524.82662699
scalar OsgEarthNet.uav[48] utilizationEnergyMission 3751.0234680176
scalar OsgEarthNet.uav[48] utilizationEnergyMaintenance 779.87651824951
scalar OsgEarthNet.uav[48] utilizationEnergyCharge 4597.0405273438
scalar OsgEarthNet.uav[48] utilizationEnergyOverdrawMission 0
scalar OsgEarthNet.uav[48] utilizationEnergyOverdrawMaintenance 0
scalar OsgEarthNet.uav[48] utilizationCountMissions 1
scalar OsgEarthNet.uav[48] utilizationCountManeuversMission 13
scalar OsgEarthNet.uav[48] utilizationCountManeuversMaintenance 2
scalar OsgEarthNet.uav[48] utilizationCountChargeState 1
scalar OsgEarthNet.uav[48] utilizationCountOverdrawnAfterMission 0
scalar OsgEarthNet.uav[48] utilizationCountIdleState 2
scalar OsgEarthNet.uav[48] utilizationFail 0
scalar OsgEarthNet.uav[48] simulationTime 259200
scalar OsgEarthNet.uav[49] utilizationSecMission 18243.812641214
scalar OsgEarthNet.uav[49] utilizationSecMaintenance 7531.2727782191
scalar OsgEarthNet.uav[49] utilizationSecCharge 92966.235884259
scalar OsgEarthNet.uav[49] utilizationSecIdle 140458.67769631
scalar OsgEarthNet.uav[49] utilizationEnergyMission 83520.400730133
scalar OsgEarthNet.uav[49] utilizationEnergyMaintenance 35405.37474823
scalar OsgEarthNet.uav[49] utilizationEnergyCharge 116576.42919922
scalar OsgEarthNet.uav[49] utilizationEnergyOverdrawMission 0
scalar OsgEarthNet.uav[49] utilizationEnergyOverdrawMaintenance 0
scalar OsgEarthNet.uav[49] utilizationCountMissions 26
scalar OsgEarthNet.uav[49] utilizationCountManeuversMission 304
scalar OsgEarthNet.uav[49] utilizationCountManeuversMaintenance 52
scalar OsgEarthNet.uav[49] utilizationCountChargeState 26
scalar OsgEarthNet.uav[49] utilizationCountOverdrawnAfterMission 0
scalar OsgEarthNet.uav[49] utilizationCountIdleState 26
scalar OsgEarthNet.uav[49] utilizationFail 0
scalar OsgEarthNet.uav[49] simulationTime 259200
scalar OsgEarthNet.uav[50] utilizationSecMission 836.77707522227
scalar OsgEarthNet.uav[50] utilizationSecMaintenance 217.0347828456
scalar OsgEarthNet.uav[50] utilizationSecCharge 3630
scalar OsgEarthNet.uav[50] utilizationSecIdle 254516.18714193
scalar OsgEarthNet.uav[50] utilizationEnergyMission 3606.9565734863
scalar OsgEarthNet.uav[50] utilizationEnergyMaintenance 929.96805953979
scalar OsgEarthNet.uav[50] utilizationEnergyCharge 4536.9248046875
scalar OsgEarthNet.uav[50] utilizationEnergyOverdrawMission 0
scalar OsgEarthNet.uav[50] utilizationEnergyOverdrawMaintenance 0
scalar OsgEarthNet.uav[50] utilizationCountMissions 1
scalar OsgEarthNet.uav[50] utilizationCountManeuversMission 13
scalar OsgEarthNet.uav[50] utilizationCountManeuversMaintenance 2
scalar OsgEarthNet.uav[50] utilizationCountChargeState 1
scalar OsgEarthNet.uav[50] utilizationCountOverdrawnAfterMission 0
scalar OsgEarthNet.uav[50] utilizationCountIdleState 2
scalar OsgEarthNet.uav[50] utilizationFail 0
scalar OsgEarthNet.uav[50] simulationTime 259200
scalar OsgEarthNet.uav[51] utilizationSecMission 26669.75008881
scalar OsgEarthNet.uav[51] utilizationSecMaintenance 11616.984482585
scalar OsgEarthNet.uav[51] utilizationSecCharge 143295.94834677
scalar OsgEarthNet.uav[51] utilizationSecIdle 77617.316081831
scalar OsgEarthNet.uav[51] utilizationEnergyMission 122848.48014069
scalar OsgEarthNet.uav[51] utilizationEnergyMaintenance 54674.384521484
scalar OsgEarthNet.uav[51] utilizationEnergyCharge 175503.77587891
scalar OsgEarthNet.uav[51] utilizationEnergyOverdrawMission 0
scalar OsgEarthNet.uav[51] utilizationEnergyOverdrawMaintenance 0
scalar OsgEarthNet.uav[51] utilizationCountMissions 42
scalar OsgEarthNet.uav[51] utilizationCountManeuversMission 438
scalar OsgEarthNet.uav[51] utilizationCountManeuversMaintenance 84
scalar OsgEarthNet.uav[51] utilizationCountChargeState 42
scalar OsgEarthNet.uav[51] utilizationCountOverdrawnAfterMission 0
scalar OsgEarthNet.uav[51] utilizationCountIdleState 42
scalar OsgEarthNet.uav[51] utilizationFail 0
scalar OsgEarthNet.uav[51] simulationTime 259200
scalar OsgEarthNet.uav[52] utilizationSecMission 21793.097862827
scalar OsgEarthNet.uav[52] utilizationSecMaintenance 9172.3305446011
scalar OsgEarthNet.uav[52] utilizationSecCharge 114860
scalar OsgEarthNet.uav[52] utilizationSecIdle 113374.57059257
scalar OsgEarthNet.uav[52] utilizationEnergyMission 101087.80539322
scalar OsgEarthNet.uav[52] utilizationEnergyMaintenance 42130.267990112
scalar OsgEarthNet.uav[52] utilizationEnergyCharge 142060.30981445
scalar OsgEarthNet.uav[52] utilizationEnergyOverdrawMission 0
scalar OsgEarthNet.uav[52] utilizationEnergyOverdrawMaintenance 0
scalar OsgEarthNet.uav[52] utilizationCountMissions 32
scalar OsgEarthNet.uav[52] utilizationCountManeuversMission 354
scalar OsgEarthNet.uav[52] utilizationCountManeuversMaintenance 64
scalar OsgEarthNet.uav[52] utilizationCountChargeState 32
scalar OsgEarthNet.uav[52] utilizationCountOverdrawnAfterMission 0
scalar OsgEarthNet.uav[52] utilizationCountIdleState 33
scalar OsgEarthNet.uav[52] utilizationFail 0
scalar OsgEarthNet.uav[52] simulationTime 259200
scalar OsgEarthNet.uav[53] utilizationSecMission 30250.106453287
scalar OsgEarthNet.uav[53] utilizationSecMaintenance 12329.78050896
scalar OsgEarthNet.uav[53] utilizationSecCharge 160090
scalar OsgEarthNet.uav[53] utilizationSecIdle 56530.112037753
scalar OsgEarthNet.uav[53] utilizationEnergyMission 141061.94002533
scalar OsgEarthNet.uav[53] utilizationEnergyMaintenance 57259.51745224
scalar OsgEarthNet.uav[53] utilizationEnergyCharge 197611.85083008
scalar OsgEarthNet.uav[53] utilizationEnergyOverdrawMission 0
scalar OsgEarthNet.uav[53] utilizationEnergyOverdrawMaintenance 0
scalar OsgEarthNet.uav[53] utilizationCountMissions 45
scalar OsgEarthNet.uav[53] utilizationCountManeuversMission 498
scalar OsgEarthNet.uav[53] utilizationCountManeuversMaintenance 89
scalar OsgEarthNet.uav[53] utilizationCountChargeState 45
scalar OsgEarthNet.uav[53] utilizationCountOverdrawnAfterMission 0
scalar OsgEarthNet.uav[53] utilizationCountIdleState 46
scalar OsgEarthNet.uav[53] utilizationFail 0
scalar OsgEarthNet.uav[53] simulationTime 259200
scalar OsgEarthNet.uav[54] utilizationSecMission 24771.640897578
scalar OsgEarthNet.uav[54] utilizationSecMaintenance 9553.3811640213
scalar OsgEarthNet.uav[54] utilizationSecCharge 126515.56522261
scalar OsgEarthNet.uav[54] utilizationSecIdle 98359.411715788
scalar OsgEarthNet.uav[54] utilizationEnergyMission 113718.86193848
scalar OsgEarthNet.uav[54] utilizationEnergyMaintenance 44821.960342407
scalar OsgEarthNet.uav[54] utilizationEnergyCharge 157154.08325195
scalar OsgEarthNet.uav[54] utilizationEnergyOverdrawMission 0
scalar OsgEarthNet.uav[54] utilizationEnergyOverdrawMaintenance 0
scalar OsgEarthNet.uav[54] utilizationCountMissions 36
scalar OsgEarthNet.uav[54] utilizationCountManeuversMission 406
scalar OsgEarthNet.uav[54] utilizationCountManeuversMaintenance 72
scalar OsgEarthNet.uav[54] utilizationCountChargeState 36
scalar OsgEarthNet.uav[54] utilizationCountOverdrawnAfterMission 0
scalar OsgEarthNet.uav[54] utilizationCountIdleState 36
scalar OsgEarthNet.uav[54] utilizationFail 0
scalar OsgEarthNet.uav[54] simulationTime 259200
scalar OsgEarthNet.uav[55] utilizationSecMission 23999.838350007
scalar OsgEarthNet.uav[55] utilizationSecMaintenance 9563.8786781236
scalar OsgEarthNet.uav[55] utilizationSecCharge 125424.82901315
scalar OsgEarthNet.uav[55] utilizationSecIdle 100211.45295872
scalar OsgEarthNet.uav[55] utilizationEnergyMission 109976.78948975
scalar OsgEarthNet.uav[55] utilizationEnergyMaintenance 44646.349685669
scalar OsgEarthNet.uav[55] utilizationEnergyCharge 155039.62988281
scalar OsgEarthNet.uav[55] utilizationEnergyOverdrawMission 0
scalar OsgEarthNet.uav[55] utilizationEnergyOverdrawMaintenance 0
scalar OsgEarthNet.uav[55] utilizationCountMissions 35
scalar OsgEarthNet.uav[55] utilizationCountManeuversMission 385
scalar OsgEarthNet.uav[55] utilizationCountManeuversMaintenance 70
scalar OsgEarthNet.uav[55] utilizationCountChargeState 35
scalar OsgEarthNet.uav[55] utilizationCountOverdrawnAfterMission 0
scalar OsgEarthNet.uav[55] utilizationCountIdleState 35
scalar OsgEarthNet.uav[55] utilizationFail 0
scalar OsgEarthNet.uav[55] simulationTime 259200
scalar OsgEarthNet.uav[56] utilizationSecMission 760.62515258028
scalar OsgEarthNet.uav[56] utilizationSecMaintenance 291.95923480269
scalar OsgEarthNet.uav[56] utilizationSecCharge 3880
scalar OsgEarthNet.uav[56] utilizationSecIdle 254267.41461262
scalar OsgEarthNet.uav[56] utilizationEnergyMission 3587.9313812256
scalar OsgEarthNet.uav[56] utilizationEnergyMaintenance 1367.8842086792
scalar OsgEarthNet.uav[56] utilizationEnergyCharge 4955.8125
scalar OsgEarthNet.uav[56] utilizationEnergyOverdrawMission 0
scalar OsgEarthNet.uav[56] utilizationEnergyOverdrawMaintenance 0
scalar OsgEarthNet.uav[56] utilizationCountMissions 1
scalar OsgEarthNet.uav[56] utilizationCountManeuversMission 12
scalar OsgEarthNet.uav[56] utilizationCountManeuversMaintenance 2
scalar OsgEarthNet.uav[56] utilizationCountChargeState 1
scalar OsgEarthNet.uav[56] utilizationCountOverdrawnAfterMission 0
scalar OsgEarthNet.uav[56] utilizationCountIdleState 2
scalar OsgEarthNet.uav[56] utilizationFail 0
scalar OsgEarthNet.uav[56] simulationTime 259200
scalar OsgEarthNet.uav[57] utilizationSecMission 25087.335276923
scalar OsgEarthNet.uav[57] utilizationSecMaintenance 11049.800985137
scalar OsgEarthNet.uav[57] utilizationSecCharge 134741.80494275
scalar OsgEarthNet.uav[57] utilizationSecIdle 88321.057795193
scalar OsgEarthNet.uav[57] utilizationEnergyMission 114857.96779633
scalar OsgEarthNet.uav[57] utilizationEnergyMaintenance 52047.998767853
scalar OsgEarthNet.uav[57] utilizationEnergyCharge 165779.65673828
scalar OsgEarthNet.uav[57] utilizationEnergyOverdrawMission 0
scalar OsgEarthNet.uav[57] utilizationEnergyOverdrawMaintenance 0
scalar OsgEarthNet.uav[57] utilizationCountMissions 39
scalar OsgEarthNet.uav[57] utilizationCountManeuversMission 396
scalar OsgEarthNet.uav[57] utilizationCountManeuversMaintenance 78
scalar OsgEarthNet.uav[57] utilizationCountChargeState 39
scalar OsgEarthNet.uav[57] utilizationCountOverdrawnAfterMission 0
scalar OsgEarthNet.uav[57] utilizationCountIdleState 39
scalar OsgEarthNet.uav[57] utilizationFail 0
scalar OsgEarthNet.uav[57] simulationTime 259200
scalar OsgEarthNet.uav[58] utilizationSecMission 29635.840447185
scalar OsgEarthNet.uav[58] utilizationSecMaintenance 11685.788176525
scalar OsgEarthNet.uav[58] utilizationSecCharge 155182.33427752
scalar OsgEarthNet.uav[58] utilizationSecIdle 62696.036098769
scalar OsgEarthNet.uav[58] utilizationEnergyMission 136428.76564789
scalar OsgEarthNet.uav[58] utilizationEnergyMaintenance 55922.024124146
scalar OsgEarthNet.uav[58] utilizationEnergyCharge 192263.7355957
scalar OsgEarthNet.uav[58] utilizationEnergyOverdrawMission 0
scalar OsgEarthNet.uav[58] utilizationEnergyOverdrawMaintenance 0
scalar OsgEarthNet.uav[58] utilizationCountMissions 44
scalar OsgEarthNet.uav[58] utilizationCountManeuversMission 505
scalar OsgEarthNet.uav[58] utilizationCountManeuversMaintenance 88
scalar OsgEarthNet.uav[58] utilizationCountChargeState 44
scalar OsgEarthNet.uav[58] utilizationCountOverdrawnAfterMission 0
scalar OsgEarthNet.uav[58] utilizationCountIdleState 44
scalar OsgEarthNet.uav[58] utilizationFail 0
scalar OsgEarthNet.uav[58] simulationTime 259200
scalar OsgEarthNet.uav[59] utilizationSecMission 13310.589792274
scalar OsgEarthNet.uav[59] utilizationSecMaintenance 5508.8894303811
scalar OsgEarthNet.uav[59] utilizationSecCharge 69760
scalar OsgEarthNet.uav[59] utilizationSecIdle 170620.51977734
scalar OsgEarthNet.uav[59] utilizationEnergyMission 61344.927337646
scalar OsgEarthNet.uav[59] utilizationEnergyMaintenance 26150.369140625
scalar OsgEarthNet.uav[59] utilizationEnergyCharge 87100.795898438
scalar OsgEarthNet.uav[59] utilizationEnergyOverdrawMission 0
scalar OsgEarthNet.uav[59] utilizationEnergyOverdrawMaintenance 0
scalar OsgEarthNet.uav[59] utilizationCountMissions 19
scalar OsgEarthNet.uav[59] utilizationCountManeuversMission 211
scalar OsgEarthNet.uav[59] utilizationCountManeuversMaintenance 38
scalar OsgEarthNet.uav[59] utilizationCountChargeState 19
scalar OsgEarthNet.uav[59] utilizationCountOverdrawnAfterMission 0
scalar OsgEarthNet.uav[59] utilizationCountIdleState 20
scalar OsgEarthNet.uav[59] utilizationFail 0
scalar OsgEarthNet.uav[59] simulationTime 259200
scalar OsgEarthNet.uav[60] utilizationSecMission 31611.714604129
scalar OsgEarthNet.uav[60] utilizationSecMaintenance 11657.636336685
scalar OsgEarthNet.uav[60] utilizationSecCharge 159738.64805919
scalar OsgEarthNet.uav[60] utilizationSecIdle 56192
scalar OsgEarthNet.uav[60] utilizationEnergyMission 146507.95155334
scalar OsgEarthNet.uav[60] utilizationEnergyMaintenance 55646.732265472
scalar OsgEarthNet.uav[60] utilizationEnergyCharge 198197.9932251
scalar OsgEarthNet.uav[60] utilizationEnergyOverdrawMission 0
scalar OsgEarthNet.uav[60] utilizationEnergyOverdrawMaintenance 0
scalar OsgEarthNet.uav[60] utilizationCountMissions 45
scalar OsgEarthNet.uav[60] utilizationCountManeuversMission 498
scalar OsgEarthNet.uav[60] utilizationCountManeuversMaintenance 89
scalar OsgEarthNet.uav[60] utilizationCountChargeState 45
scalar OsgEarthNet.uav[60] utilizationCountOverdrawnAfterMission 0
scalar OsgEarthNet.uav[60] utilizationCountIdleState 45
scalar OsgEarthNet.uav[60] utilizationFail 0
scalar OsgEarthNet.uav[60] simulationTime 259200
scalar OsgEarthNet.uav[61] utilizationSecMission 26950.857177924
scalar OsgEarthNet.uav[61] utilizationSecMaintenance 11447.735509709
scalar OsgEarthNet.uav[61] utilizationSecCharge 145930
scalar OsgEarthNet.uav[61] utilizationSecIdle 74871.406312368
scalar OsgEarthNet.uav[61] utilizationEnergyMission 124181.00585937
scalar OsgEarthNet.uav[61] utilizationEnergyMaintenance 54488.643277549
scalar OsgEarthNet.uav[61] utilizationEnergyCharge 178152.68139648
scalar OsgEarthNet.uav[61] utilizationEnergyOverdrawMission 0
scalar OsgEarthNet.uav[61] utilizationEnergyOverdrawMaintenance 0
scalar OsgEarthNet.uav[61] utilizationCountMissions 42
scalar OsgEarthNet.uav[61] utilizationCountManeuversMission 439
scalar OsgEarthNet.uav[61] utilizationCountManeuversMaintenance 85
scalar OsgEarthNet.uav[61] utilizationCountChargeState 42
scalar OsgEarthNet.uav[61] utilizationCountOverdrawnAfterMission 0
scalar OsgEarthNet.uav[61] utilizationCountIdleState 43
scalar OsgEarthNet.uav[61] utilizationFail 0
scalar OsgEarthNet.uav[61] simulationTime 259200
scalar OsgEarthNet.uav[62] utilizationSecMission 777.63549584169
scalar OsgEarthNet.uav[62] utilizationSecMaintenance 146.5111325635
scalar OsgEarthNet.uav[62] utilizationSecCharge 3660
scalar OsgEarthNet.uav[62] utilizationSecIdle 254615.85237159
scalar OsgEarthNet.uav[62] utilizationEnergyMission 3625.6620483398
scalar OsgEarthNet.uav[62] utilizationEnergyMaintenance 702.23223114014
scalar OsgEarthNet.uav[62] utilizationEnergyCharge 4569.0395507812
scalar OsgEarthNet.uav[62] utilizationEnergyOverdrawMission 0
scalar OsgEarthNet.uav[62] utilizationEnergyOverdrawMaintenance 0
scalar OsgEarthNet.uav[62] utilizationCountMissions 1
scalar OsgEarthNet.uav[62] utilizationCountManeuversMission 12
scalar OsgEarthNet.uav[62] utilizationCountManeuversMaintenance 2
scalar OsgEarthNet.uav[62] utilizationCountChargeState 1
scalar OsgEarthNet.uav[62] utilizationCountOverdrawnAfterMission 0
scalar OsgEarthNet.uav[62] utilizationCountIdleState 2
scalar OsgEarthNet.uav[62] utilizationFail 0
scalar OsgEarthNet.uav[62] simulationTime 259200
scalar OsgEarthNet.uav[63] utilizationSecMission 30585.900824709
scalar OsgEarthNet.uav[63] utilizationSecMaintenance 11168.551266033
scalar OsgEarthNet.uav[63] utilizationSecCharge 154420
scalar OsgEarthNet.uav[63] utilizationSecIdle 63025.546909258
scalar OsgEarthNet.uav[63] utilizationEnergyMission 140814.62636978
scalar OsgEarthNet.uav[63] utilizationEnergyMaintenance 52975.448184967
scalar OsgEarthNet.uav[63] utilizationEnergyCharge 190702.54418945
scalar OsgEarthNet.uav[63] utilizationEnergyOverdrawMission 0
scalar OsgEarthNet.uav[63] utilizationEnergyOverdrawMaintenance 0
scalar OsgEarthNet.uav[63] utilizationCountMissions 43
scalar OsgEarthNet.uav[63] utilizationCountManeuversMission 497
scalar OsgEarthNet.uav[63] utilizationCountManeuversMaintenance 87
scalar OsgEarthNet.uav[63] utilizationCountChargeState 43
scalar OsgEarthNet.uav[63] utilizationCountOverdrawnAfterMission 0
scalar OsgEarthNet.uav[63] utilizationCountIdleState 44
scalar OsgEarthNet.uav[63] utilizationFail 0
scalar OsgEarthNet.uav[63] simulationTime 259200
scalar OsgEarthNet.uav[64] utilizationSecMission 25379.395895413
scalar OsgEarthNet.uav[64] utilizationSecMaintenance 11065.266289649
scalar OsgEarthNet.uav[64] utilizationSecCharge 135050
scalar OsgEarthNet.uav[64] utilizationSecIdle 87705.336814938
scalar OsgEarthNet.uav[64] utilizationEnergyMission 117114.48790741
scalar OsgEarthNet.uav[64] utilizationEnergyMaintenance 51679.603420258
scalar OsgEarthNet.uav[64] utilizationEnergyCharge 168128.76464844
scalar OsgEarthNet.uav[64] utilizationEnergyOverdrawMission 0
scalar OsgEarthNet.uav[64] utilizationEnergyOverdrawMaintenance 0
scalar OsgEarthNet.uav[64] utilizationCountMissions 37
scalar OsgEarthNet.uav[64] utilizationCountManeuversMission 416
scalar OsgEarthNet.uav[64] utilizationCountManeuversMaintenance 74
scalar OsgEarthNet.uav[64] utilizationCountChargeState 37
scalar OsgEarthNet.uav[64] utilizationCountOverdrawnAfterMission 0
scalar OsgEarthNet.uav[64] utilizationCountIdleState 38
scalar OsgEarthNet.uav[64] utilizationFail 0
scalar OsgEarthNet.uav[64] simulationTime 259200
scalar OsgEarthNet.uav[65] utilizationSecMission 946.1545473523
scalar OsgEarthNet.uav[65] utilizationSecMaintenance 162.42799022119
scalar OsgEarthNet.uav[65] utilizationSecCharge 3880
[...]
scalar OsgEarthNet.uav[82] utilizationSecIdle 254559.38766046
scalar OsgEarthNet.uav[82] utilizationEnergyMission 3339.5742034912
scalar OsgEarthNet.uav[82] utilizationEnergyMaintenance 1292.93592453
scalar OsgEarthNet.uav[82] utilizationEnergyCharge 4632.51171875
scalar OsgEarthNet.uav[82] utilizationEnergyOverdrawMission 0
scalar OsgEarthNet.uav[82] utilizationEnergyOverdrawMaintenance 0
scalar OsgEarthNet.uav[82] utilizationCountMissions 1
scalar OsgEarthNet.uav[82] utilizationCountManeuversMission 10
scalar OsgEarthNet.uav[82] utilizationCountManeuversMaintenance 2
scalar OsgEarthNet.uav[82] utilizationCountChargeState 1
scalar OsgEarthNet.uav[82] utilizationCountOverdrawnAfterMission 0
scalar OsgEarthNet.uav[82] utilizationCountIdleState 2
scalar OsgEarthNet.uav[82] utilizationFail 0
scalar OsgEarthNet.uav[82] simulationTime 259200
scalar OsgEarthNet.uav[83] utilizationSecMission 750.20472747826
scalar OsgEarthNet.uav[83] utilizationSecMaintenance 261.68051383311
scalar OsgEarthNet.uav[83] utilizationSecCharge 3850
scalar OsgEarthNet.uav[83] utilizationSecIdle 254338.11375869
scalar OsgEarthNet.uav[83] utilizationEnergyMission 3592.0291748047
scalar OsgEarthNet.uav[83] utilizationEnergyMaintenance 1318.3459587097
scalar OsgEarthNet.uav[83] utilizationEnergyCharge 4910.373046875
scalar OsgEarthNet.uav[83] utilizationEnergyOverdrawMission 0
scalar OsgEarthNet.uav[83] utilizationEnergyOverdrawMaintenance 0
scalar OsgEarthNet.uav[83] utilizationCountMissions 1
scalar OsgEarthNet.uav[83] utilizationCountManeuversMission 11
scalar OsgEarthNet.uav[83] utilizationCountManeuversMaintenance 2
scalar OsgEarthNet.uav[83] utilizationCountChargeState 1
scalar OsgEarthNet.uav[83] utilizationCountOverdrawnAfterMission 0
scalar OsgEarthNet.uav[83] utilizationCountIdleState 2
scalar OsgEarthNet.uav[83] utilizationFail 0
scalar OsgEarthNet.uav[83] simulationTime 259200
scalar OsgEarthNet.uav[84] utilizationSecMission 583.81443570057
scalar OsgEarthNet.uav[84] utilizationSecMaintenance 461.61457045686
scalar OsgEarthNet.uav[84] utilizationSecCharge 3920
scalar OsgEarthNet.uav[84] utilizationSecIdle 254234.56999384
scalar OsgEarthNet.uav[84] utilizationEnergyMission 2612.3108215332
scalar OsgEarthNet.uav[84] utilizationEnergyMaintenance 2266.3690605164
scalar OsgEarthNet.uav[84] utilizationEnergyCharge 4926.2670898438
scalar OsgEarthNet.uav[84] utilizationEnergyOverdrawMission 0
scalar OsgEarthNet.uav[84] utilizationEnergyOverdrawMaintenance 0
scalar OsgEarthNet.uav[84] utilizationCountMissions 1
scalar OsgEarthNet.uav[84] utilizationCountManeuversMission 9
scalar OsgEarthNet.uav[84] utilizationCountManeuversMaintenance 2
scalar OsgEarthNet.uav[84] utilizationCountChargeState 1
scalar OsgEarthNet.uav[84] utilizationCountOverdrawnAfterMission 0
scalar OsgEarthNet.uav[84] utilizationCountIdleState 2
scalar OsgEarthNet.uav[84] utilizationFail 0
scalar OsgEarthNet.uav[84] simulationTime 259200
scalar OsgEarthNet.uav[85] utilizationSecMission 694.00169469977
scalar OsgEarthNet.uav[85] utilizationSecMaintenance 338.49695459722
scalar OsgEarthNet.uav[85] utilizationSecCharge 3780
scalar OsgEarthNet.uav[85] utilizationSecIdle 254387.5003507
scalar OsgEarthNet.uav[85] utilizationEnergyMission 3329.9940338135
scalar OsgEarthNet.uav[85] utilizationEnergyMaintenance 1446.2653923035
scalar OsgEarthNet.uav[85] utilizationEnergyCharge 4776.2626953125
scalar OsgEarthNet.uav[85] utilizationEnergyOverdrawMission 0
scalar OsgEarthNet.uav[85] utilizationEnergyOverdrawMaintenance 0
scalar OsgEarthNet.uav[85] utilizationCountMissions 1
scalar OsgEarthNet.uav[85] utilizationCountManeuversMission 13
scalar OsgEarthNet.uav[85] utilizationCountManeuversMaintenance 2
scalar OsgEarthNet.uav[85] utilizationCountChargeState 1
scalar OsgEarthNet.uav[85] utilizationCountOverdrawnAfterMission 0
scalar OsgEarthNet.uav[85] utilizationCountIdleState 2
scalar OsgEarthNet.uav[85] utilizationFail 0
scalar OsgEarthNet.uav[85] simulationTime 259200
scalar OsgEarthNet.uav[86] utilizationSecMission 836.77707522227
scalar OsgEarthNet.uav[86] utilizationSecMaintenance 217.0347828456
scalar OsgEarthNet.uav[86] utilizationSecCharge 3740
scalar OsgEarthNet.uav[86] utilizationSecIdle 254406.18714193
scalar OsgEarthNet.uav[86] utilizationEnergyMission 3635.652923584
scalar OsgEarthNet.uav[86] utilizationEnergyMaintenance 1090.9904289246
scalar OsgEarthNet.uav[86] utilizationEnergyCharge 4726.6430664062
scalar OsgEarthNet.uav[86] utilizationEnergyOverdrawMission 0
scalar OsgEarthNet.uav[86] utilizationEnergyOverdrawMaintenance 0
scalar OsgEarthNet.uav[86] utilizationCountMissions 1
scalar OsgEarthNet.uav[86] utilizationCountManeuversMission 13
scalar OsgEarthNet.uav[86] utilizationCountManeuversMaintenance 2
scalar OsgEarthNet.uav[86] utilizationCountChargeState 1
scalar OsgEarthNet.uav[86] utilizationCountOverdrawnAfterMission 0
scalar OsgEarthNet.uav[86] utilizationCountIdleState 2
scalar OsgEarthNet.uav[86] utilizationFail 0
scalar OsgEarthNet.uav[86] simulationTime 259200
scalar OsgEarthNet.uav[87] utilizationSecMission 9201.9936717145
scalar OsgEarthNet.uav[87] utilizationSecMaintenance 4383.8222223596
scalar OsgEarthNet.uav[87] utilizationSecCharge 50570
scalar OsgEarthNet.uav[87] utilizationSecIdle 195044.18310593
scalar OsgEarthNet.uav[87] utilizationEnergyMission 42340.626686096
scalar OsgEarthNet.uav[87] utilizationEnergyMaintenance 20180.641120911
scalar OsgEarthNet.uav[87] utilizationEnergyCharge 62599.454833984
scalar OsgEarthNet.uav[87] utilizationEnergyOverdrawMission 0
scalar OsgEarthNet.uav[87] utilizationEnergyOverdrawMaintenance 0
scalar OsgEarthNet.uav[87] utilizationCountMissions 14
scalar OsgEarthNet.uav[87] utilizationCountManeuversMission 161
scalar OsgEarthNet.uav[87] utilizationCountManeuversMaintenance 28
scalar OsgEarthNet.uav[87] utilizationCountChargeState 14
scalar OsgEarthNet.uav[87] utilizationCountOverdrawnAfterMission 0
scalar OsgEarthNet.uav[87] utilizationCountIdleState 15
scalar OsgEarthNet.uav[87] utilizationFail 0
scalar OsgEarthNet.uav[87] simulationTime 259200
scalar OsgEarthNet.uav[88] utilizationSecMission 30487.163405882
scalar OsgEarthNet.uav[88] utilizationSecMaintenance 10441.58651687
scalar OsgEarthNet.uav[88] utilizationSecCharge 148795.00724163
scalar OsgEarthNet.uav[88] utilizationSecIdle 69476.241835621
scalar OsgEarthNet.uav[88] utilizationEnergyMission 139624.69327545
scalar OsgEarthNet.uav[88] utilizationEnergyMaintenance 49426.105098724
scalar OsgEarthNet.uav[88] utilizationEnergyCharge 186283.46166992
scalar OsgEarthNet.uav[88] utilizationEnergyOverdrawMission 0
scalar OsgEarthNet.uav[88] utilizationEnergyOverdrawMaintenance 0
scalar OsgEarthNet.uav[88] utilizationCountMissions 41
scalar OsgEarthNet.uav[88] utilizationCountManeuversMission 499
scalar OsgEarthNet.uav[88] utilizationCountManeuversMaintenance 82
scalar OsgEarthNet.uav[88] utilizationCountChargeState 41
scalar OsgEarthNet.uav[88] utilizationCountOverdrawnAfterMission 0
scalar OsgEarthNet.uav[88] utilizationCountIdleState 41
scalar OsgEarthNet.uav[88] utilizationFail 0
scalar OsgEarthNet.uav[88] simulationTime 259200
scalar OsgEarthNet.uav[89] utilizationSecMission 29549.601364958
scalar OsgEarthNet.uav[89] utilizationSecMaintenance 10521.660049029
scalar OsgEarthNet.uav[89] utilizationSecCharge 147791.79423189
scalar OsgEarthNet.uav[89] utilizationSecIdle 71336.943354123
scalar OsgEarthNet.uav[89] utilizationEnergyMission 135670.64219666
scalar OsgEarthNet.uav[89] utilizationEnergyMaintenance 49100.799217224
scalar OsgEarthNet.uav[89] utilizationEnergyCharge 184199.01196289
scalar OsgEarthNet.uav[89] utilizationEnergyOverdrawMission 0
scalar OsgEarthNet.uav[89] utilizationEnergyOverdrawMaintenance 0
scalar OsgEarthNet.uav[89] utilizationCountMissions 41
scalar OsgEarthNet.uav[89] utilizationCountManeuversMission 466
scalar OsgEarthNet.uav[89] utilizationCountManeuversMaintenance 82
scalar OsgEarthNet.uav[89] utilizationCountChargeState 41
scalar OsgEarthNet.uav[89] utilizationCountOverdrawnAfterMission 0
scalar OsgEarthNet.uav[89] utilizationCountIdleState 41
scalar OsgEarthNet.uav[89] utilizationFail 0
scalar OsgEarthNet.uav[89] simulationTime 259200
scalar OsgEarthNet.uav[90] utilizationSecMission 271.61235634959
scalar OsgEarthNet.uav[90] utilizationSecMaintenance 358.01938349147
scalar OsgEarthNet.uav[90] utilizationSecCharge 2800
scalar OsgEarthNet.uav[90] utilizationSecIdle 255770.36726016
scalar OsgEarthNet.uav[90] utilizationEnergyMission 1270.3039550781
scalar OsgEarthNet.uav[90] utilizationEnergyMaintenance 1812.4935531616
scalar OsgEarthNet.uav[90] utilizationEnergyCharge 3082.8005371094
scalar OsgEarthNet.uav[90] utilizationEnergyOverdrawMission 0
scalar OsgEarthNet.uav[90] utilizationEnergyOverdrawMaintenance 0
scalar OsgEarthNet.uav[90] utilizationCountMissions 1
scalar OsgEarthNet.uav[90] utilizationCountManeuversMission 4
scalar OsgEarthNet.uav[90] utilizationCountManeuversMaintenance 2
scalar OsgEarthNet.uav[90] utilizationCountChargeState 1
scalar OsgEarthNet.uav[90] utilizationCountOverdrawnAfterMission 0
scalar OsgEarthNet.uav[90] utilizationCountIdleState 2
scalar OsgEarthNet.uav[90] utilizationFail 0
scalar OsgEarthNet.uav[90] simulationTime 259200
scalar OsgEarthNet.uav[91] utilizationSecMission 24664.855725558
scalar OsgEarthNet.uav[91] utilizationSecMaintenance 12364.179288768
scalar OsgEarthNet.uav[91] utilizationSecCharge 143090
scalar OsgEarthNet.uav[91] utilizationSecIdle 79080.963985674
scalar OsgEarthNet.uav[91] utilizationEnergyMission 114613.58129524
scalar OsgEarthNet.uav[91] utilizationEnergyMaintenance 59053.838317871
scalar OsgEarthNet.uav[91] utilizationEnergyCharge 173083.88500977
scalar OsgEarthNet.uav[91] utilizationEnergyOverdrawMission 0
scalar OsgEarthNet.uav[91] utilizationEnergyOverdrawMaintenance 0
scalar OsgEarthNet.uav[91] utilizationCountMissions 42
scalar OsgEarthNet.uav[91] utilizationCountManeuversMission 403
scalar OsgEarthNet.uav[91] utilizationCountManeuversMaintenance 85
scalar OsgEarthNet.uav[91] utilizationCountChargeState 42
scalar OsgEarthNet.uav[91] utilizationCountOverdrawnAfterMission 0
scalar OsgEarthNet.uav[91] utilizationCountIdleState 43
scalar OsgEarthNet.uav[91] utilizationFail 0
scalar OsgEarthNet.uav[91] simulationTime 259200
scalar OsgEarthNet.uav[92] utilizationSecMission 694.00169469977
scalar OsgEarthNet.uav[92] utilizationSecMaintenance 338.49695459722
scalar OsgEarthNet.uav[92] utilizationSecCharge 3850
scalar OsgEarthNet.uav[92] utilizationSecIdle 254317.5003507
scalar OsgEarthNet.uav[92] utilizationEnergyMission 3364.0800628662
scalar OsgEarthNet.uav[92] utilizationEnergyMaintenance 1554.6572990417
scalar OsgEarthNet.uav[92] utilizationEnergyCharge 4918.740234375
scalar OsgEarthNet.uav[92] utilizationEnergyOverdrawMission 0
scalar OsgEarthNet.uav[92] utilizationEnergyOverdrawMaintenance 0
scalar OsgEarthNet.uav[92] utilizationCountMissions 1
scalar OsgEarthNet.uav[92] utilizationCountManeuversMission 13
scalar OsgEarthNet.uav[92] utilizationCountManeuversMaintenance 2
scalar OsgEarthNet.uav[92] utilizationCountChargeState 1
scalar OsgEarthNet.uav[92] utilizationCountOverdrawnAfterMission 0
scalar OsgEarthNet.uav[92] utilizationCountIdleState 2
scalar OsgEarthNet.uav[92] utilizationFail 0
scalar OsgEarthNet.uav[92] simulationTime 259200
scalar OsgEarthNet.uav[93] utilizationSecMission 750.20472747826
scalar OsgEarthNet.uav[93] utilizationSecMaintenance 261.68051383311
scalar OsgEarthNet.uav[93] utilizationSecCharge 3710
scalar OsgEarthNet.uav[93] utilizationSecIdle 254478.11375869
scalar OsgEarthNet.uav[93] utilizationEnergyMission 3323.6707458496
scalar OsgEarthNet.uav[93] utilizationEnergyMaintenance 1318.9813652039
scalar OsgEarthNet.uav[93] utilizationEnergyCharge 4642.6494140625
scalar OsgEarthNet.uav[93] utilizationEnergyOverdrawMission 0
scalar OsgEarthNet.uav[93] utilizationEnergyOverdrawMaintenance 0
scalar OsgEarthNet.uav[93] utilizationCountMissions 1
scalar OsgEarthNet.uav[93] utilizationCountManeuversMission 11
scalar OsgEarthNet.uav[93] utilizationCountManeuversMaintenance 2
scalar OsgEarthNet.uav[93] utilizationCountChargeState 1
scalar OsgEarthNet.uav[93] utilizationCountOverdrawnAfterMission 0
scalar OsgEarthNet.uav[93] utilizationCountIdleState 2
scalar OsgEarthNet.uav[93] utilizationFail 0
scalar OsgEarthNet.uav[93] simulationTime 259200
scalar OsgEarthNet.uav[94] utilizationSecMission 21860.721484529
scalar OsgEarthNet.uav[94] utilizationSecMaintenance 9061.4218964651
scalar OsgEarthNet.uav[94] utilizationSecCharge 112904.44120151
scalar OsgEarthNet.uav[94] utilizationSecIdle 115373.4144175
scalar OsgEarthNet.uav[94] utilizationEnergyMission 100571.05958557
scalar OsgEarthNet.uav[94] utilizationEnergyMaintenance 42682.284698486
scalar OsgEarthNet.uav[94] utilizationEnergyCharge 140384.3449707
scalar OsgEarthNet.uav[94] utilizationEnergyOverdrawMission 0
scalar OsgEarthNet.uav[94] utilizationEnergyOverdrawMaintenance 0
scalar OsgEarthNet.uav[94] utilizationCountMissions 32
scalar OsgEarthNet.uav[94] utilizationCountManeuversMission 356
scalar OsgEarthNet.uav[94] utilizationCountManeuversMaintenance 64
scalar OsgEarthNet.uav[94] utilizationCountChargeState 32
scalar OsgEarthNet.uav[94] utilizationCountOverdrawnAfterMission 0
scalar OsgEarthNet.uav[94] utilizationCountIdleState 32
scalar OsgEarthNet.uav[94] utilizationFail 0
scalar OsgEarthNet.uav[94] simulationTime 259200
scalar OsgEarthNet.uav[95] utilizationSecMission 1594.8866054719
scalar OsgEarthNet.uav[95] utilizationSecMaintenance 449.6007473821
scalar OsgEarthNet.uav[95] utilizationSecCharge 7500
scalar OsgEarthNet.uav[95] utilizationSecIdle 249655.51164715
scalar OsgEarthNet.uav[95] utilizationEnergyMission 7081.360534668
scalar OsgEarthNet.uav[95] utilizationEnergyMaintenance 2245.8844223023
scalar OsgEarthNet.uav[95] utilizationEnergyCharge 9535.1489257812
scalar OsgEarthNet.uav[95] utilizationEnergyOverdrawMission 0
scalar OsgEarthNet.uav[95] utilizationEnergyOverdrawMaintenance 0
scalar OsgEarthNet.uav[95] utilizationCountMissions 2
scalar OsgEarthNet.uav[95] utilizationCountManeuversMission 24
scalar OsgEarthNet.uav[95] utilizationCountManeuversMaintenance 4
scalar OsgEarthNet.uav[95] utilizationCountChargeState 2
scalar OsgEarthNet.uav[95] utilizationCountOverdrawnAfterMission 0
scalar OsgEarthNet.uav[95] utilizationCountIdleState 3
scalar OsgEarthNet.uav[95] utilizationFail 0
scalar OsgEarthNet.uav[95] simulationTime 259200
scalar OsgEarthNet.uav[96] utilizationSecMission 1893.7434763298
scalar OsgEarthNet.uav[96] utilizationSecMaintenance 1074.9208638492
scalar OsgEarthNet.uav[96] utilizationSecCharge 10940
scalar OsgEarthNet.uav[96] utilizationSecIdle 245291.33465982
scalar OsgEarthNet.uav[96] utilizationEnergyMission 8780.9432373047
scalar OsgEarthNet.uav[96] utilizationEnergyMaintenance 4935.9335479736
scalar OsgEarthNet.uav[96] utilizationEnergyCharge 13580.724853516
scalar OsgEarthNet.uav[96] utilizationEnergyOverdrawMission 0
scalar OsgEarthNet.uav[96] utilizationEnergyOverdrawMaintenance 0
scalar OsgEarthNet.uav[96] utilizationCountMissions 3
scalar OsgEarthNet.uav[96] utilizationCountManeuversMission 30
scalar OsgEarthNet.uav[96] utilizationCountManeuversMaintenance 6
scalar OsgEarthNet.uav[96] utilizationCountChargeState 3
scalar OsgEarthNet.uav[96] utilizationCountOverdrawnAfterMission 0
scalar OsgEarthNet.uav[96] utilizationCountIdleState 4
scalar OsgEarthNet.uav[96] utilizationFail 0
scalar OsgEarthNet.uav[96] simulationTime 259200
scalar OsgEarthNet.uav[97] utilizationSecMission 28732.118056993
scalar OsgEarthNet.uav[97] utilizationSecMaintenance 12699.15209908
scalar OsgEarthNet.uav[97] utilizationSecCharge 155569.65814658
scalar OsgEarthNet.uav[97] utilizationSecIdle 62199.070697342
scalar OsgEarthNet.uav[97] utilizationEnergyMission 132802.20357513
scalar OsgEarthNet.uav[97] utilizationEnergyMaintenance 60589.211894989
scalar OsgEarthNet.uav[97] utilizationEnergyCharge 192616.0847168
scalar OsgEarthNet.uav[97] utilizationEnergyOverdrawMission 0
scalar OsgEarthNet.uav[97] utilizationEnergyOverdrawMaintenance 0
scalar OsgEarthNet.uav[97] utilizationCountMissions 44
scalar OsgEarthNet.uav[97] utilizationCountManeuversMission 478
scalar OsgEarthNet.uav[97] utilizationCountManeuversMaintenance 88
scalar OsgEarthNet.uav[97] utilizationCountChargeState 44
scalar OsgEarthNet.uav[97] utilizationCountOverdrawnAfterMission 0
scalar OsgEarthNet.uav[97] utilizationCountIdleState 44
scalar OsgEarthNet.uav[97] utilizationFail 0
scalar OsgEarthNet.uav[97] simulationTime 259200
scalar OsgEarthNet.uav[98] utilizationSecMission 10417.782707029
scalar OsgEarthNet.uav[98] utilizationSecMaintenance 4886.0337762685
scalar OsgEarthNet.uav[98] utilizationSecCharge 57300
scalar OsgEarthNet.uav[98] utilizationSecIdle 186596.1825167
scalar OsgEarthNet.uav[98] utilizationEnergyMission 48511.779083252
scalar OsgEarthNet.uav[98] utilizationEnergyMaintenance 22423.103969574
scalar OsgEarthNet.uav[98] utilizationEnergyCharge 70890.848388672
scalar OsgEarthNet.uav[98] utilizationEnergyOverdrawMission 0
scalar OsgEarthNet.uav[98] utilizationEnergyOverdrawMaintenance 0
scalar OsgEarthNet.uav[98] utilizationCountMissions 16
scalar OsgEarthNet.uav[98] utilizationCountManeuversMission 169
scalar OsgEarthNet.uav[98] utilizationCountManeuversMaintenance 32
scalar OsgEarthNet.uav[98] utilizationCountChargeState 16
scalar OsgEarthNet.uav[98] utilizationCountOverdrawnAfterMission 0
scalar OsgEarthNet.uav[98] utilizationCountIdleState 17
scalar OsgEarthNet.uav[98] utilizationFail 0
scalar OsgEarthNet.uav[98] simulationTime 259200
scalar OsgEarthNet.uav[99] utilizationSecMission 26731.551135268
scalar OsgEarthNet.uav[99] utilizationSecMaintenance 12262.133646308
scalar OsgEarthNet.uav[99] utilizationSecCharge 144438.74471211
scalar OsgEarthNet.uav[99] utilizationSecIdle 75767.569506318
scalar OsgEarthNet.uav[99] utilizationEnergyMission 122789.05421448
scalar OsgEarthNet.uav[99] utilizationEnergyMaintenance 57826.592918396
scalar OsgEarthNet.uav[99] utilizationEnergyCharge 178912.07592773
scalar OsgEarthNet.uav[99] utilizationEnergyOverdrawMission 0
scalar OsgEarthNet.uav[99] utilizationEnergyOverdrawMaintenance 0
scalar OsgEarthNet.uav[99] utilizationCountMissions 41
scalar OsgEarthNet.uav[99] utilizationCountManeuversMission 441
scalar OsgEarthNet.uav[99] utilizationCountManeuversMaintenance 82
scalar OsgEarthNet.uav[99] utilizationCountChargeState 41
scalar OsgEarthNet.uav[99] utilizationCountOverdrawnAfterMission 0
scalar OsgEarthNet.uav[99] utilizationCountIdleState 41
scalar OsgEarthNet.uav[99] utilizationFail 0
scalar OsgEarthNet.uav[99] simulationTime 259200
scalar OsgEarthNet.cs[0] usedPower 431091.3501735
scalar OsgEarthNet.cs[0] chargedPower 431091.3501735
scalar OsgEarthNet.cs[0] chargedMobileNodes 92
scalar OsgEarthNet.cs[0] reservations 95
scalar OsgEarthNet.cs[1] usedPower 650805.3755543
scalar OsgEarthNet.cs[1] chargedPower 650805.3755543
scalar OsgEarthNet.cs[1] chargedMobileNodes 207
scalar OsgEarthNet.cs[1] reservations 209
scalar OsgEarthNet.cs[2] usedPower 2726429.4787236
scalar OsgEarthNet.cs[2] chargedPower 2726429.4787236
scalar OsgEarthNet.cs[2] chargedMobileNodes 572
scalar OsgEarthNet.cs[2] reservations 582
scalar OsgEarthNet.cs[3] usedPower 601264.66383852
scalar OsgEarthNet.cs[3] chargedPower 601264.66383852
scalar OsgEarthNet.cs[3] chargedMobileNodes 136
scalar OsgEarthNet.cs[3] reservations 137
scalar OsgEarthNet.cs[4] usedPower 802678.34422491
scalar OsgEarthNet.cs[4] chargedPower 802678.34422491
scalar OsgEarthNet.cs[4] chargedMobileNodes 179
scalar OsgEarthNet.cs[4] reservations 181
scalar OsgEarthNet.cs[5] usedPower 712206.5469865
scalar OsgEarthNet.cs[5] chargedPower 712206.5469865
scalar OsgEarthNet.cs[5] chargedMobileNodes 151
scalar OsgEarthNet.cs[5] reservations 152
scalar OsgEarthNet.cs[6] usedPower 2422186.4153245
scalar OsgEarthNet.cs[6] chargedPower 2422186.4153245
scalar OsgEarthNet.cs[6] chargedMobileNodes 544
scalar OsgEarthNet.cs[6] reservations 553

