version 2
run Szenario_Hotel_Gabelbach-12-20180710-01:14:39-36512
attr configname Szenario_Hotel_Gabelbach
attr datetime 20180710-01:14:39
attr experiment Szenario_Hotel_Gabelbach
attr inifile omnetpp.ini
attr iterationvars "$replM=2, $biWeight=0.45"
attr iterationvarsf replM=2,biWeight=0.45-
attr measurement "$replM=2, $biWeight=0.45"
attr network OsgEarthNet
attr processid 36512
attr repetition 0
attr replication #0
attr resultdir results
attr runnumber 12
attr seedset 12
itervar biWeight 0.45
itervar replM 2
param *.osgEarthScene.scene "\"Szenario_Hotel_Gabelbach.earth\""
param *.playgroundLatitude 50.6830269
param *.playgroundLongitude 10.8538055
param *.playgroundWidth 3500m
param *.playgroundHeight 3500m
param *.numUAVs 100
param *.cs[0].posX 3537m
param *.cs[0].posY 965m
param *.cs[0].posZ 538m
param *.cs[1].posX 312m
param *.cs[1].posY 1262m
param *.cs[1].posZ 539m
param *.cs[2].posX 2185m
param *.cs[2].posY 3026m
param *.cs[2].posZ 777m
param *.cs[3].posX 10m
param *.cs[3].posY 2200m
param *.cs[3].posZ 560m
param *.cs[4].posX 750m
param *.cs[4].posY 200m
param *.cs[4].posZ 540m
param *.cs[5].posX 2450m
param *.cs[5].posY 180m
param *.cs[5].posZ 524m
param *.cs[6].posX 3140m
param *.cs[6].posY 1790m
param *.cs[6].posZ 606m
param *.numCSs 7
param *.uav[*].replacementMethod 2
param *.uav[*].weightedSumWeight 0.45
param *.*.timeStep 10s
param *.uav[*].commandPreviewCommandCount 20
param *.missionControl.missionFiles "\"missions\\\\Szenario_WB_Hotel_Gabelbach_Mission_Hotel.waypoints,missions\\\\Szenario_WB_Hotel_Gabelbach_Mission_Kickelhahn.waypoints,missions\\\\Szenario_WB_Hotel_Gabelbach_Mission_Ilmenau_Sportplatz.waypoints,missions\\\\Szenario_WB_Hotel_Gabelbach_Mission_Manebach_Mitte.waypoints,missions\\\\Szenario_WB_Hotel_Gabelbach_Mission_Manebach_Sued.waypoints\""
param *.missionControl.missionFiles "\"missions\\\\Szenario_WB_Hotel_Gabelbach_Mission_Hotel.waypoints,missions\\\\Szenario_WB_Hotel_Gabelbach_Mission_Kickelhahn.waypoints,missions\\\\Szenario_WB_Hotel_Gabelbach_Mission_Ilmenau_Sportplatz.waypoints,missions\\\\Szenario_WB_Hotel_Gabelbach_Mission_Manebach_Mitte.waypoints,missions\\\\Szenario_WB_Hotel_Gabelbach_Mission_Manebach_Sued.waypoints,missions\\\\Szenario_WB_Hotel_Gabelbach_Hover_HoheSchlaufe.waypoints,missions\\\\Szenario_WB_Hotel_Gabelbach_Hover_Kickelhahn.waypoints,missions\\\\Szenario_WB_Hotel_Gabelbach_Hover_Gabelbachskopf.waypoints,missions\\\\Szenario_WB_Hotel_Gabelbach_Hover_Dachskopf.waypoints\""
param *.uav[0].startX 3537m
param *.uav[0].startY 965m
param *.uav[0].startZ 539m
param *.uav[1].startX 312m
param *.uav[1].startY 1262m
param *.uav[1].startZ 540m
param *.uav[2].startX 2185m
param *.uav[2].startY 3026m
param *.uav[2].startZ 778m
param *.uav[3].startX 3537m
param *.uav[3].startY 965m
param *.uav[3].startZ 539m
param *.uav[4].startX 312m
param *.uav[4].startY 1262m
param *.uav[4].startZ 540m
param *.uav[5].startX 2185m
param *.uav[5].startY 3026m
param *.uav[5].startZ 778m
param *.uav[6].startX 3537m
param *.uav[6].startY 965m
param *.uav[6].startZ 539m
param *.uav[7].startX 312m
param *.uav[7].startY 1262m
param *.uav[7].startZ 540m
param *.uav[8].startX 2185m
param *.uav[8].startY 3026m
param *.uav[8].startZ 778m
param *.uav[9].startX 3537m
param *.uav[9].startY 965m
param *.uav[9].startZ 539m
param *.uav[10].startX 3537m
param *.uav[10].startY 965m
param *.uav[10].startZ 539m
param *.uav[11].startX 312m
param *.uav[11].startY 1262m
param *.uav[11].startZ 540m
param *.uav[12].startX 2185m
param *.uav[12].startY 3026m
param *.uav[12].startZ 778m
param *.uav[13].startX 3537m
param *.uav[13].startY 965m
param *.uav[13].startZ 539m
param *.uav[14].startX 312m
param *.uav[14].startY 1262m
param *.uav[14].startZ 540m
param *.uav[15].startX 2185m
param *.uav[15].startY 3026m
param *.uav[15].startZ 778m
param *.uav[16].startX 3537m
param *.uav[16].startY 965m
param *.uav[16].startZ 539m
param *.uav[17].startX 312m
param *.uav[17].startY 1262m
param *.uav[17].startZ 540m
param *.uav[18].startX 2185m
param *.uav[18].startY 3026m
param *.uav[18].startZ 778m
param *.uav[19].startX 3537m
param *.uav[19].startY 965m
param *.uav[19].startZ 539m
param *.uav[20].startX 3537m
param *.uav[20].startY 965m
param *.uav[20].startZ 539m
param *.uav[21].startX 312m
param *.uav[21].startY 1262m
param *.uav[21].startZ 540m
param *.uav[22].startX 2185m
param *.uav[22].startY 3026m
param *.uav[22].startZ 778m
param *.uav[23].startX 3537m
param *.uav[23].startY 965m
param *.uav[23].startZ 539m
param *.uav[24].startX 312m
param *.uav[24].startY 1262m
param *.uav[24].startZ 540m
param *.uav[25].startX 2185m
param *.uav[25].startY 3026m
param *.uav[25].startZ 778m
param *.uav[26].startX 3537m
param *.uav[26].startY 965m
param *.uav[26].startZ 539m
param *.uav[27].startX 312m
param *.uav[27].startY 1262m
param *.uav[27].startZ 540m
param *.uav[28].startX 2185m
param *.uav[28].startY 3026m
param *.uav[28].startZ 778m
param *.uav[29].startX 3537m
param *.uav[29].startY 965m
param *.uav[29].startZ 539m
param *.uav[30].startX 3537m
param *.uav[30].startY 965m
param *.uav[30].startZ 539m
param *.uav[31].startX 312m
param *.uav[31].startY 1262m
param *.uav[31].startZ 540m
param *.uav[32].startX 2185m
param *.uav[32].startY 3026m
param *.uav[32].startZ 778m
param *.uav[33].startX 3537m
param *.uav[33].startY 965m
param *.uav[33].startZ 539m
param *.uav[34].startX 312m
param *.uav[34].startY 1262m
param *.uav[34].startZ 540m
param *.uav[35].startX 2185m
param *.uav[35].startY 3026m
param *.uav[35].startZ 778m
param *.uav[36].startX 3537m
param *.uav[36].startY 965m
param *.uav[36].startZ 539m
param *.uav[37].startX 312m
param *.uav[37].startY 1262m
param *.uav[37].startZ 540m
param *.uav[38].startX 2185m
param *.uav[38].startY 3026m
param *.uav[38].startZ 778m
param *.uav[39].startX 3537m
param *.uav[39].startY 965m
param *.uav[39].startZ 539m
param *.uav[40].startX 3537m
param *.uav[40].startY 965m
param *.uav[40].startZ 539m
param *.uav[41].startX 312m
param *.uav[41].startY 1262m
param *.uav[41].startZ 540m
param *.uav[42].startX 2185m
param *.uav[42].startY 3026m
param *.uav[42].startZ 778m
param *.uav[43].startX 3537m
param *.uav[43].startY 965m
param *.uav[43].startZ 539m
param *.uav[44].startX 312m
param *.uav[44].startY 1262m
param *.uav[44].startZ 540m
param *.uav[45].startX 2185m
param *.uav[45].startY 3026m
param *.uav[45].startZ 778m
param *.uav[46].startX 3537m
param *.uav[46].startY 965m
param *.uav[46].startZ 539m
param *.uav[47].startX 312m
param *.uav[47].startY 1262m
param *.uav[47].startZ 540m
param *.uav[48].startX 2185m
param *.uav[48].startY 3026m
param *.uav[48].startZ 778m
param *.uav[49].startX 3537m
param *.uav[49].startY 965m
param *.uav[49].startZ 539m
param *.uav[50].startX 3537m
param *.uav[50].startY 965m
param *.uav[50].startZ 539m
param *.uav[51].startX 312m
param *.uav[51].startY 1262m
param *.uav[51].startZ 540m
param *.uav[52].startX 2185m
param *.uav[52].startY 3026m
param *.uav[52].startZ 778m
param *.uav[53].startX 3537m
param *.uav[53].startY 965m
param *.uav[53].startZ 539m
param *.uav[54].startX 312m
param *.uav[54].startY 1262m
param *.uav[54].startZ 540m
param *.uav[55].startX 2185m
param *.uav[55].startY 3026m
param *.uav[55].startZ 778m
param *.uav[56].startX 3537m
param *.uav[56].startY 965m
param *.uav[56].startZ 539m
param *.uav[57].startX 312m
param *.uav[57].startY 1262m
param *.uav[57].startZ 540m
param *.uav[58].startX 2185m
param *.uav[58].startY 3026m
param *.uav[58].startZ 778m
param *.uav[59].startX 3537m
param *.uav[59].startY 965m
param *.uav[59].startZ 539m
param *.uav[60].startX 3537m
param *.uav[60].startY 965m
param *.uav[60].startZ 539m
param *.uav[61].startX 312m
param *.uav[61].startY 1262m
param *.uav[61].startZ 540m
param *.uav[62].startX 2185m
param *.uav[62].startY 3026m
param *.uav[62].startZ 778m
param *.uav[63].startX 3537m
param *.uav[63].startY 965m
param *.uav[63].startZ 539m
param *.uav[64].startX 312m
param *.uav[64].startY 1262m
param *.uav[64].startZ 540m
param *.uav[65].startX 2185m
param *.uav[65].startY 3026m
param *.uav[65].startZ 778m
param *.uav[66].startX 3537m
param *.uav[66].startY 965m
param *.uav[66].startZ 539m
param *.uav[67].startX 312m
param *.uav[67].startY 1262m
param *.uav[67].startZ 540m
param *.uav[68].startX 2185m
param *.uav[68].startY 3026m
param *.uav[68].startZ 778m
param *.uav[69].startX 3537m
param *.uav[69].startY 965m
param *.uav[69].startZ 539m
param *.uav[70].startX 3537m
param *.uav[70].startY 965m
param *.uav[70].startZ 539m
param *.uav[71].startX 312m
param *.uav[71].startY 1262m
param *.uav[71].startZ 540m
param *.uav[72].startX 2185m
param *.uav[72].startY 3026m
param *.uav[72].startZ 778m
param *.uav[73].startX 3537m
param *.uav[73].startY 965m
param *.uav[73].startZ 539m
param *.uav[74].startX 312m
param *.uav[74].startY 1262m
param *.uav[74].startZ 540m
param *.uav[75].startX 2185m
param *.uav[75].startY 3026m
param *.uav[75].startZ 778m
param *.uav[76].startX 3537m
param *.uav[76].startY 965m
param *.uav[76].startZ 539m
param *.uav[77].startX 312m
param *.uav[77].startY 1262m
param *.uav[77].startZ 540m
param *.uav[78].startX 2185m
param *.uav[78].startY 3026m
param *.uav[78].startZ 778m
param *.uav[79].startX 3537m
param *.uav[79].startY 965m
param *.uav[79].startZ 539m
param *.uav[80].startX 3537m
param *.uav[80].startY 965m
param *.uav[80].startZ 539m
param *.uav[81].startX 312m
param *.uav[81].startY 1262m
param *.uav[81].startZ 540m
param *.uav[82].startX 2185m
param *.uav[82].startY 3026m
param *.uav[82].startZ 778m
param *.uav[83].startX 3537m
param *.uav[83].startY 965m
param *.uav[83].startZ 539m
param *.uav[84].startX 312m
param *.uav[84].startY 1262m
param *.uav[84].startZ 540m
param *.uav[85].startX 2185m
param *.uav[85].startY 3026m
param *.uav[85].startZ 778m
param *.uav[86].startX 3537m
param *.uav[86].startY 965m
param *.uav[86].startZ 539m
param *.uav[87].startX 312m
param *.uav[87].startY 1262m
param *.uav[87].startZ 540m
param *.uav[88].startX 2185m
param *.uav[88].startY 3026m
param *.uav[88].startZ 778m
param *.uav[89].startX 3537m
param *.uav[89].startY 965m
param *.uav[89].startZ 539m
param *.uav[90].startX 3537m
param *.uav[90].startY 965m
param *.uav[90].startZ 539m
param *.uav[91].startX 312m
param *.uav[91].startY 1262m
param *.uav[91].startZ 540m
param *.uav[92].startX 2185m
param *.uav[92].startY 3026m
param *.uav[92].startZ 778m
param *.uav[93].startX 3537m
param *.uav[93].startY 965m
param *.uav[93].startZ 539m
param *.uav[94].startX 312m
param *.uav[94].startY 1262m
param *.uav[94].startZ 540m
param *.uav[95].startX 2185m
param *.uav[95].startY 3026m
param *.uav[95].startZ 778m
param *.uav[96].startX 3537m
param *.uav[96].startY 965m
param *.uav[96].startZ 539m
param *.uav[97].startX 312m
param *.uav[97].startY 1262m
param *.uav[97].startZ 540m
param *.uav[98].startX 2185m
param *.uav[98].startY 3026m
param *.uav[98].startZ 778m
param *.uav[99].startX 3537m
param *.uav[99].startY 965m
param *.uav[99].startZ 539m
param *.osgEarthScene.scene "\"boston.earth\""
param *.playgroundLatitude 42.3558
param *.playgroundLongitude -71.0677
param *.playgroundWidth 400m
param *.playgroundHeight 200m
param *.channelController.connectionColor "\"#0000FF40\""
param *.channelController.showConnections false
param *.uav[*].modelURL "\"quadrocopter.small.obj.15.scale.0,0,90.rot\""
param *.uav[*].labelColor "\"#FF7C00CC\""
param *.uav[*].label2Color "\"#FF7C00EE\""
param *.uav[*].batteryCapacity 5200mAh
param *.uav[*].batteryRemaining uav[index].batteryCapacity
param *.uav[*].predictionQuantile 0.95
param *.uav[*].replacementMethod 2
param *.uav[*].weightedSumWeight 0.5
param *.cs[*].modelURL "\"chargingstation_v1.osgt.2.scale.0,0,0.rot.0,0,-15e-1.trans\""
param *.cs[*].spotsWaiting 999
param *.cs[*].spotsCharging 999
param *.cs[*].chargeEffectivenessPercentage 100
param *.cs[*].nonLinearPhaseStartPercentage 85
param *.cs[*].chargeCurrent 6.0A
param *.cs[*].prioritizeFastCharge true
param *.missionControl.replacementSearchMethod 0
param *.*.timeStep 9s

scalar OsgEarthNet.uav[0] utilizationSecMission 30962.144901577
scalar OsgEarthNet.uav[0] utilizationSecMaintenance 12185.411441589
scalar OsgEarthNet.uav[0] utilizationSecCharge 159300.30284369
scalar OsgEarthNet.uav[0] utilizationSecIdle 56752.139813144
scalar OsgEarthNet.uav[0] utilizationEnergyMission 142520.40184784
scalar OsgEarthNet.uav[0] utilizationEnergyMaintenance 57175.430877686
scalar OsgEarthNet.uav[0] utilizationEnergyCharge 199651.34643555
scalar OsgEarthNet.uav[0] utilizationEnergyOverdrawMission 0
scalar OsgEarthNet.uav[0] utilizationEnergyOverdrawMaintenance 0
scalar OsgEarthNet.uav[0] utilizationCountMissions 43
scalar OsgEarthNet.uav[0] utilizationCountManeuversMission 490
scalar OsgEarthNet.uav[0] utilizationCountManeuversMaintenance 86
scalar OsgEarthNet.uav[0] utilizationCountChargeState 43
scalar OsgEarthNet.uav[0] utilizationCountOverdrawnAfterMission 0
scalar OsgEarthNet.uav[0] utilizationCountIdleState 43
scalar OsgEarthNet.uav[0] utilizationFail 0
scalar OsgEarthNet.uav[0] simulationTime 259200
scalar OsgEarthNet.uav[1] utilizationSecMission 27084.558346297
scalar OsgEarthNet.uav[1] utilizationSecMaintenance 14318.169326765
scalar OsgEarthNet.uav[1] utilizationSecCharge 154293.60514773
scalar OsgEarthNet.uav[1] utilizationSecIdle 63503.666179212
scalar OsgEarthNet.uav[1] utilizationEnergyMission 126263.59864044
scalar OsgEarthNet.uav[1] utilizationEnergyMaintenance 67024.361225128
scalar OsgEarthNet.uav[1] utilizationEnergyCharge 193537.7331543
scalar OsgEarthNet.uav[1] utilizationEnergyOverdrawMission 0
scalar OsgEarthNet.uav[1] utilizationEnergyOverdrawMaintenance 0
scalar OsgEarthNet.uav[1] utilizationCountMissions 42
scalar OsgEarthNet.uav[1] utilizationCountManeuversMission 444
scalar OsgEarthNet.uav[1] utilizationCountManeuversMaintenance 84
scalar OsgEarthNet.uav[1] utilizationCountChargeState 42
scalar OsgEarthNet.uav[1] utilizationCountOverdrawnAfterMission 0
scalar OsgEarthNet.uav[1] utilizationCountIdleState 42
scalar OsgEarthNet.uav[1] utilizationFail 0
scalar OsgEarthNet.uav[1] simulationTime 259200
scalar OsgEarthNet.uav[2] utilizationSecMission 694.00169469977
scalar OsgEarthNet.uav[2] utilizationSecMaintenance 282.18572599206
scalar OsgEarthNet.uav[2] utilizationSecCharge 3710
scalar OsgEarthNet.uav[2] utilizationSecIdle 254513.81157931
scalar OsgEarthNet.uav[2] utilizationEnergyMission 3330.8036193848
scalar OsgEarthNet.uav[2] utilizationEnergyMaintenance 1330.3325424194
scalar OsgEarthNet.uav[2] utilizationEnergyCharge 4661.1362304688
scalar OsgEarthNet.uav[2] utilizationEnergyOverdrawMission 0
scalar OsgEarthNet.uav[2] utilizationEnergyOverdrawMaintenance 0
scalar OsgEarthNet.uav[2] utilizationCountMissions 1
scalar OsgEarthNet.uav[2] utilizationCountManeuversMission 13
scalar OsgEarthNet.uav[2] utilizationCountManeuversMaintenance 2
scalar OsgEarthNet.uav[2] utilizationCountChargeState 1
scalar OsgEarthNet.uav[2] utilizationCountOverdrawnAfterMission 0
scalar OsgEarthNet.uav[2] utilizationCountIdleState 2
scalar OsgEarthNet.uav[2] utilizationFail 0
scalar OsgEarthNet.uav[2] simulationTime 259200
scalar OsgEarthNet.uav[3] utilizationSecMission 13047.088087256
scalar OsgEarthNet.uav[3] utilizationSecMaintenance 6011.7134731974
scalar OsgEarthNet.uav[3] utilizationSecCharge 70440
scalar OsgEarthNet.uav[3] utilizationSecIdle 169701.19743955
scalar OsgEarthNet.uav[3] utilizationEnergyMission 59683.467666626
scalar OsgEarthNet.uav[3] utilizationEnergyMaintenance 28377.058963776
scalar OsgEarthNet.uav[3] utilizationEnergyCharge 88127.251464844
scalar OsgEarthNet.uav[3] utilizationEnergyOverdrawMission 0
scalar OsgEarthNet.uav[3] utilizationEnergyOverdrawMaintenance 0
scalar OsgEarthNet.uav[3] utilizationCountMissions 19
scalar OsgEarthNet.uav[3] utilizationCountManeuversMission 212
scalar OsgEarthNet.uav[3] utilizationCountManeuversMaintenance 38
scalar OsgEarthNet.uav[3] utilizationCountChargeState 19
scalar OsgEarthNet.uav[3] utilizationCountOverdrawnAfterMission 0
scalar OsgEarthNet.uav[3] utilizationCountIdleState 20
scalar OsgEarthNet.uav[3] utilizationFail 0
scalar OsgEarthNet.uav[3] simulationTime 259200
scalar OsgEarthNet.uav[4] utilizationSecMission 30119.082399604
scalar OsgEarthNet.uav[4] utilizationSecMaintenance 13892.418600888
scalar OsgEarthNet.uav[4] utilizationSecCharge 161427.53501699
scalar OsgEarthNet.uav[4] utilizationSecIdle 53760.962982514
scalar OsgEarthNet.uav[4] utilizationEnergyMission 139000.01376343
scalar OsgEarthNet.uav[4] utilizationEnergyMaintenance 64727.947212219
scalar OsgEarthNet.uav[4] utilizationEnergyCharge 201366.35211182
scalar OsgEarthNet.uav[4] utilizationEnergyOverdrawMission 0
scalar OsgEarthNet.uav[4] utilizationEnergyOverdrawMaintenance 0
scalar OsgEarthNet.uav[4] utilizationCountMissions 45
scalar OsgEarthNet.uav[4] utilizationCountManeuversMission 491
scalar OsgEarthNet.uav[4] utilizationCountManeuversMaintenance 90
scalar OsgEarthNet.uav[4] utilizationCountChargeState 45
scalar OsgEarthNet.uav[4] utilizationCountOverdrawnAfterMission 0
scalar OsgEarthNet.uav[4] utilizationCountIdleState 45
scalar OsgEarthNet.uav[4] utilizationFail 0
scalar OsgEarthNet.uav[4] simulationTime 259200
scalar OsgEarthNet.uav[5] utilizationSecMission 16136.863278135
scalar OsgEarthNet.uav[5] utilizationSecMaintenance 6348.0951557634
scalar OsgEarthNet.uav[5] utilizationSecCharge 84520
scalar OsgEarthNet.uav[5] utilizationSecIdle 152195.0405661
scalar OsgEarthNet.uav[5] utilizationEnergyMission 75536.315879822
scalar OsgEarthNet.uav[5] utilizationEnergyMaintenance 29939.70400238
scalar OsgEarthNet.uav[5] utilizationEnergyCharge 105353.69018555
scalar OsgEarthNet.uav[5] utilizationEnergyOverdrawMission 0
scalar OsgEarthNet.uav[5] utilizationEnergyOverdrawMaintenance 0
scalar OsgEarthNet.uav[5] utilizationCountMissions 23
scalar OsgEarthNet.uav[5] utilizationCountManeuversMission 270
scalar OsgEarthNet.uav[5] utilizationCountManeuversMaintenance 46
scalar OsgEarthNet.uav[5] utilizationCountChargeState 23
scalar OsgEarthNet.uav[5] utilizationCountOverdrawnAfterMission 0
scalar OsgEarthNet.uav[5] utilizationCountIdleState 24
scalar OsgEarthNet.uav[5] utilizationFail 0
scalar OsgEarthNet.uav[5] simulationTime 259200
scalar OsgEarthNet.uav[6] utilizationSecMission 226.72646264981
scalar OsgEarthNet.uav[6] utilizationSecMaintenance 407.30662570353
scalar OsgEarthNet.uav[6] utilizationSecCharge 2770
scalar OsgEarthNet.uav[6] utilizationSecIdle 255795.96591165
scalar OsgEarthNet.uav[6] utilizationEnergyMission 1001.3874206543
scalar OsgEarthNet.uav[6] utilizationEnergyMaintenance 2041.6667098999
scalar OsgEarthNet.uav[6] utilizationEnergyCharge 3043.0581054688
scalar OsgEarthNet.uav[6] utilizationEnergyOverdrawMission 0
scalar OsgEarthNet.uav[6] utilizationEnergyOverdrawMaintenance 0
scalar OsgEarthNet.uav[6] utilizationCountMissions 1
scalar OsgEarthNet.uav[6] utilizationCountManeuversMission 4
scalar OsgEarthNet.uav[6] utilizationCountManeuversMaintenance 2
scalar OsgEarthNet.uav[6] utilizationCountChargeState 1
scalar OsgEarthNet.uav[6] utilizationCountOverdrawnAfterMission 0
scalar OsgEarthNet.uav[6] utilizationCountIdleState 2
scalar OsgEarthNet.uav[6] utilizationFail 0
scalar OsgEarthNet.uav[6] simulationTime 259200
scalar OsgEarthNet.uav[7] utilizationSecMission 26814.213801795
scalar OsgEarthNet.uav[7] utilizationSecMaintenance 15159.008886814
scalar OsgEarthNet.uav[7] utilizationSecCharge 156570
scalar OsgEarthNet.uav[7] utilizationSecIdle 60656.776311391
scalar OsgEarthNet.uav[7] utilizationEnergyMission 124315.17668533
scalar OsgEarthNet.uav[7] utilizationEnergyMaintenance 70843.027160508
scalar OsgEarthNet.uav[7] utilizationEnergyCharge 194733.20874023
scalar OsgEarthNet.uav[7] utilizationEnergyOverdrawMission 0
scalar OsgEarthNet.uav[7] utilizationEnergyOverdrawMaintenance 0
scalar OsgEarthNet.uav[7] utilizationCountMissions 43
scalar OsgEarthNet.uav[7] utilizationCountManeuversMission 455
scalar OsgEarthNet.uav[7] utilizationCountManeuversMaintenance 87
scalar OsgEarthNet.uav[7] utilizationCountChargeState 43
scalar OsgEarthNet.uav[7] utilizationCountOverdrawnAfterMission 0
scalar OsgEarthNet.uav[7] utilizationCountIdleState 44
scalar OsgEarthNet.uav[7] utilizationFail 0
scalar OsgEarthNet.uav[7] simulationTime 259200
scalar OsgEarthNet.uav[8] utilizationSecMission 22326.528307934
scalar OsgEarthNet.uav[8] utilizationSecMaintenance 11686.841300516
scalar OsgEarthNet.uav[8] utilizationSecCharge 124507.78122955
scalar OsgEarthNet.uav[8] utilizationSecIdle 100678.848162
scalar OsgEarthNet.uav[8] utilizationEnergyMission 103543.21446991
scalar OsgEarthNet.uav[8] utilizationEnergyMaintenance 54669.840335846
scalar OsgEarthNet.uav[8] utilizationEnergyCharge 157201.03564453
scalar OsgEarthNet.uav[8] utilizationEnergyOverdrawMission 0
scalar OsgEarthNet.uav[8] utilizationEnergyOverdrawMaintenance 0
scalar OsgEarthNet.uav[8] utilizationCountMissions 34
scalar OsgEarthNet.uav[8] utilizationCountManeuversMission 369
scalar OsgEarthNet.uav[8] utilizationCountManeuversMaintenance 68
scalar OsgEarthNet.uav[8] utilizationCountChargeState 34
scalar OsgEarthNet.uav[8] utilizationCountOverdrawnAfterMission 0
scalar OsgEarthNet.uav[8] utilizationCountIdleState 34
scalar OsgEarthNet.uav[8] utilizationFail 0
scalar OsgEarthNet.uav[8] simulationTime 259200
scalar OsgEarthNet.uav[9] utilizationSecMission 30482.356844555
scalar OsgEarthNet.uav[9] utilizationSecMaintenance 11991.681638958
scalar OsgEarthNet.uav[9] utilizationSecCharge 152706.0172508
scalar OsgEarthNet.uav[9] utilizationSecIdle 64019.943265683
scalar OsgEarthNet.uav[9] utilizationEnergyMission 141168.54805374
scalar OsgEarthNet.uav[9] utilizationEnergyMaintenance 55615.535148621
scalar OsgEarthNet.uav[9] utilizationEnergyCharge 191468.37744141
scalar OsgEarthNet.uav[9] utilizationEnergyOverdrawMission 0
scalar OsgEarthNet.uav[9] utilizationEnergyOverdrawMaintenance 0
scalar OsgEarthNet.uav[9] utilizationCountMissions 42
scalar OsgEarthNet.uav[9] utilizationCountManeuversMission 505
scalar OsgEarthNet.uav[9] utilizationCountManeuversMaintenance 84
scalar OsgEarthNet.uav[9] utilizationCountChargeState 42
scalar OsgEarthNet.uav[9] utilizationCountOverdrawnAfterMission 0
scalar OsgEarthNet.uav[9] utilizationCountIdleState 42
scalar OsgEarthNet.uav[9] utilizationFail 0
scalar OsgEarthNet.uav[9] simulationTime 259200
scalar OsgEarthNet.uav[10] utilizationSecMission 698.84532193436
scalar OsgEarthNet.uav[10] utilizationSecMaintenance 323.03163670533
scalar OsgEarthNet.uav[10] utilizationSecCharge 3670
scalar OsgEarthNet.uav[10] utilizationSecIdle 254508.12204136
scalar OsgEarthNet.uav[10] utilizationEnergyMission 3042.8431243897
scalar OsgEarthNet.uav[10] utilizationEnergyMaintenance 1517.3491439819
scalar OsgEarthNet.uav[10] utilizationEnergyCharge 4560.193359375
scalar OsgEarthNet.uav[10] utilizationEnergyOverdrawMission 0
scalar OsgEarthNet.uav[10] utilizationEnergyOverdrawMaintenance 0
scalar OsgEarthNet.uav[10] utilizationCountMissions 1
scalar OsgEarthNet.uav[10] utilizationCountManeuversMission 10
scalar OsgEarthNet.uav[10] utilizationCountManeuversMaintenance 2
scalar OsgEarthNet.uav[10] utilizationCountChargeState 1
scalar OsgEarthNet.uav[10] utilizationCountOverdrawnAfterMission 0
scalar OsgEarthNet.uav[10] utilizationCountIdleState 2
scalar OsgEarthNet.uav[10] utilizationFail 0
scalar OsgEarthNet.uav[10] simulationTime 259200
scalar OsgEarthNet.uav[11] utilizationSecMission 22901.161351975
scalar OsgEarthNet.uav[11] utilizationSecMaintenance 11790.303131675
scalar OsgEarthNet.uav[11] utilizationSecCharge 128560
scalar OsgEarthNet.uav[11] utilizationSecIdle 95948.53451635
scalar OsgEarthNet.uav[11] utilizationEnergyMission 107151.08515797
scalar OsgEarthNet.uav[11] utilizationEnergyMaintenance 55810.653671265
scalar OsgEarthNet.uav[11] utilizationEnergyCharge 160409.48266602
scalar OsgEarthNet.uav[11] utilizationEnergyOverdrawMission 0
scalar OsgEarthNet.uav[11] utilizationEnergyOverdrawMaintenance 0
scalar OsgEarthNet.uav[11] utilizationCountMissions 35
scalar OsgEarthNet.uav[11] utilizationCountManeuversMission 381
scalar OsgEarthNet.uav[11] utilizationCountManeuversMaintenance 71
scalar OsgEarthNet.uav[11] utilizationCountChargeState 35
scalar OsgEarthNet.uav[11] utilizationCountOverdrawnAfterMission 0
scalar OsgEarthNet.uav[11] utilizationCountIdleState 36
scalar OsgEarthNet.uav[11] utilizationFail 0
scalar OsgEarthNet.uav[11] simulationTime 259200
scalar OsgEarthNet.uav[12] utilizationSecMission 31667.498054268
scalar OsgEarthNet.uav[12] utilizationSecMaintenance 11953.205353885
scalar OsgEarthNet.uav[12] utilizationSecCharge 160161.84532782
scalar OsgEarthNet.uav[12] utilizationSecIdle 55417.450264031
scalar OsgEarthNet.uav[12] utilizationEnergyMission 146464.33436203
scalar OsgEarthNet.uav[12] utilizationEnergyMaintenance 55919.974502563
scalar OsgEarthNet.uav[12] utilizationEnergyCharge 201327.77050781
scalar OsgEarthNet.uav[12] utilizationEnergyOverdrawMission 0
scalar OsgEarthNet.uav[12] utilizationEnergyOverdrawMaintenance 0
scalar OsgEarthNet.uav[12] utilizationCountMissions 43
scalar OsgEarthNet.uav[12] utilizationCountManeuversMission 505
scalar OsgEarthNet.uav[12] utilizationCountManeuversMaintenance 86
scalar OsgEarthNet.uav[12] utilizationCountChargeState 43
scalar OsgEarthNet.uav[12] utilizationCountOverdrawnAfterMission 0
scalar OsgEarthNet.uav[12] utilizationCountIdleState 43
scalar OsgEarthNet.uav[12] utilizationFail 0
scalar OsgEarthNet.uav[12] simulationTime 259200
scalar OsgEarthNet.uav[13] utilizationSecMission 698.84532193436
scalar OsgEarthNet.uav[13] utilizationSecMaintenance 323.03163670533
scalar OsgEarthNet.uav[13] utilizationSecCharge 3750
scalar OsgEarthNet.uav[13] utilizationSecIdle 254428.12204136
scalar OsgEarthNet.uav[13] utilizationEnergyMission 3098.9179382324
scalar OsgEarthNet.uav[13] utilizationEnergyMaintenance 1595.6054916382
scalar OsgEarthNet.uav[13] utilizationEnergyCharge 4694.5180664062
scalar OsgEarthNet.uav[13] utilizationEnergyOverdrawMission 0
scalar OsgEarthNet.uav[13] utilizationEnergyOverdrawMaintenance 0
scalar OsgEarthNet.uav[13] utilizationCountMissions 1
scalar OsgEarthNet.uav[13] utilizationCountManeuversMission 10
scalar OsgEarthNet.uav[13] utilizationCountManeuversMaintenance 2
scalar OsgEarthNet.uav[13] utilizationCountChargeState 1
scalar OsgEarthNet.uav[13] utilizationCountOverdrawnAfterMission 0
scalar OsgEarthNet.uav[13] utilizationCountIdleState 2
scalar OsgEarthNet.uav[13] utilizationFail 0
scalar OsgEarthNet.uav[13] simulationTime 259200
scalar OsgEarthNet.uav[14] utilizationSecMission 533.25626237336
scalar OsgEarthNet.uav[14] utilizationSecMaintenance 451.14699917938
scalar OsgEarthNet.uav[14] utilizationSecCharge 3530
scalar OsgEarthNet.uav[14] utilizationSecIdle 254685.59573845
scalar OsgEarthNet.uav[14] utilizationEnergyMission 2364.2761535645
scalar OsgEarthNet.uav[14] utilizationEnergyMaintenance 1945.265712738
scalar OsgEarthNet.uav[14] utilizationEnergyCharge 4315.796875
scalar OsgEarthNet.uav[14] utilizationEnergyOverdrawMission 0
scalar OsgEarthNet.uav[14] utilizationEnergyOverdrawMaintenance 0
scalar OsgEarthNet.uav[14] utilizationCountMissions 1
scalar OsgEarthNet.uav[14] utilizationCountManeuversMission 8
scalar OsgEarthNet.uav[14] utilizationCountManeuversMaintenance 2
scalar OsgEarthNet.uav[14] utilizationCountChargeState 1
scalar OsgEarthNet.uav[14] utilizationCountOverdrawnAfterMission 0
scalar OsgEarthNet.uav[14] utilizationCountIdleState 2
scalar OsgEarthNet.uav[14] utilizationFail 0
scalar OsgEarthNet.uav[14] simulationTime 259200
scalar OsgEarthNet.uav[15] utilizationSecMission 887.1741082606
scalar OsgEarthNet.uav[15] utilizationSecMaintenance 148.2728194454
scalar OsgEarthNet.uav[15] utilizationSecCharge 3840
scalar OsgEarthNet.uav[15] utilizationSecIdle 254324.55207229
scalar OsgEarthNet.uav[15] utilizationEnergyMission 4050.220993042
scalar OsgEarthNet.uav[15] utilizationEnergyMaintenance 695.36589813232
scalar OsgEarthNet.uav[15] utilizationEnergyCharge 4926.8452148438
scalar OsgEarthNet.uav[15] utilizationEnergyOverdrawMission 0
scalar OsgEarthNet.uav[15] utilizationEnergyOverdrawMaintenance 0
scalar OsgEarthNet.uav[15] utilizationCountMissions 1
scalar OsgEarthNet.uav[15] utilizationCountManeuversMission 14
scalar OsgEarthNet.uav[15] utilizationCountManeuversMaintenance 2
scalar OsgEarthNet.uav[15] utilizationCountChargeState 1
scalar OsgEarthNet.uav[15] utilizationCountOverdrawnAfterMission 0
scalar OsgEarthNet.uav[15] utilizationCountIdleState 2
scalar OsgEarthNet.uav[15] utilizationFail 0
scalar OsgEarthNet.uav[15] simulationTime 259200
scalar OsgEarthNet.uav[16] utilizationSecMission 836.77707522227
scalar OsgEarthNet.uav[16] utilizationSecMaintenance 217.0347828456
scalar OsgEarthNet.uav[16] utilizationSecCharge 3880
scalar OsgEarthNet.uav[16] utilizationSecIdle 254266.18714193
scalar OsgEarthNet.uav[16] utilizationEnergyMission 3828.778213501
scalar OsgEarthNet.uav[16] utilizationEnergyMaintenance 1115.7963981628
scalar OsgEarthNet.uav[16] utilizationEnergyCharge 4944.5751953125
scalar OsgEarthNet.uav[16] utilizationEnergyOverdrawMission 0
scalar OsgEarthNet.uav[16] utilizationEnergyOverdrawMaintenance 0
scalar OsgEarthNet.uav[16] utilizationCountMissions 1
scalar OsgEarthNet.uav[16] utilizationCountManeuversMission 13
scalar OsgEarthNet.uav[16] utilizationCountManeuversMaintenance 2
scalar OsgEarthNet.uav[16] utilizationCountChargeState 1
scalar OsgEarthNet.uav[16] utilizationCountOverdrawnAfterMission 0
scalar OsgEarthNet.uav[16] utilizationCountIdleState 2
scalar OsgEarthNet.uav[16] utilizationFail 0
scalar OsgEarthNet.uav[16] simulationTime 259200
scalar OsgEarthNet.uav[17] utilizationSecMission 743.20678019818
scalar OsgEarthNet.uav[17] utilizationSecMaintenance 295.89994741134
scalar OsgEarthNet.uav[17] utilizationSecCharge 3900
scalar OsgEarthNet.uav[17] utilizationSecIdle 254260.89227239
scalar OsgEarthNet.uav[17] utilizationEnergyMission 3471.4105682373
scalar OsgEarthNet.uav[17] utilizationEnergyMaintenance 1486.9760971069
scalar OsgEarthNet.uav[17] utilizationEnergyCharge 4958.38671875
scalar OsgEarthNet.uav[17] utilizationEnergyOverdrawMission 0
scalar OsgEarthNet.uav[17] utilizationEnergyOverdrawMaintenance 0
scalar OsgEarthNet.uav[17] utilizationCountMissions 1
scalar OsgEarthNet.uav[17] utilizationCountManeuversMission 12
scalar OsgEarthNet.uav[17] utilizationCountManeuversMaintenance 2
scalar OsgEarthNet.uav[17] utilizationCountChargeState 1
scalar OsgEarthNet.uav[17] utilizationCountOverdrawnAfterMission 0
scalar OsgEarthNet.uav[17] utilizationCountIdleState 2
scalar OsgEarthNet.uav[17] utilizationFail 0
scalar OsgEarthNet.uav[17] simulationTime 259200
scalar OsgEarthNet.uav[18] utilizationSecMission 29989.375492062
scalar OsgEarthNet.uav[18] utilizationSecMaintenance 13536.661121799
scalar OsgEarthNet.uav[18] utilizationSecCharge 158824.78727573
scalar OsgEarthNet.uav[18] utilizationSecIdle 56849.175110411
scalar OsgEarthNet.uav[18] utilizationEnergyMission 138610.06465912
scalar OsgEarthNet.uav[18] utilizationEnergyMaintenance 63786.735061646
scalar OsgEarthNet.uav[18] utilizationEnergyCharge 198367.3807373
scalar OsgEarthNet.uav[18] utilizationEnergyOverdrawMission 0
scalar OsgEarthNet.uav[18] utilizationEnergyOverdrawMaintenance 0
scalar OsgEarthNet.uav[18] utilizationCountMissions 44
scalar OsgEarthNet.uav[18] utilizationCountManeuversMission 503
scalar OsgEarthNet.uav[18] utilizationCountManeuversMaintenance 88
scalar OsgEarthNet.uav[18] utilizationCountChargeState 44
scalar OsgEarthNet.uav[18] utilizationCountOverdrawnAfterMission 0
scalar OsgEarthNet.uav[18] utilizationCountIdleState 44
scalar OsgEarthNet.uav[18] utilizationFail 0
scalar OsgEarthNet.uav[18] simulationTime 259200
scalar OsgEarthNet.uav[19] utilizationSecMission 29320.836929617
scalar OsgEarthNet.uav[19] utilizationSecMaintenance 13026.775888317
scalar OsgEarthNet.uav[19] utilizationSecCharge 156280.38618207
scalar OsgEarthNet.uav[19] utilizationSecIdle 60572
scalar OsgEarthNet.uav[19] utilizationEnergyMission 134742.62878321
scalar OsgEarthNet.uav[19] utilizationEnergyMaintenance 61931.792114258
scalar OsgEarthNet.uav[19] utilizationEnergyCharge 195908.1184082
scalar OsgEarthNet.uav[19] utilizationEnergyOverdrawMission 0
scalar OsgEarthNet.uav[19] utilizationEnergyOverdrawMaintenance 0
scalar OsgEarthNet.uav[19] utilizationCountMissions 43
scalar OsgEarthNet.uav[19] utilizationCountManeuversMission 477
scalar OsgEarthNet.uav[19] utilizationCountManeuversMaintenance 85
scalar OsgEarthNet.uav[19] utilizationCountChargeState 43
scalar OsgEarthNet.uav[19] utilizationCountOverdrawnAfterMission 0
scalar OsgEarthNet.uav[19] utilizationCountIdleState 43
scalar OsgEarthNet.uav[19] utilizationFail 0
scalar OsgEarthNet.uav[19] simulationTime 259200
scalar OsgEarthNet.uav[20] utilizationSecMission 760.62515258028
scalar OsgEarthNet.uav[20] utilizationSecMaintenance 291.95923480269
scalar OsgEarthNet.uav[20] utilizationSecCharge 3740
scalar OsgEarthNet.uav[20] utilizationSecIdle 254407.41461262
scalar OsgEarthNet.uav[20] utilizationEnergyMission 3291.7153320313
scalar OsgEarthNet.uav[20] utilizationEnergyMaintenance 1409.6718978882
scalar OsgEarthNet.uav[20] utilizationEnergyCharge 4701.3837890625
scalar OsgEarthNet.uav[20] utilizationEnergyOverdrawMission 0
scalar OsgEarthNet.uav[20] utilizationEnergyOverdrawMaintenance 0
scalar OsgEarthNet.uav[20] utilizationCountMissions 1
scalar OsgEarthNet.uav[20] utilizationCountManeuversMission 12
scalar OsgEarthNet.uav[20] utilizationCountManeuversMaintenance 2
scalar OsgEarthNet.uav[20] utilizationCountChargeState 1
scalar OsgEarthNet.uav[20] utilizationCountOverdrawnAfterMission 0
scalar OsgEarthNet.uav[20] utilizationCountIdleState 2
scalar OsgEarthNet.uav[20] utilizationFail 0
scalar OsgEarthNet.uav[20] simulationTime 259200
scalar OsgEarthNet.uav[21] utilizationSecMission 27448.742137276
scalar OsgEarthNet.uav[21] utilizationSecMaintenance 13128.893490182
scalar OsgEarthNet.uav[21] utilizationSecCharge 147865.99399663
scalar OsgEarthNet.uav[21] utilizationSecIdle 70756.369375911
scalar OsgEarthNet.uav[21] utilizationEnergyMission 125610.53595352
scalar OsgEarthNet.uav[21] utilizationEnergyMaintenance 61325.552787781
scalar OsgEarthNet.uav[21] utilizationEnergyCharge 184864.54614258
scalar OsgEarthNet.uav[21] utilizationEnergyOverdrawMission 0
scalar OsgEarthNet.uav[21] utilizationEnergyOverdrawMaintenance 0
scalar OsgEarthNet.uav[21] utilizationCountMissions 41
scalar OsgEarthNet.uav[21] utilizationCountManeuversMission 444
scalar OsgEarthNet.uav[21] utilizationCountManeuversMaintenance 82
scalar OsgEarthNet.uav[21] utilizationCountChargeState 41
scalar OsgEarthNet.uav[21] utilizationCountOverdrawnAfterMission 0
scalar OsgEarthNet.uav[21] utilizationCountIdleState 41
scalar OsgEarthNet.uav[21] utilizationFail 0
scalar OsgEarthNet.uav[21] simulationTime 259200
scalar OsgEarthNet.uav[22] utilizationSecMission 694.00169469977
scalar OsgEarthNet.uav[22] utilizationSecMaintenance 282.18572599206
scalar OsgEarthNet.uav[22] utilizationSecCharge 3580
scalar OsgEarthNet.uav[22] utilizationSecIdle 254643.81157931
scalar OsgEarthNet.uav[22] utilizationEnergyMission 3180.8717269897
scalar OsgEarthNet.uav[22] utilizationEnergyMaintenance 1260.9504013062
scalar OsgEarthNet.uav[22] utilizationEnergyCharge 4441.8237304688
scalar OsgEarthNet.uav[22] utilizationEnergyOverdrawMission 0
scalar OsgEarthNet.uav[22] utilizationEnergyOverdrawMaintenance 0
scalar OsgEarthNet.uav[22] utilizationCountMissions 1
scalar OsgEarthNet.uav[22] utilizationCountManeuversMission 13
scalar OsgEarthNet.uav[22] utilizationCountManeuversMaintenance 2
scalar OsgEarthNet.uav[22] utilizationCountChargeState 1
scalar OsgEarthNet.uav[22] utilizationCountOverdrawnAfterMission 0
scalar OsgEarthNet.uav[22] utilizationCountIdleState 2
scalar OsgEarthNet.uav[22] utilizationFail 0
scalar OsgEarthNet.uav[22] simulationTime 259200
scalar OsgEarthNet.uav[23] utilizationSecMission 27795.78668464
scalar OsgEarthNet.uav[23] utilizationSecMaintenance 12878.105040319
scalar OsgEarthNet.uav[23] utilizationSecCharge 152105.53785415
scalar OsgEarthNet.uav[23] utilizationSecIdle 66420.569420895
scalar OsgEarthNet.uav[23] utilizationEnergyMission 128754.64657593
scalar OsgEarthNet.uav[23] utilizationEnergyMaintenance 60797.21282196
scalar OsgEarthNet.uav[23] utilizationEnergyCharge 189716.2590332
scalar OsgEarthNet.uav[23] utilizationEnergyOverdrawMission 0
scalar OsgEarthNet.uav[23] utilizationEnergyOverdrawMaintenance 0
scalar OsgEarthNet.uav[23] utilizationCountMissions 42
scalar OsgEarthNet.uav[23] utilizationCountManeuversMission 446
scalar OsgEarthNet.uav[23] utilizationCountManeuversMaintenance 84
scalar OsgEarthNet.uav[23] utilizationCountChargeState 42
scalar OsgEarthNet.uav[23] utilizationCountOverdrawnAfterMission 0
scalar OsgEarthNet.uav[23] utilizationCountIdleState 42
scalar OsgEarthNet.uav[23] utilizationFail 0
scalar OsgEarthNet.uav[23] simulationTime 259200
scalar OsgEarthNet.uav[24] utilizationSecMission 28197.493147718
scalar OsgEarthNet.uav[24] utilizationSecMaintenance 14497.802152021
scalar OsgEarthNet.uav[24] utilizationSecCharge 157400
scalar OsgEarthNet.uav[24] utilizationSecIdle 59104.703700261
scalar OsgEarthNet.uav[24] utilizationEnergyMission 131807.78081993
scalar OsgEarthNet.uav[24] utilizationEnergyMaintenance 67254.898635864
scalar OsgEarthNet.uav[24] utilizationEnergyCharge 195816.95532227
scalar OsgEarthNet.uav[24] utilizationEnergyOverdrawMission 0
scalar OsgEarthNet.uav[24] utilizationEnergyOverdrawMaintenance 0
scalar OsgEarthNet.uav[24] utilizationCountMissions 43
scalar OsgEarthNet.uav[24] utilizationCountManeuversMission 477
scalar OsgEarthNet.uav[24] utilizationCountManeuversMaintenance 87
scalar OsgEarthNet.uav[24] utilizationCountChargeState 43
scalar OsgEarthNet.uav[24] utilizationCountOverdrawnAfterMission 0
scalar OsgEarthNet.uav[24] utilizationCountIdleState 44
scalar OsgEarthNet.uav[24] utilizationFail 0
scalar OsgEarthNet.uav[24] simulationTime 259200
scalar OsgEarthNet.uav[25] utilizationSecMission 6327.5507884992
scalar OsgEarthNet.uav[25] utilizationSecMaintenance 1766.1416497547
scalar OsgEarthNet.uav[25] utilizationSecCharge 29980
scalar OsgEarthNet.uav[25] utilizationSecIdle 221126.30656175
scalar OsgEarthNet.uav[25] utilizationEnergyMission 29062.455215454
scalar OsgEarthNet.uav[25] utilizationEnergyMaintenance 8332.572265625
scalar OsgEarthNet.uav[25] utilizationEnergyCharge 37688.552734375
scalar OsgEarthNet.uav[25] utilizationEnergyOverdrawMission 0
scalar OsgEarthNet.uav[25] utilizationEnergyOverdrawMaintenance 0
scalar OsgEarthNet.uav[25] utilizationCountMissions 8
scalar OsgEarthNet.uav[25] utilizationCountManeuversMission 99
scalar OsgEarthNet.uav[25] utilizationCountManeuversMaintenance 16
scalar OsgEarthNet.uav[25] utilizationCountChargeState 8
scalar OsgEarthNet.uav[25] utilizationCountOverdrawnAfterMission 0
scalar OsgEarthNet.uav[25] utilizationCountIdleState 9
scalar OsgEarthNet.uav[25] utilizationFail 0
scalar OsgEarthNet.uav[25] simulationTime 259200
scalar OsgEarthNet.uav[26] utilizationSecMission 494.14522745751
scalar OsgEarthNet.uav[26] utilizationSecMaintenance 436.27552778827
scalar OsgEarthNet.uav[26] utilizationSecCharge 3670
scalar OsgEarthNet.uav[26] utilizationSecIdle 254599.57824475
scalar OsgEarthNet.uav[26] utilizationEnergyMission 2198.3911132812
scalar OsgEarthNet.uav[26] utilizationEnergyMaintenance 2189.5703544617
scalar OsgEarthNet.uav[26] utilizationEnergyCharge 4537.7802734375
scalar OsgEarthNet.uav[26] utilizationEnergyOverdrawMission 0
scalar OsgEarthNet.uav[26] utilizationEnergyOverdrawMaintenance 0
scalar OsgEarthNet.uav[26] utilizationCountMissions 1
scalar OsgEarthNet.uav[26] utilizationCountManeuversMission 8
scalar OsgEarthNet.uav[26] utilizationCountManeuversMaintenance 2
scalar OsgEarthNet.uav[26] utilizationCountChargeState 1
scalar OsgEarthNet.uav[26] utilizationCountOverdrawnAfterMission 0
scalar OsgEarthNet.uav[26] utilizationCountIdleState 2
scalar OsgEarthNet.uav[26] utilizationFail 0
scalar OsgEarthNet.uav[26] simulationTime 259200
scalar OsgEarthNet.uav[27] utilizationSecMission 454.19906291044
scalar OsgEarthNet.uav[27] utilizationSecMaintenance 531.61543982806
scalar OsgEarthNet.uav[27] utilizationSecCharge 3810
scalar OsgEarthNet.uav[27] utilizationSecIdle 254404.18449726
scalar OsgEarthNet.uav[27] utilizationEnergyMission 2330.1228485107
scalar OsgEarthNet.uav[27] utilizationEnergyMaintenance 2455.5310287476
scalar OsgEarthNet.uav[27] utilizationEnergyCharge 4785.6596679688
scalar OsgEarthNet.uav[27] utilizationEnergyOverdrawMission 0
scalar OsgEarthNet.uav[27] utilizationEnergyOverdrawMaintenance 0
scalar OsgEarthNet.uav[27] utilizationCountMissions 1
scalar OsgEarthNet.uav[27] utilizationCountManeuversMission 8
scalar OsgEarthNet.uav[27] utilizationCountManeuversMaintenance 2
scalar OsgEarthNet.uav[27] utilizationCountChargeState 1
scalar OsgEarthNet.uav[27] utilizationCountOverdrawnAfterMission 0
scalar OsgEarthNet.uav[27] utilizationCountIdleState 2
scalar OsgEarthNet.uav[27] utilizationFail 0
scalar OsgEarthNet.uav[27] simulationTime 259200
scalar OsgEarthNet.uav[28] utilizationSecMission 887.1741082606
scalar OsgEarthNet.uav[28] utilizationSecMaintenance 148.2728194454
scalar OsgEarthNet.uav[28] utilizationSecCharge 3890
scalar OsgEarthNet.uav[28] utilizationSecIdle 254274.55207229
scalar OsgEarthNet.uav[28] utilizationEnergyMission 4116.2154083252
scalar OsgEarthNet.uav[28] utilizationEnergyMaintenance 814.59938812256
scalar OsgEarthNet.uav[28] utilizationEnergyCharge 4959.1245117188
scalar OsgEarthNet.uav[28] utilizationEnergyOverdrawMission 0
scalar OsgEarthNet.uav[28] utilizationEnergyOverdrawMaintenance 0
scalar OsgEarthNet.uav[28] utilizationCountMissions 1
scalar OsgEarthNet.uav[28] utilizationCountManeuversMission 14
scalar OsgEarthNet.uav[28] utilizationCountManeuversMaintenance 2
scalar OsgEarthNet.uav[28] utilizationCountChargeState 1
scalar OsgEarthNet.uav[28] utilizationCountOverdrawnAfterMission 0
scalar OsgEarthNet.uav[28] utilizationCountIdleState 2
scalar OsgEarthNet.uav[28] utilizationFail 0
scalar OsgEarthNet.uav[28] simulationTime 259200
scalar OsgEarthNet.uav[29] utilizationSecMission 760.62515258028
scalar OsgEarthNet.uav[29] utilizationSecMaintenance 291.95923480269
scalar OsgEarthNet.uav[29] utilizationSecCharge 3930
scalar OsgEarthNet.uav[29] utilizationSecIdle 254217.41461262
scalar OsgEarthNet.uav[29] utilizationEnergyMission 3486.9784698486
scalar OsgEarthNet.uav[29] utilizationEnergyMaintenance 1498.5777816772
scalar OsgEarthNet.uav[29] utilizationEnergyCharge 4985.560546875
scalar OsgEarthNet.uav[29] utilizationEnergyOverdrawMission 0
scalar OsgEarthNet.uav[29] utilizationEnergyOverdrawMaintenance 0
scalar OsgEarthNet.uav[29] utilizationCountMissions 1
scalar OsgEarthNet.uav[29] utilizationCountManeuversMission 12
scalar OsgEarthNet.uav[29] utilizationCountManeuversMaintenance 2
scalar OsgEarthNet.uav[29] utilizationCountChargeState 1
scalar OsgEarthNet.uav[29] utilizationCountOverdrawnAfterMission 0
scalar OsgEarthNet.uav[29] utilizationCountIdleState 2
scalar OsgEarthNet.uav[29] utilizationFail 0
scalar OsgEarthNet.uav[29] simulationTime 259200
scalar OsgEarthNet.uav[30] utilizationSecMission 1445.0983825186
scalar OsgEarthNet.uav[30] utilizationSecMaintenance 486.81533472578
scalar OsgEarthNet.uav[30] utilizationSecCharge 7250
scalar OsgEarthNet.uav[30] utilizationSecIdle 250018.08528276
scalar OsgEarthNet.uav[30] utilizationEnergyMission 6636.9212722778
scalar OsgEarthNet.uav[30] utilizationEnergyMaintenance 2371.7026405334
scalar OsgEarthNet.uav[30] utilizationEnergyCharge 9008.6235351562
scalar OsgEarthNet.uav[30] utilizationEnergyOverdrawMission 0
scalar OsgEarthNet.uav[30] utilizationEnergyOverdrawMaintenance 0
scalar OsgEarthNet.uav[30] utilizationCountMissions 2
scalar OsgEarthNet.uav[30] utilizationCountManeuversMission 23
scalar OsgEarthNet.uav[30] utilizationCountManeuversMaintenance 4
scalar OsgEarthNet.uav[30] utilizationCountChargeState 2
scalar OsgEarthNet.uav[30] utilizationCountOverdrawnAfterMission 0
scalar OsgEarthNet.uav[30] utilizationCountIdleState 3
scalar OsgEarthNet.uav[30] utilizationFail 0
scalar OsgEarthNet.uav[30] simulationTime 259200
scalar OsgEarthNet.uav[31] utilizationSecMission 26502.252327035
scalar OsgEarthNet.uav[31] utilizationSecMaintenance 14376.404937604
scalar OsgEarthNet.uav[31] utilizationSecCharge 150373.9348384
scalar OsgEarthNet.uav[31] utilizationSecIdle 67947.406896959
scalar OsgEarthNet.uav[31] utilizationEnergyMission 122679.5018158
scalar OsgEarthNet.uav[31] utilizationEnergyMaintenance 68279.628223419
scalar OsgEarthNet.uav[31] utilizationEnergyCharge 187744.62109375
scalar OsgEarthNet.uav[31] utilizationEnergyOverdrawMission 0
scalar OsgEarthNet.uav[31] utilizationEnergyOverdrawMaintenance 0
scalar OsgEarthNet.uav[31] utilizationCountMissions 42
scalar OsgEarthNet.uav[31] utilizationCountManeuversMission 442
scalar OsgEarthNet.uav[31] utilizationCountManeuversMaintenance 84
scalar OsgEarthNet.uav[31] utilizationCountChargeState 42
scalar OsgEarthNet.uav[31] utilizationCountOverdrawnAfterMission 0
scalar OsgEarthNet.uav[31] utilizationCountIdleState 42
scalar OsgEarthNet.uav[31] utilizationFail 0
scalar OsgEarthNet.uav[31] simulationTime 259200
scalar OsgEarthNet.uav[32] utilizationSecMission 30532.13994093
scalar OsgEarthNet.uav[32] utilizationSecMaintenance 14849.58720947
scalar OsgEarthNet.uav[32] utilizationSecCharge 163766.2718496
scalar OsgEarthNet.uav[32] utilizationSecIdle 50052
scalar OsgEarthNet.uav[32] utilizationEnergyMission 141378.06908133
scalar OsgEarthNet.uav[32] utilizationEnergyMaintenance 67830.874015808
scalar OsgEarthNet.uav[32] utilizationEnergyCharge 205416.75146484
scalar OsgEarthNet.uav[32] utilizationEnergyOverdrawMission 0
scalar OsgEarthNet.uav[32] utilizationEnergyOverdrawMaintenance 0
scalar OsgEarthNet.uav[32] utilizationCountMissions 45
scalar OsgEarthNet.uav[32] utilizationCountManeuversMission 501
scalar OsgEarthNet.uav[32] utilizationCountManeuversMaintenance 89
scalar OsgEarthNet.uav[32] utilizationCountChargeState 45
scalar OsgEarthNet.uav[32] utilizationCountOverdrawnAfterMission 0
scalar OsgEarthNet.uav[32] utilizationCountIdleState 45
scalar OsgEarthNet.uav[32] utilizationFail 0
scalar OsgEarthNet.uav[32] simulationTime 259200
scalar OsgEarthNet.uav[33] utilizationSecMission 760.62515258028
scalar OsgEarthNet.uav[33] utilizationSecMaintenance 291.95923480269
scalar OsgEarthNet.uav[33] utilizationSecCharge 3880
scalar OsgEarthNet.uav[33] utilizationSecIdle 254267.41461262
scalar OsgEarthNet.uav[33] utilizationEnergyMission 3481.7099456787
scalar OsgEarthNet.uav[33] utilizationEnergyMaintenance 1447.7268295288
scalar OsgEarthNet.uav[33] utilizationEnergyCharge 4929.4379882812
scalar OsgEarthNet.uav[33] utilizationEnergyOverdrawMission 0
scalar OsgEarthNet.uav[33] utilizationEnergyOverdrawMaintenance 0
scalar OsgEarthNet.uav[33] utilizationCountMissions 1
scalar OsgEarthNet.uav[33] utilizationCountManeuversMission 12
scalar OsgEarthNet.uav[33] utilizationCountManeuversMaintenance 2
scalar OsgEarthNet.uav[33] utilizationCountChargeState 1
scalar OsgEarthNet.uav[33] utilizationCountOverdrawnAfterMission 0
scalar OsgEarthNet.uav[33] utilizationCountIdleState 2
scalar OsgEarthNet.uav[33] utilizationFail 0
scalar OsgEarthNet.uav[33] simulationTime 259200
scalar OsgEarthNet.uav[34] utilizationSecMission 26926.737754377
scalar OsgEarthNet.uav[34] utilizationSecMaintenance 13553.120234036
scalar OsgEarthNet.uav[34] utilizationSecCharge 147679.36199849
scalar OsgEarthNet.uav[34] utilizationSecIdle 71040.779013101
scalar OsgEarthNet.uav[34] utilizationEnergyMission 124331.69978714
scalar OsgEarthNet.uav[34] utilizationEnergyMaintenance 63046.763256073
scalar OsgEarthNet.uav[34] utilizationEnergyCharge 184770.00244141
scalar OsgEarthNet.uav[34] utilizationEnergyOverdrawMission 0
scalar OsgEarthNet.uav[34] utilizationEnergyOverdrawMaintenance 0
scalar OsgEarthNet.uav[34] utilizationCountMissions 41
scalar OsgEarthNet.uav[34] utilizationCountManeuversMission 451
scalar OsgEarthNet.uav[34] utilizationCountManeuversMaintenance 82
scalar OsgEarthNet.uav[34] utilizationCountChargeState 41
scalar OsgEarthNet.uav[34] utilizationCountOverdrawnAfterMission 0
scalar OsgEarthNet.uav[34] utilizationCountIdleState 41
scalar OsgEarthNet.uav[34] utilizationFail 0
scalar OsgEarthNet.uav[34] simulationTime 259200
scalar OsgEarthNet.uav[35] utilizationSecMission 621.17604176187
scalar OsgEarthNet.uav[35] utilizationSecMaintenance 313.76167006775
scalar OsgEarthNet.uav[35] utilizationSecCharge 3680
scalar OsgEarthNet.uav[35] utilizationSecIdle 254585.06128817
scalar OsgEarthNet.uav[35] utilizationEnergyMission 3122.5362548828
scalar OsgEarthNet.uav[35] utilizationEnergyMaintenance 1473.5854606628
scalar OsgEarthNet.uav[35] utilizationEnergyCharge 4596.12109375
scalar OsgEarthNet.uav[35] utilizationEnergyOverdrawMission 0
scalar OsgEarthNet.uav[35] utilizationEnergyOverdrawMaintenance 0
scalar OsgEarthNet.uav[35] utilizationCountMissions 1
scalar OsgEarthNet.uav[35] utilizationCountManeuversMission 12
scalar OsgEarthNet.uav[35] utilizationCountManeuversMaintenance 2
scalar OsgEarthNet.uav[35] utilizationCountChargeState 1
scalar OsgEarthNet.uav[35] utilizationCountOverdrawnAfterMission 0
scalar OsgEarthNet.uav[35] utilizationCountIdleState 2
scalar OsgEarthNet.uav[35] utilizationFail 0
scalar OsgEarthNet.uav[35] simulationTime 259200
scalar OsgEarthNet.uav[36] utilizationSecMission 760.62515258028
scalar OsgEarthNet.uav[36] utilizationSecMaintenance 291.95923480269
scalar OsgEarthNet.uav[36] utilizationSecCharge 3750
scalar OsgEarthNet.uav[36] utilizationSecIdle 254397.41461262
scalar OsgEarthNet.uav[36] utilizationEnergyMission 3386.724899292
scalar OsgEarthNet.uav[36] utilizationEnergyMaintenance 1340.8171615601
scalar OsgEarthNet.uav[36] utilizationEnergyCharge 4727.5439453125
scalar OsgEarthNet.uav[36] utilizationEnergyOverdrawMission 0
scalar OsgEarthNet.uav[36] utilizationEnergyOverdrawMaintenance 0
scalar OsgEarthNet.uav[36] utilizationCountMissions 1
scalar OsgEarthNet.uav[36] utilizationCountManeuversMission 12
scalar OsgEarthNet.uav[36] utilizationCountManeuversMaintenance 2
scalar OsgEarthNet.uav[36] utilizationCountChargeState 1
scalar OsgEarthNet.uav[36] utilizationCountOverdrawnAfterMission 0
scalar OsgEarthNet.uav[36] utilizationCountIdleState 2
scalar OsgEarthNet.uav[36] utilizationFail 0
scalar OsgEarthNet.uav[36] simulationTime 259200
scalar OsgEarthNet.uav[37] utilizationSecMission 27913.275726897
scalar OsgEarthNet.uav[37] utilizationSecMaintenance 13533.949663422
scalar OsgEarthNet.uav[37] utilizationSecCharge 150290
scalar OsgEarthNet.uav[37] utilizationSecIdle 67462.773609681
scalar OsgEarthNet.uav[37] utilizationEnergyMission 128468.00642387
scalar OsgEarthNet.uav[37] utilizationEnergyMaintenance 63230.995372772
scalar OsgEarthNet.uav[37] utilizationEnergyCharge 187714.12011719
scalar OsgEarthNet.uav[37] utilizationEnergyOverdrawMission 0
scalar OsgEarthNet.uav[37] utilizationEnergyOverdrawMaintenance 0
scalar OsgEarthNet.uav[37] utilizationCountMissions 41
scalar OsgEarthNet.uav[37] utilizationCountManeuversMission 458
scalar OsgEarthNet.uav[37] utilizationCountManeuversMaintenance 83
scalar OsgEarthNet.uav[37] utilizationCountChargeState 41
scalar OsgEarthNet.uav[37] utilizationCountOverdrawnAfterMission 0
scalar OsgEarthNet.uav[37] utilizationCountIdleState 42
scalar OsgEarthNet.uav[37] utilizationFail 0
scalar OsgEarthNet.uav[37] simulationTime 259200
scalar OsgEarthNet.uav[38] utilizationSecMission 27768.345492549
scalar OsgEarthNet.uav[38] utilizationSecMaintenance 10731.579640077
scalar OsgEarthNet.uav[38] utilizationSecCharge 140960
scalar OsgEarthNet.uav[38] utilizationSecIdle 79740.073867374
scalar OsgEarthNet.uav[38] utilizationEnergyMission 126477.68914413
scalar OsgEarthNet.uav[38] utilizationEnergyMaintenance 50191.595252991
scalar OsgEarthNet.uav[38] utilizationEnergyCharge 176517.34033203
scalar OsgEarthNet.uav[38] utilizationEnergyOverdrawMission 0
scalar OsgEarthNet.uav[38] utilizationEnergyOverdrawMaintenance 0
scalar OsgEarthNet.uav[38] utilizationCountMissions 38
scalar OsgEarthNet.uav[38] utilizationCountManeuversMission 431
scalar OsgEarthNet.uav[38] utilizationCountManeuversMaintenance 76
scalar OsgEarthNet.uav[38] utilizationCountChargeState 38
scalar OsgEarthNet.uav[38] utilizationCountOverdrawnAfterMission 0
scalar OsgEarthNet.uav[38] utilizationCountIdleState 39
scalar OsgEarthNet.uav[38] utilizationFail 0
scalar OsgEarthNet.uav[38] simulationTime 259200
scalar OsgEarthNet.uav[39] utilizationSecMission 702.6942798579
scalar OsgEarthNet.uav[39] utilizationSecMaintenance 282.29565405678
scalar OsgEarthNet.uav[39] utilizationSecCharge 3680
scalar OsgEarthNet.uav[39] utilizationSecIdle 254535.00906609
scalar OsgEarthNet.uav[39] utilizationEnergyMission 3207.8454284668
scalar OsgEarthNet.uav[39] utilizationEnergyMaintenance 1389.3884391785
scalar OsgEarthNet.uav[39] utilizationEnergyCharge 4597.2333984375
scalar OsgEarthNet.uav[39] utilizationEnergyOverdrawMission 0
scalar OsgEarthNet.uav[39] utilizationEnergyOverdrawMaintenance 0
scalar OsgEarthNet.uav[39] utilizationCountMissions 1
scalar OsgEarthNet.uav[39] utilizationCountManeuversMission 10
scalar OsgEarthNet.uav[39] utilizationCountManeuversMaintenance 2
scalar OsgEarthNet.uav[39] utilizationCountChargeState 1
scalar OsgEarthNet.uav[39] utilizationCountOverdrawnAfterMission 0
scalar OsgEarthNet.uav[39] utilizationCountIdleState 2
scalar OsgEarthNet.uav[39] utilizationFail 0
scalar OsgEarthNet.uav[39] simulationTime 259200
scalar OsgEarthNet.uav[40] utilizationSecMission 30238.885434802
scalar OsgEarthNet.uav[40] utilizationSecMaintenance 16018.153547702
scalar OsgEarthNet.uav[40] utilizationSecCharge 169710.9600175
scalar OsgEarthNet.uav[40] utilizationSecIdle 43232
scalar OsgEarthNet.uav[40] utilizationEnergyMission 140153.43912888
scalar OsgEarthNet.uav[40] utilizationEnergyMaintenance 74207.387779236
scalar OsgEarthNet.uav[40] utilizationEnergyCharge 213612.58862305
scalar OsgEarthNet.uav[40] utilizationEnergyOverdrawMission 0
scalar OsgEarthNet.uav[40] utilizationEnergyOverdrawMaintenance 0
scalar OsgEarthNet.uav[40] utilizationCountMissions 46
scalar OsgEarthNet.uav[40] utilizationCountManeuversMission 483
scalar OsgEarthNet.uav[40] utilizationCountManeuversMaintenance 91
scalar OsgEarthNet.uav[40] utilizationCountChargeState 46
scalar OsgEarthNet.uav[40] utilizationCountOverdrawnAfterMission 0
scalar OsgEarthNet.uav[40] utilizationCountIdleState 46
scalar OsgEarthNet.uav[40] utilizationFail 0
scalar OsgEarthNet.uav[40] simulationTime 259200
scalar OsgEarthNet.uav[41] utilizationSecMission 27788.861638916
scalar OsgEarthNet.uav[41] utilizationSecMaintenance 14436.162579891
scalar OsgEarthNet.uav[41] utilizationSecCharge 154419.23968361
scalar OsgEarthNet.uav[41] utilizationSecIdle 62555.735097584
scalar OsgEarthNet.uav[41] utilizationEnergyMission 129805.43608093
scalar OsgEarthNet.uav[41] utilizationEnergyMaintenance 67782.460758209
scalar OsgEarthNet.uav[41] utilizationEnergyCharge 192662.24227905
scalar OsgEarthNet.uav[41] utilizationEnergyOverdrawMission 0
scalar OsgEarthNet.uav[41] utilizationEnergyOverdrawMaintenance 0
scalar OsgEarthNet.uav[41] utilizationCountMissions 43
scalar OsgEarthNet.uav[41] utilizationCountManeuversMission 457
scalar OsgEarthNet.uav[41] utilizationCountManeuversMaintenance 86
scalar OsgEarthNet.uav[41] utilizationCountChargeState 43
scalar OsgEarthNet.uav[41] utilizationCountOverdrawnAfterMission 0
scalar OsgEarthNet.uav[41] utilizationCountIdleState 43
scalar OsgEarthNet.uav[41] utilizationFail 0
scalar OsgEarthNet.uav[41] simulationTime 259200
scalar OsgEarthNet.uav[42] utilizationSecMission 750.20472747826
scalar OsgEarthNet.uav[42] utilizationSecMaintenance 300.8347882699
scalar OsgEarthNet.uav[42] utilizationSecCharge 3820
scalar OsgEarthNet.uav[42] utilizationSecIdle 254328.95948425
scalar OsgEarthNet.uav[42] utilizationEnergyMission 3392.1094665527
scalar OsgEarthNet.uav[42] utilizationEnergyMaintenance 1422.4537467957
scalar OsgEarthNet.uav[42] utilizationEnergyCharge 4814.5639648438
scalar OsgEarthNet.uav[42] utilizationEnergyOverdrawMission 0
scalar OsgEarthNet.uav[42] utilizationEnergyOverdrawMaintenance 0
scalar OsgEarthNet.uav[42] utilizationCountMissions 1
scalar OsgEarthNet.uav[42] utilizationCountManeuversMission 11
scalar OsgEarthNet.uav[42] utilizationCountManeuversMaintenance 2
scalar OsgEarthNet.uav[42] utilizationCountChargeState 1
scalar OsgEarthNet.uav[42] utilizationCountOverdrawnAfterMission 0
scalar OsgEarthNet.uav[42] utilizationCountIdleState 2
scalar OsgEarthNet.uav[42] utilizationFail 0
scalar OsgEarthNet.uav[42] simulationTime 259200
scalar OsgEarthNet.uav[43] utilizationSecMission 760.62515258028
scalar OsgEarthNet.uav[43] utilizationSecMaintenance 291.95923480269
scalar OsgEarthNet.uav[43] utilizationSecCharge 3910
scalar OsgEarthNet.uav[43] utilizationSecIdle 254237.41461262
scalar OsgEarthNet.uav[43] utilizationEnergyMission 3503.9629821777
scalar OsgEarthNet.uav[43] utilizationEnergyMaintenance 1448.1599349976
scalar OsgEarthNet.uav[43] utilizationEnergyCharge 4952.123046875
scalar OsgEarthNet.uav[43] utilizationEnergyOverdrawMission 0
scalar OsgEarthNet.uav[43] utilizationEnergyOverdrawMaintenance 0
scalar OsgEarthNet.uav[43] utilizationCountMissions 1
scalar OsgEarthNet.uav[43] utilizationCountManeuversMission 12
scalar OsgEarthNet.uav[43] utilizationCountManeuversMaintenance 2
scalar OsgEarthNet.uav[43] utilizationCountChargeState 1
scalar OsgEarthNet.uav[43] utilizationCountOverdrawnAfterMission 0
scalar OsgEarthNet.uav[43] utilizationCountIdleState 2
scalar OsgEarthNet.uav[43] utilizationFail 0
scalar OsgEarthNet.uav[43] simulationTime 259200
scalar OsgEarthNet.uav[44] utilizationSecMission 28352.990742424
scalar OsgEarthNet.uav[44] utilizationSecMaintenance 14235.325773516
scalar OsgEarthNet.uav[44] utilizationSecCharge 155202.91157609
scalar OsgEarthNet.uav[44] utilizationSecIdle 61408.770907971
scalar OsgEarthNet.uav[44] utilizationEnergyMission 129619.78279495
scalar OsgEarthNet.uav[44] utilizationEnergyMaintenance 65568.495731354
scalar OsgEarthNet.uav[44] utilizationEnergyCharge 194098.75561523
scalar OsgEarthNet.uav[44] utilizationEnergyOverdrawMission 0
scalar OsgEarthNet.uav[44] utilizationEnergyOverdrawMaintenance 0
scalar OsgEarthNet.uav[44] utilizationCountMissions 43
scalar OsgEarthNet.uav[44] utilizationCountManeuversMission 468
scalar OsgEarthNet.uav[44] utilizationCountManeuversMaintenance 86
scalar OsgEarthNet.uav[44] utilizationCountChargeState 43
scalar OsgEarthNet.uav[44] utilizationCountOverdrawnAfterMission 0
scalar OsgEarthNet.uav[44] utilizationCountIdleState 43
scalar OsgEarthNet.uav[44] utilizationFail 0
scalar OsgEarthNet.uav[44] simulationTime 259200
scalar OsgEarthNet.uav[45] utilizationSecMission 30618.342749243
scalar OsgEarthNet.uav[45] utilizationSecMaintenance 12242.860249268
scalar OsgEarthNet.uav[45] utilizationSecCharge 158420
scalar OsgEarthNet.uav[45] utilizationSecIdle 57918.796001489
scalar OsgEarthNet.uav[45] utilizationEnergyMission 141440.92185211
scalar OsgEarthNet.uav[45] utilizationEnergyMaintenance 57659.436405182
scalar OsgEarthNet.uav[45] utilizationEnergyCharge 198033.34545898
scalar OsgEarthNet.uav[45] utilizationEnergyOverdrawMission 0
scalar OsgEarthNet.uav[45] utilizationEnergyOverdrawMaintenance 0
scalar OsgEarthNet.uav[45] utilizationCountMissions 43
scalar OsgEarthNet.uav[45] utilizationCountManeuversMission 486
scalar OsgEarthNet.uav[45] utilizationCountManeuversMaintenance 86
scalar OsgEarthNet.uav[45] utilizationCountChargeState 43
scalar OsgEarthNet.uav[45] utilizationCountOverdrawnAfterMission 0
scalar OsgEarthNet.uav[45] utilizationCountIdleState 44
scalar OsgEarthNet.uav[45] utilizationFail 0
scalar OsgEarthNet.uav[45] simulationTime 259200
scalar OsgEarthNet.uav[46] utilizationSecMission 702.6942798579
scalar OsgEarthNet.uav[46] utilizationSecMaintenance 282.29565405678
scalar OsgEarthNet.uav[46] utilizationSecCharge 3570
scalar OsgEarthNet.uav[46] utilizationSecIdle 254645.00906609
scalar OsgEarthNet.uav[46] utilizationEnergyMission 3059.9199371338
scalar OsgEarthNet.uav[46] utilizationEnergyMaintenance 1363.1306266785
scalar OsgEarthNet.uav[46] utilizationEnergyCharge 4423.048828125
scalar OsgEarthNet.uav[46] utilizationEnergyOverdrawMission 0
scalar OsgEarthNet.uav[46] utilizationEnergyOverdrawMaintenance 0
scalar OsgEarthNet.uav[46] utilizationCountMissions 1
scalar OsgEarthNet.uav[46] utilizationCountManeuversMission 10
scalar OsgEarthNet.uav[46] utilizationCountManeuversMaintenance 2
scalar OsgEarthNet.uav[46] utilizationCountChargeState 1
scalar OsgEarthNet.uav[46] utilizationCountOverdrawnAfterMission 0
scalar OsgEarthNet.uav[46] utilizationCountIdleState 2
scalar OsgEarthNet.uav[46] utilizationFail 0
scalar OsgEarthNet.uav[46] simulationTime 259200
scalar OsgEarthNet.uav[47] utilizationSecMission 29061.450819117
scalar OsgEarthNet.uav[47] utilizationSecMaintenance 13626.049651893
scalar OsgEarthNet.uav[47] utilizationSecCharge 158600
scalar OsgEarthNet.uav[47] utilizationSecIdle 57912.49852899
scalar OsgEarthNet.uav[47] utilizationEnergyMission 133743.15076447
scalar OsgEarthNet.uav[47] utilizationEnergyMaintenance 64382.717594147
scalar OsgEarthNet.uav[47] utilizationEnergyCharge 198249.62548828
scalar OsgEarthNet.uav[47] utilizationEnergyOverdrawMission 0
scalar OsgEarthNet.uav[47] utilizationEnergyOverdrawMaintenance 0
scalar OsgEarthNet.uav[47] utilizationCountMissions 43
scalar OsgEarthNet.uav[47] utilizationCountManeuversMission 476
scalar OsgEarthNet.uav[47] utilizationCountManeuversMaintenance 86
scalar OsgEarthNet.uav[47] utilizationCountChargeState 43
scalar OsgEarthNet.uav[47] utilizationCountOverdrawnAfterMission 0
scalar OsgEarthNet.uav[47] utilizationCountIdleState 44
scalar OsgEarthNet.uav[47] utilizationFail 0
scalar OsgEarthNet.uav[47] simulationTime 259200
scalar OsgEarthNet.uav[48] utilizationSecMission 24951.20009166
scalar OsgEarthNet.uav[48] utilizationSecMaintenance 10786.414710893
scalar OsgEarthNet.uav[48] utilizationSecCharge 132510
scalar OsgEarthNet.uav[48] utilizationSecIdle 90952.384197447
scalar OsgEarthNet.uav[48] utilizationEnergyMission 115324.58563232
scalar OsgEarthNet.uav[48] utilizationEnergyMaintenance 50809.149200439
scalar OsgEarthNet.uav[48] utilizationEnergyCharge 165323.12255859
scalar OsgEarthNet.uav[48] utilizationEnergyOverdrawMission 0
scalar OsgEarthNet.uav[48] utilizationEnergyOverdrawMaintenance 0
scalar OsgEarthNet.uav[48] utilizationCountMissions 36
scalar OsgEarthNet.uav[48] utilizationCountManeuversMission 418
scalar OsgEarthNet.uav[48] utilizationCountManeuversMaintenance 72
scalar OsgEarthNet.uav[48] utilizationCountChargeState 36
scalar OsgEarthNet.uav[48] utilizationCountOverdrawnAfterMission 0
scalar OsgEarthNet.uav[48] utilizationCountIdleState 37
scalar OsgEarthNet.uav[48] utilizationFail 0
scalar OsgEarthNet.uav[48] simulationTime 259200
scalar OsgEarthNet.uav[49] utilizationSecMission 760.62515258028
scalar OsgEarthNet.uav[49] utilizationSecMaintenance 291.95923480269
scalar OsgEarthNet.uav[49] utilizationSecCharge 3980
scalar OsgEarthNet.uav[49] utilizationSecIdle 254167.41461262
scalar OsgEarthNet.uav[49] utilizationEnergyMission 3760.6970977783
scalar OsgEarthNet.uav[49] utilizationEnergyMaintenance 1341.5960922241
scalar OsgEarthNet.uav[49] utilizationEnergyCharge 5102.2905273438
scalar OsgEarthNet.uav[49] utilizationEnergyOverdrawMission 0
scalar OsgEarthNet.uav[49] utilizationEnergyOverdrawMaintenance 0
scalar OsgEarthNet.uav[49] utilizationCountMissions 1
scalar OsgEarthNet.uav[49] utilizationCountManeuversMission 12
scalar OsgEarthNet.uav[49] utilizationCountManeuversMaintenance 2
scalar OsgEarthNet.uav[49] utilizationCountChargeState 1
scalar OsgEarthNet.uav[49] utilizationCountOverdrawnAfterMission 0
scalar OsgEarthNet.uav[49] utilizationCountIdleState 2
scalar OsgEarthNet.uav[49] utilizationFail 0
scalar OsgEarthNet.uav[49] simulationTime 259200
scalar OsgEarthNet.uav[50] utilizationSecMission 750.20472747826
scalar OsgEarthNet.uav[50] utilizationSecMaintenance 261.68051383311
scalar OsgEarthNet.uav[50] utilizationSecCharge 3800
scalar OsgEarthNet.uav[50] utilizationSecIdle 254388.11375869
scalar OsgEarthNet.uav[50] utilizationEnergyMission 3529.9711761475
scalar OsgEarthNet.uav[50] utilizationEnergyMaintenance 1273.4744987488
scalar OsgEarthNet.uav[50] utilizationEnergyCharge 4803.443359375
scalar OsgEarthNet.uav[50] utilizationEnergyOverdrawMission 0
scalar OsgEarthNet.uav[50] utilizationEnergyOverdrawMaintenance 0
scalar OsgEarthNet.uav[50] utilizationCountMissions 1
scalar OsgEarthNet.uav[50] utilizationCountManeuversMission 11
scalar OsgEarthNet.uav[50] utilizationCountManeuversMaintenance 2
scalar OsgEarthNet.uav[50] utilizationCountChargeState 1
scalar OsgEarthNet.uav[50] utilizationCountOverdrawnAfterMission 0
scalar OsgEarthNet.uav[50] utilizationCountIdleState 2
scalar OsgEarthNet.uav[50] utilizationFail 0
scalar OsgEarthNet.uav[50] simulationTime 259200
scalar OsgEarthNet.uav[51] utilizationSecMission 3743.8392361908
scalar OsgEarthNet.uav[51] utilizationSecMaintenance 2886.3385321688
scalar OsgEarthNet.uav[51] utilizationSecCharge 25370
scalar OsgEarthNet.uav[51] utilizationSecIdle 227199.82123164
scalar OsgEarthNet.uav[51] utilizationEnergyMission 17802.512374878
scalar OsgEarthNet.uav[51] utilizationEnergyMaintenance 13620.3934021
scalar OsgEarthNet.uav[51] utilizationEnergyCharge 31422.898193359
scalar OsgEarthNet.uav[51] utilizationEnergyOverdrawMission 0
scalar OsgEarthNet.uav[51] utilizationEnergyOverdrawMaintenance 0
scalar OsgEarthNet.uav[51] utilizationCountMissions 7
scalar OsgEarthNet.uav[51] utilizationCountManeuversMission 61
scalar OsgEarthNet.uav[51] utilizationCountManeuversMaintenance 14
scalar OsgEarthNet.uav[51] utilizationCountChargeState 7
scalar OsgEarthNet.uav[51] utilizationCountOverdrawnAfterMission 0
scalar OsgEarthNet.uav[51] utilizationCountIdleState 8
scalar OsgEarthNet.uav[51] utilizationFail 0
scalar OsgEarthNet.uav[51] simulationTime 259200
scalar OsgEarthNet.uav[52] utilizationSecMission 27915.213854905
scalar OsgEarthNet.uav[52] utilizationSecMaintenance 12307.596597767
scalar OsgEarthNet.uav[52] utilizationSecCharge 150584.48587961
scalar OsgEarthNet.uav[52] utilizationSecIdle 68392.702667718
scalar OsgEarthNet.uav[52] utilizationEnergyMission 129948.47370529
scalar OsgEarthNet.uav[52] utilizationEnergyMaintenance 58127.061824799
scalar OsgEarthNet.uav[52] utilizationEnergyCharge 188271.50317383
scalar OsgEarthNet.uav[52] utilizationEnergyOverdrawMission 0
scalar OsgEarthNet.uav[52] utilizationEnergyOverdrawMaintenance 0
scalar OsgEarthNet.uav[52] utilizationCountMissions 41
scalar OsgEarthNet.uav[52] utilizationCountManeuversMission 453
scalar OsgEarthNet.uav[52] utilizationCountManeuversMaintenance 82
scalar OsgEarthNet.uav[52] utilizationCountChargeState 41
scalar OsgEarthNet.uav[52] utilizationCountOverdrawnAfterMission 0
scalar OsgEarthNet.uav[52] utilizationCountIdleState 41
scalar OsgEarthNet.uav[52] utilizationFail 0
scalar OsgEarthNet.uav[52] simulationTime 259200
scalar OsgEarthNet.uav[53] utilizationSecMission 702.6942798579
scalar OsgEarthNet.uav[53] utilizationSecMaintenance 282.29565405678
scalar OsgEarthNet.uav[53] utilizationSecCharge 3730
scalar OsgEarthNet.uav[53] utilizationSecIdle 254485.00906609
scalar OsgEarthNet.uav[53] utilizationEnergyMission 3248.665512085
scalar OsgEarthNet.uav[53] utilizationEnergyMaintenance 1417.9672966003
scalar OsgEarthNet.uav[53] utilizationEnergyCharge 4666.6357421875
scalar OsgEarthNet.uav[53] utilizationEnergyOverdrawMission 0
scalar OsgEarthNet.uav[53] utilizationEnergyOverdrawMaintenance 0
scalar OsgEarthNet.uav[53] utilizationCountMissions 1
scalar OsgEarthNet.uav[53] utilizationCountManeuversMission 10
scalar OsgEarthNet.uav[53] utilizationCountManeuversMaintenance 2
scalar OsgEarthNet.uav[53] utilizationCountChargeState 1
scalar OsgEarthNet.uav[53] utilizationCountOverdrawnAfterMission 0
scalar OsgEarthNet.uav[53] utilizationCountIdleState 2
scalar OsgEarthNet.uav[53] utilizationFail 0
scalar OsgEarthNet.uav[53] simulationTime 259200
scalar OsgEarthNet.uav[54] utilizationSecMission 18903.876699152
scalar OsgEarthNet.uav[54] utilizationSecMaintenance 10587.123165676
scalar OsgEarthNet.uav[54] utilizationSecCharge 109960
scalar OsgEarthNet.uav[54] utilizationSecIdle 119748.99913517
scalar OsgEarthNet.uav[54] utilizationEnergyMission 87799.414779663
scalar OsgEarthNet.uav[54] utilizationEnergyMaintenance 49771.533916473
scalar OsgEarthNet.uav[54] utilizationEnergyCharge 137161.39648438
scalar OsgEarthNet.uav[54] utilizationEnergyOverdrawMission 0
scalar OsgEarthNet.uav[54] utilizationEnergyOverdrawMaintenance 22.903167724609
scalar OsgEarthNet.uav[54] utilizationCountMissions 30
scalar OsgEarthNet.uav[54] utilizationCountManeuversMission 316
scalar OsgEarthNet.uav[54] utilizationCountManeuversMaintenance 60
scalar OsgEarthNet.uav[54] utilizationCountChargeState 30
scalar OsgEarthNet.uav[54] utilizationCountOverdrawnAfterMission 1
scalar OsgEarthNet.uav[54] utilizationCountIdleState 31
scalar OsgEarthNet.uav[54] utilizationFail 0
scalar OsgEarthNet.uav[54] simulationTime 259200
scalar OsgEarthNet.uav[55] utilizationSecMission 887.1741082606
scalar OsgEarthNet.uav[55] utilizationSecMaintenance 148.2728194454
scalar OsgEarthNet.uav[55] utilizationSecCharge 3740
scalar OsgEarthNet.uav[55] utilizationSecIdle 254424.55207229
scalar OsgEarthNet.uav[55] utilizationEnergyMission 4022.4755859375
scalar OsgEarthNet.uav[55] utilizationEnergyMaintenance 654.05957794189
scalar OsgEarthNet.uav[55] utilizationEnergyCharge 4726.4736328125
scalar OsgEarthNet.uav[55] utilizationEnergyOverdrawMission 0
scalar OsgEarthNet.uav[55] utilizationEnergyOverdrawMaintenance 0
scalar OsgEarthNet.uav[55] utilizationCountMissions 1
scalar OsgEarthNet.uav[55] utilizationCountManeuversMission 14
scalar OsgEarthNet.uav[55] utilizationCountManeuversMaintenance 2
scalar OsgEarthNet.uav[55] utilizationCountChargeState 1
scalar OsgEarthNet.uav[55] utilizationCountOverdrawnAfterMission 0
scalar OsgEarthNet.uav[55] utilizationCountIdleState 2
scalar OsgEarthNet.uav[55] utilizationFail 0
scalar OsgEarthNet.uav[55] simulationTime 259200
scalar OsgEarthNet.uav[56] utilizationSecMission 545.05972348896
scalar OsgEarthNet.uav[56] utilizationSecMaintenance 427.36308650536
scalar OsgEarthNet.uav[56] utilizationSecCharge 3570
scalar OsgEarthNet.uav[56] utilizationSecIdle 254657.57619001
scalar OsgEarthNet.uav[56] utilizationEnergyMission 2388.5973510742
scalar OsgEarthNet.uav[56] utilizationEnergyMaintenance 1948.2861557007
scalar OsgEarthNet.uav[56] utilizationEnergyCharge 4383.58203125
scalar OsgEarthNet.uav[56] utilizationEnergyOverdrawMission 0
scalar OsgEarthNet.uav[56] utilizationEnergyOverdrawMaintenance 0
scalar OsgEarthNet.uav[56] utilizationCountMissions 1
scalar OsgEarthNet.uav[56] utilizationCountManeuversMission 9
scalar OsgEarthNet.uav[56] utilizationCountManeuversMaintenance 2
scalar OsgEarthNet.uav[56] utilizationCountChargeState 1
scalar OsgEarthNet.uav[56] utilizationCountOverdrawnAfterMission 0
scalar OsgEarthNet.uav[56] utilizationCountIdleState 2
scalar OsgEarthNet.uav[56] utilizationFail 0
scalar OsgEarthNet.uav[56] simulationTime 259200
scalar OsgEarthNet.uav[57] utilizationSecMission 23033.367898827
scalar OsgEarthNet.uav[57] utilizationSecMaintenance 11153.327860886
scalar OsgEarthNet.uav[57] utilizationSecCharge 124085.52682099
scalar OsgEarthNet.uav[57] utilizationSecIdle 100927.7764193
scalar OsgEarthNet.uav[57] utilizationEnergyMission 106239.62078094
scalar OsgEarthNet.uav[57] utilizationEnergyMaintenance 51467.784549713
scalar OsgEarthNet.uav[57] utilizationEnergyCharge 156340.90722656
scalar OsgEarthNet.uav[57] utilizationEnergyOverdrawMission 0
scalar OsgEarthNet.uav[57] utilizationEnergyOverdrawMaintenance 0
scalar OsgEarthNet.uav[57] utilizationCountMissions 34
scalar OsgEarthNet.uav[57] utilizationCountManeuversMission 367
scalar OsgEarthNet.uav[57] utilizationCountManeuversMaintenance 68
scalar OsgEarthNet.uav[57] utilizationCountChargeState 34
scalar OsgEarthNet.uav[57] utilizationCountOverdrawnAfterMission 0
scalar OsgEarthNet.uav[57] utilizationCountIdleState 34
scalar OsgEarthNet.uav[57] utilizationFail 0
scalar OsgEarthNet.uav[57] simulationTime 259200
scalar OsgEarthNet.uav[58] utilizationSecMission 750.20472747826
scalar OsgEarthNet.uav[58] utilizationSecMaintenance 300.8347882699
scalar OsgEarthNet.uav[58] utilizationSecCharge 3690
scalar OsgEarthNet.uav[58] utilizationSecIdle 254458.95948425
scalar OsgEarthNet.uav[58] utilizationEnergyMission 3300.7919311524
scalar OsgEarthNet.uav[58] utilizationEnergyMaintenance 1287.5070304871
scalar OsgEarthNet.uav[58] utilizationEnergyCharge 4588.3012695312
scalar OsgEarthNet.uav[58] utilizationEnergyOverdrawMission 0
scalar OsgEarthNet.uav[58] utilizationEnergyOverdrawMaintenance 0
scalar OsgEarthNet.uav[58] utilizationCountMissions 1
scalar OsgEarthNet.uav[58] utilizationCountManeuversMission 11
scalar OsgEarthNet.uav[58] utilizationCountManeuversMaintenance 2
scalar OsgEarthNet.uav[58] utilizationCountChargeState 1
scalar OsgEarthNet.uav[58] utilizationCountOverdrawnAfterMission 0
scalar OsgEarthNet.uav[58] utilizationCountIdleState 2
scalar OsgEarthNet.uav[58] utilizationFail 0
scalar OsgEarthNet.uav[58] simulationTime 259200
scalar OsgEarthNet.uav[59] utilizationSecMission 684.4732299383
scalar OsgEarthNet.uav[59] utilizationSecMaintenance 298.56834692969
scalar OsgEarthNet.uav[59] utilizationSecCharge 3720
scalar OsgEarthNet.uav[59] utilizationSecIdle 254496.95742313
scalar OsgEarthNet.uav[59] utilizationEnergyMission 3185.0583496094
scalar OsgEarthNet.uav[59] utilizationEnergyMaintenance 1482.097038269
scalar OsgEarthNet.uav[59] utilizationEnergyCharge 4667.15234375
scalar OsgEarthNet.uav[59] utilizationEnergyOverdrawMission 0
scalar OsgEarthNet.uav[59] utilizationEnergyOverdrawMaintenance 0
scalar OsgEarthNet.uav[59] utilizationCountMissions 1
scalar OsgEarthNet.uav[59] utilizationCountManeuversMission 11
scalar OsgEarthNet.uav[59] utilizationCountManeuversMaintenance 2
scalar OsgEarthNet.uav[59] utilizationCountChargeState 1
scalar OsgEarthNet.uav[59] utilizationCountOverdrawnAfterMission 0
scalar OsgEarthNet.uav[59] utilizationCountIdleState 2
scalar OsgEarthNet.uav[59] utilizationFail 0
scalar OsgEarthNet.uav[59] simulationTime 259200
scalar OsgEarthNet.uav[60] utilizationSecMission 836.77707522227
scalar OsgEarthNet.uav[60] utilizationSecMaintenance 217.0347828456
scalar OsgEarthNet.uav[60] utilizationSecCharge 3740
scalar OsgEarthNet.uav[60] utilizationSecIdle 254406.18714193
scalar OsgEarthNet.uav[60] utilizationEnergyMission 3704.4486923218
scalar OsgEarthNet.uav[60] utilizationEnergyMaintenance 1001.0012016296
scalar OsgEarthNet.uav[60] utilizationEnergyCharge 4705.4477539062
scalar OsgEarthNet.uav[60] utilizationEnergyOverdrawMission 0
scalar OsgEarthNet.uav[60] utilizationEnergyOverdrawMaintenance 0
scalar OsgEarthNet.uav[60] utilizationCountMissions 1
scalar OsgEarthNet.uav[60] utilizationCountManeuversMission 13
scalar OsgEarthNet.uav[60] utilizationCountManeuversMaintenance 2
scalar OsgEarthNet.uav[60] utilizationCountChargeState 1
scalar OsgEarthNet.uav[60] utilizationCountOverdrawnAfterMission 0
scalar OsgEarthNet.uav[60] utilizationCountIdleState 2
scalar OsgEarthNet.uav[60] utilizationFail 0
scalar OsgEarthNet.uav[60] simulationTime 259200
scalar OsgEarthNet.uav[61] utilizationSecMission 18880.644043318
scalar OsgEarthNet.uav[61] utilizationSecMaintenance 8862.8893587028
scalar OsgEarthNet.uav[61] utilizationSecCharge 101600
scalar OsgEarthNet.uav[61] utilizationSecIdle 129856.46559798
scalar OsgEarthNet.uav[61] utilizationEnergyMission 86697.094220099
scalar OsgEarthNet.uav[61] utilizationEnergyMaintenance 41043.20135498
scalar OsgEarthNet.uav[61] utilizationEnergyCharge 126251.90380859
scalar OsgEarthNet.uav[61] utilizationEnergyOverdrawMission 0
scalar OsgEarthNet.uav[61] utilizationEnergyOverdrawMaintenance 0
scalar OsgEarthNet.uav[61] utilizationCountMissions 28
scalar OsgEarthNet.uav[61] utilizationCountManeuversMission 307
scalar OsgEarthNet.uav[61] utilizationCountManeuversMaintenance 57
scalar OsgEarthNet.uav[61] utilizationCountChargeState 28
scalar OsgEarthNet.uav[61] utilizationCountOverdrawnAfterMission 0
scalar OsgEarthNet.uav[61] utilizationCountIdleState 29
scalar OsgEarthNet.uav[61] utilizationFail 0
scalar OsgEarthNet.uav[61] simulationTime 259200
scalar OsgEarthNet.uav[62] utilizationSecMission 2814.4722362873
scalar OsgEarthNet.uav[62] utilizationSecMaintenance 1378.271213229
scalar OsgEarthNet.uav[62] utilizationSecCharge 15080
scalar OsgEarthNet.uav[62] utilizationSecIdle 239927.25555048
scalar OsgEarthNet.uav[62] utilizationEnergyMission 12927.257995605
scalar OsgEarthNet.uav[62] utilizationEnergyMaintenance 6107.6230010986
scalar OsgEarthNet.uav[62] utilizationEnergyCharge 19034.873046875
scalar OsgEarthNet.uav[62] utilizationEnergyOverdrawMission 0
scalar OsgEarthNet.uav[62] utilizationEnergyOverdrawMaintenance 0
scalar OsgEarthNet.uav[62] utilizationCountMissions 4
scalar OsgEarthNet.uav[62] utilizationCountManeuversMission 45
scalar OsgEarthNet.uav[62] utilizationCountManeuversMaintenance 8
scalar OsgEarthNet.uav[62] utilizationCountChargeState 4
scalar OsgEarthNet.uav[62] utilizationCountOverdrawnAfterMission 0
scalar OsgEarthNet.uav[62] utilizationCountIdleState 5
scalar OsgEarthNet.uav[62] utilizationFail 0
scalar OsgEarthNet.uav[62] simulationTime 259200
scalar OsgEarthNet.uav[63] utilizationSecMission 760.62515258028
scalar OsgEarthNet.uav[63] utilizationSecMaintenance 291.95923480269
scalar OsgEarthNet.uav[63] utilizationSecCharge 3850
scalar OsgEarthNet.uav[63] utilizationSecIdle 254297.41461262
scalar OsgEarthNet.uav[63] utilizationEnergyMission 3550.8755340576
scalar OsgEarthNet.uav[63] utilizationEnergyMaintenance 1321.0325241089
scalar OsgEarthNet.uav[63] utilizationEnergyCharge 4871.908203125
scalar OsgEarthNet.uav[63] utilizationEnergyOverdrawMission 0
scalar OsgEarthNet.uav[63] utilizationEnergyOverdrawMaintenance 0
scalar OsgEarthNet.uav[63] utilizationCountMissions 1
scalar OsgEarthNet.uav[63] utilizationCountManeuversMission 12
scalar OsgEarthNet.uav[63] utilizationCountManeuversMaintenance 2
scalar OsgEarthNet.uav[63] utilizationCountChargeState 1
scalar OsgEarthNet.uav[63] utilizationCountOverdrawnAfterMission 0
scalar OsgEarthNet.uav[63] utilizationCountIdleState 2
scalar OsgEarthNet.uav[63] utilizationFail 0
scalar OsgEarthNet.uav[63] simulationTime 259200
scalar OsgEarthNet.uav[64] utilizationSecMission 655.55330183502
scalar OsgEarthNet.uav[64] utilizationSecMaintenance 344.5505930207
scalar OsgEarthNet.uav[64] utilizationSecCharge 3690
scalar OsgEarthNet.uav[64] utilizationSecIdle 254509.89510514
scalar OsgEarthNet.uav[64] utilizationEnergyMission 2852.8151397705
scalar OsgEarthNet.uav[64] utilizationEnergyMaintenance 1729.6443405151
scalar OsgEarthNet.uav[64] utilizationEnergyCharge 4582.4624023438
scalar OsgEarthNet.uav[64] utilizationEnergyOverdrawMission 0
scalar OsgEarthNet.uav[64] utilizationEnergyOverdrawMaintenance 0
scalar OsgEarthNet.uav[64] utilizationCountMissions 1
scalar OsgEarthNet.uav[64] utilizationCountManeuversMission 10
scalar OsgEarthNet.uav[64] utilizationCountManeuversMaintenance 2
scalar OsgEarthNet.uav[64] utilizationCountChargeState 1
scalar OsgEarthNet.uav[64] utilizationCountOverdrawnAfterMission 0
scalar OsgEarthNet.uav[64] utilizationCountIdleState 2
scalar OsgEarthNet.uav[64] utilizationFail 0
scalar OsgEarthNet.uav[64] simulationTime 259200
scalar OsgEarthNet.uav[65] utilizationSecMission 750.20472747826
scalar OsgEarthNet.uav[65] utilizationSecMaintenance 300.8347882699
scalar OsgEarthNet.uav[65] utilizationSecCharge 3900
scalar OsgEarthNet.uav[65] utilizationSecIdle 254248.95948425
[...]
scalar OsgEarthNet.uav[82] utilizationEnergyMission 143507.04909134
scalar OsgEarthNet.uav[82] utilizationEnergyMaintenance 67394.743751526
scalar OsgEarthNet.uav[82] utilizationEnergyCharge 207743.95288086
scalar OsgEarthNet.uav[82] utilizationEnergyOverdrawMission 0
scalar OsgEarthNet.uav[82] utilizationEnergyOverdrawMaintenance 0
scalar OsgEarthNet.uav[82] utilizationCountMissions 46
scalar OsgEarthNet.uav[82] utilizationCountManeuversMission 511
scalar OsgEarthNet.uav[82] utilizationCountManeuversMaintenance 92
scalar OsgEarthNet.uav[82] utilizationCountChargeState 46
scalar OsgEarthNet.uav[82] utilizationCountOverdrawnAfterMission 0
scalar OsgEarthNet.uav[82] utilizationCountIdleState 46
scalar OsgEarthNet.uav[82] utilizationFail 0
scalar OsgEarthNet.uav[82] simulationTime 259200
scalar OsgEarthNet.uav[83] utilizationSecMission 760.62515258028
scalar OsgEarthNet.uav[83] utilizationSecMaintenance 291.95923480269
scalar OsgEarthNet.uav[83] utilizationSecCharge 3750
scalar OsgEarthNet.uav[83] utilizationSecIdle 254397.41461262
scalar OsgEarthNet.uav[83] utilizationEnergyMission 3293.8139572144
scalar OsgEarthNet.uav[83] utilizationEnergyMaintenance 1397.8928451538
scalar OsgEarthNet.uav[83] utilizationEnergyCharge 4691.7109375
scalar OsgEarthNet.uav[83] utilizationEnergyOverdrawMission 0
scalar OsgEarthNet.uav[83] utilizationEnergyOverdrawMaintenance 0
scalar OsgEarthNet.uav[83] utilizationCountMissions 1
scalar OsgEarthNet.uav[83] utilizationCountManeuversMission 12
scalar OsgEarthNet.uav[83] utilizationCountManeuversMaintenance 2
scalar OsgEarthNet.uav[83] utilizationCountChargeState 1
scalar OsgEarthNet.uav[83] utilizationCountOverdrawnAfterMission 0
scalar OsgEarthNet.uav[83] utilizationCountIdleState 2
scalar OsgEarthNet.uav[83] utilizationFail 0
scalar OsgEarthNet.uav[83] simulationTime 259200
scalar OsgEarthNet.uav[84] utilizationSecMission 28666.961039699
scalar OsgEarthNet.uav[84] utilizationSecMaintenance 14207.093976023
scalar OsgEarthNet.uav[84] utilizationSecCharge 159061.17577802
scalar OsgEarthNet.uav[84] utilizationSecIdle 57264.768206261
scalar OsgEarthNet.uav[84] utilizationEnergyMission 133384.28700256
scalar OsgEarthNet.uav[84] utilizationEnergyMaintenance 66063.724582672
scalar OsgEarthNet.uav[84] utilizationEnergyCharge 199543.46435547
scalar OsgEarthNet.uav[84] utilizationEnergyOverdrawMission 0
scalar OsgEarthNet.uav[84] utilizationEnergyOverdrawMaintenance 0
scalar OsgEarthNet.uav[84] utilizationCountMissions 43
scalar OsgEarthNet.uav[84] utilizationCountManeuversMission 488
scalar OsgEarthNet.uav[84] utilizationCountManeuversMaintenance 86
scalar OsgEarthNet.uav[84] utilizationCountChargeState 43
scalar OsgEarthNet.uav[84] utilizationCountOverdrawnAfterMission 0
scalar OsgEarthNet.uav[84] utilizationCountIdleState 43
scalar OsgEarthNet.uav[84] utilizationFail 0
scalar OsgEarthNet.uav[84] simulationTime 259200
scalar OsgEarthNet.uav[85] utilizationSecMission 30203.993577289
scalar OsgEarthNet.uav[85] utilizationSecMaintenance 13037.801885126
scalar OsgEarthNet.uav[85] utilizationSecCharge 158161.85331676
scalar OsgEarthNet.uav[85] utilizationSecIdle 57796.350220821
scalar OsgEarthNet.uav[85] utilizationEnergyMission 139242.27831268
scalar OsgEarthNet.uav[85] utilizationEnergyMaintenance 59937.643466949
scalar OsgEarthNet.uav[85] utilizationEnergyCharge 199448.32836914
scalar OsgEarthNet.uav[85] utilizationEnergyOverdrawMission 0
scalar OsgEarthNet.uav[85] utilizationEnergyOverdrawMaintenance 0
scalar OsgEarthNet.uav[85] utilizationCountMissions 43
scalar OsgEarthNet.uav[85] utilizationCountManeuversMission 482
scalar OsgEarthNet.uav[85] utilizationCountManeuversMaintenance 86
scalar OsgEarthNet.uav[85] utilizationCountChargeState 43
scalar OsgEarthNet.uav[85] utilizationCountOverdrawnAfterMission 0
scalar OsgEarthNet.uav[85] utilizationCountIdleState 43
scalar OsgEarthNet.uav[85] utilizationFail 0
scalar OsgEarthNet.uav[85] simulationTime 259200
scalar OsgEarthNet.uav[86] utilizationSecMission 760.62515258028
scalar OsgEarthNet.uav[86] utilizationSecMaintenance 291.95923480269
scalar OsgEarthNet.uav[86] utilizationSecCharge 3800
scalar OsgEarthNet.uav[86] utilizationSecIdle 254347.41461262
scalar OsgEarthNet.uav[86] utilizationEnergyMission 3349.5213623047
scalar OsgEarthNet.uav[86] utilizationEnergyMaintenance 1469.8041000366
scalar OsgEarthNet.uav[86] utilizationEnergyCharge 4819.322265625
scalar OsgEarthNet.uav[86] utilizationEnergyOverdrawMission 0
scalar OsgEarthNet.uav[86] utilizationEnergyOverdrawMaintenance 0
scalar OsgEarthNet.uav[86] utilizationCountMissions 1
scalar OsgEarthNet.uav[86] utilizationCountManeuversMission 12
scalar OsgEarthNet.uav[86] utilizationCountManeuversMaintenance 2
scalar OsgEarthNet.uav[86] utilizationCountChargeState 1
scalar OsgEarthNet.uav[86] utilizationCountOverdrawnAfterMission 0
scalar OsgEarthNet.uav[86] utilizationCountIdleState 2
scalar OsgEarthNet.uav[86] utilizationFail 0
scalar OsgEarthNet.uav[86] simulationTime 259200
scalar OsgEarthNet.uav[87] utilizationSecMission 28134.541497481
scalar OsgEarthNet.uav[87] utilizationSecMaintenance 14457.354297038
scalar OsgEarthNet.uav[87] utilizationSecCharge 154939.31878896
scalar OsgEarthNet.uav[87] utilizationSecIdle 61668.784416521
scalar OsgEarthNet.uav[87] utilizationEnergyMission 129499.85067749
scalar OsgEarthNet.uav[87] utilizationEnergyMaintenance 67524.731197357
scalar OsgEarthNet.uav[87] utilizationEnergyCharge 193767.71179199
scalar OsgEarthNet.uav[87] utilizationEnergyOverdrawMission 0
scalar OsgEarthNet.uav[87] utilizationEnergyOverdrawMaintenance 0
scalar OsgEarthNet.uav[87] utilizationCountMissions 43
scalar OsgEarthNet.uav[87] utilizationCountManeuversMission 458
scalar OsgEarthNet.uav[87] utilizationCountManeuversMaintenance 86
scalar OsgEarthNet.uav[87] utilizationCountChargeState 43
scalar OsgEarthNet.uav[87] utilizationCountOverdrawnAfterMission 0
scalar OsgEarthNet.uav[87] utilizationCountIdleState 43
scalar OsgEarthNet.uav[87] utilizationFail 0
scalar OsgEarthNet.uav[87] simulationTime 259200
scalar OsgEarthNet.uav[88] utilizationSecMission 32415.723353665
scalar OsgEarthNet.uav[88] utilizationSecMaintenance 13703.207771495
scalar OsgEarthNet.uav[88] utilizationSecCharge 167739.06787484
scalar OsgEarthNet.uav[88] utilizationSecIdle 45342
scalar OsgEarthNet.uav[88] utilizationEnergyMission 149851.35595166
scalar OsgEarthNet.uav[88] utilizationEnergyMaintenance 63835.890140533
scalar OsgEarthNet.uav[88] utilizationEnergyCharge 208632.53161621
scalar OsgEarthNet.uav[88] utilizationEnergyOverdrawMission 0
scalar OsgEarthNet.uav[88] utilizationEnergyOverdrawMaintenance 0
scalar OsgEarthNet.uav[88] utilizationCountMissions 47
scalar OsgEarthNet.uav[88] utilizationCountManeuversMission 545
scalar OsgEarthNet.uav[88] utilizationCountManeuversMaintenance 93
scalar OsgEarthNet.uav[88] utilizationCountChargeState 47
scalar OsgEarthNet.uav[88] utilizationCountOverdrawnAfterMission 0
scalar OsgEarthNet.uav[88] utilizationCountIdleState 47
scalar OsgEarthNet.uav[88] utilizationFail 0
scalar OsgEarthNet.uav[88] simulationTime 259200
scalar OsgEarthNet.uav[89] utilizationSecMission 1381.8011943422
scalar OsgEarthNet.uav[89] utilizationSecMaintenance 691.25956967193
scalar OsgEarthNet.uav[89] utilizationSecCharge 7710
scalar OsgEarthNet.uav[89] utilizationSecIdle 249416.93823599
scalar OsgEarthNet.uav[89] utilizationEnergyMission 6571.1915740967
scalar OsgEarthNet.uav[89] utilizationEnergyMaintenance 3245.8120765686
scalar OsgEarthNet.uav[89] utilizationEnergyCharge 9817.0092773438
scalar OsgEarthNet.uav[89] utilizationEnergyOverdrawMission 0
scalar OsgEarthNet.uav[89] utilizationEnergyOverdrawMaintenance 0
scalar OsgEarthNet.uav[89] utilizationCountMissions 2
scalar OsgEarthNet.uav[89] utilizationCountManeuversMission 24
scalar OsgEarthNet.uav[89] utilizationCountManeuversMaintenance 4
scalar OsgEarthNet.uav[89] utilizationCountChargeState 2
scalar OsgEarthNet.uav[89] utilizationCountOverdrawnAfterMission 0
scalar OsgEarthNet.uav[89] utilizationCountIdleState 3
scalar OsgEarthNet.uav[89] utilizationFail 0
scalar OsgEarthNet.uav[89] simulationTime 259200
scalar OsgEarthNet.uav[90] utilizationSecMission 1538.260648422
scalar OsgEarthNet.uav[90] utilizationSecMaintenance 445.01279255769
scalar OsgEarthNet.uav[90] utilizationSecCharge 7490
scalar OsgEarthNet.uav[90] utilizationSecIdle 249726.72555902
scalar OsgEarthNet.uav[90] utilizationEnergyMission 7104.2973022461
scalar OsgEarthNet.uav[90] utilizationEnergyMaintenance 2145.2548751831
scalar OsgEarthNet.uav[90] utilizationEnergyCharge 9362.328125
scalar OsgEarthNet.uav[90] utilizationEnergyOverdrawMission 0
scalar OsgEarthNet.uav[90] utilizationEnergyOverdrawMaintenance 0
scalar OsgEarthNet.uav[90] utilizationCountMissions 2
scalar OsgEarthNet.uav[90] utilizationCountManeuversMission 24
scalar OsgEarthNet.uav[90] utilizationCountManeuversMaintenance 4
scalar OsgEarthNet.uav[90] utilizationCountChargeState 2
scalar OsgEarthNet.uav[90] utilizationCountOverdrawnAfterMission 0
scalar OsgEarthNet.uav[90] utilizationCountIdleState 3
scalar OsgEarthNet.uav[90] utilizationFail 0
scalar OsgEarthNet.uav[90] simulationTime 259200
scalar OsgEarthNet.uav[91] utilizationSecMission 1315.968679857
scalar OsgEarthNet.uav[91] utilizationSecMaintenance 1267.598240513
scalar OsgEarthNet.uav[91] utilizationSecCharge 10210
scalar OsgEarthNet.uav[91] utilizationSecIdle 246406.43207963
scalar OsgEarthNet.uav[91] utilizationEnergyMission 6179.2448883057
scalar OsgEarthNet.uav[91] utilizationEnergyMaintenance 6177.1386566162
scalar OsgEarthNet.uav[91] utilizationEnergyCharge 12356.383789062
scalar OsgEarthNet.uav[91] utilizationEnergyOverdrawMission 0
scalar OsgEarthNet.uav[91] utilizationEnergyOverdrawMaintenance 0
scalar OsgEarthNet.uav[91] utilizationCountMissions 3
scalar OsgEarthNet.uav[91] utilizationCountManeuversMission 21
scalar OsgEarthNet.uav[91] utilizationCountManeuversMaintenance 6
scalar OsgEarthNet.uav[91] utilizationCountChargeState 3
scalar OsgEarthNet.uav[91] utilizationCountOverdrawnAfterMission 0
scalar OsgEarthNet.uav[91] utilizationCountIdleState 4
scalar OsgEarthNet.uav[91] utilizationFail 0
scalar OsgEarthNet.uav[91] simulationTime 259200
scalar OsgEarthNet.uav[92] utilizationSecMission 2394.7182801396
scalar OsgEarthNet.uav[92] utilizationSecMaintenance 1645.6435390592
scalar OsgEarthNet.uav[92] utilizationSecCharge 15100
scalar OsgEarthNet.uav[92] utilizationSecIdle 240059.6371808
scalar OsgEarthNet.uav[92] utilizationEnergyMission 11275.742240906
scalar OsgEarthNet.uav[92] utilizationEnergyMaintenance 7774.7975616455
scalar OsgEarthNet.uav[92] utilizationEnergyCharge 19077.474609375
scalar OsgEarthNet.uav[92] utilizationEnergyOverdrawMission 0
scalar OsgEarthNet.uav[92] utilizationEnergyOverdrawMaintenance 0
scalar OsgEarthNet.uav[92] utilizationCountMissions 4
scalar OsgEarthNet.uav[92] utilizationCountManeuversMission 41
scalar OsgEarthNet.uav[92] utilizationCountManeuversMaintenance 8
scalar OsgEarthNet.uav[92] utilizationCountChargeState 4
scalar OsgEarthNet.uav[92] utilizationCountOverdrawnAfterMission 0
scalar OsgEarthNet.uav[92] utilizationCountIdleState 5
scalar OsgEarthNet.uav[92] utilizationFail 0
scalar OsgEarthNet.uav[92] simulationTime 259200
scalar OsgEarthNet.uav[93] utilizationSecMission 29248.254721473
scalar OsgEarthNet.uav[93] utilizationSecMaintenance 12827.673058697
scalar OsgEarthNet.uav[93] utilizationSecCharge 154102.55755888
scalar OsgEarthNet.uav[93] utilizationSecIdle 63021.51366095
scalar OsgEarthNet.uav[93] utilizationEnergyMission 135609.24124146
scalar OsgEarthNet.uav[93] utilizationEnergyMaintenance 60240.94070816
scalar OsgEarthNet.uav[93] utilizationEnergyCharge 194137.88574219
scalar OsgEarthNet.uav[93] utilizationEnergyOverdrawMission 0
scalar OsgEarthNet.uav[93] utilizationEnergyOverdrawMaintenance 0
scalar OsgEarthNet.uav[93] utilizationCountMissions 42
scalar OsgEarthNet.uav[93] utilizationCountManeuversMission 484
scalar OsgEarthNet.uav[93] utilizationCountManeuversMaintenance 84
scalar OsgEarthNet.uav[93] utilizationCountChargeState 42
scalar OsgEarthNet.uav[93] utilizationCountOverdrawnAfterMission 0
scalar OsgEarthNet.uav[93] utilizationCountIdleState 42
scalar OsgEarthNet.uav[93] utilizationFail 0
scalar OsgEarthNet.uav[93] simulationTime 259200
scalar OsgEarthNet.uav[94] utilizationSecMission 29056.05798935
scalar OsgEarthNet.uav[94] utilizationSecMaintenance 14842.994900587
scalar OsgEarthNet.uav[94] utilizationSecCharge 163975.97862106
scalar OsgEarthNet.uav[94] utilizationSecIdle 51324.967489005
scalar OsgEarthNet.uav[94] utilizationEnergyMission 135174.25901031
scalar OsgEarthNet.uav[94] utilizationEnergyMaintenance 69715.047828674
scalar OsgEarthNet.uav[94] utilizationEnergyCharge 204756.98535156
scalar OsgEarthNet.uav[94] utilizationEnergyOverdrawMission 0
scalar OsgEarthNet.uav[94] utilizationEnergyOverdrawMaintenance 0
scalar OsgEarthNet.uav[94] utilizationCountMissions 45
scalar OsgEarthNet.uav[94] utilizationCountManeuversMission 485
scalar OsgEarthNet.uav[94] utilizationCountManeuversMaintenance 90
scalar OsgEarthNet.uav[94] utilizationCountChargeState 45
scalar OsgEarthNet.uav[94] utilizationCountOverdrawnAfterMission 0
scalar OsgEarthNet.uav[94] utilizationCountIdleState 45
scalar OsgEarthNet.uav[94] utilizationFail 0
scalar OsgEarthNet.uav[94] simulationTime 259200
scalar OsgEarthNet.uav[95] utilizationSecMission 4507.7667573225
scalar OsgEarthNet.uav[95] utilizationSecMaintenance 2022.4708770382
scalar OsgEarthNet.uav[95] utilizationSecCharge 24370
scalar OsgEarthNet.uav[95] utilizationSecIdle 228299.76136564
scalar OsgEarthNet.uav[95] utilizationEnergyMission 20258.680007935
scalar OsgEarthNet.uav[95] utilizationEnergyMaintenance 9516.3604431152
scalar OsgEarthNet.uav[95] utilizationEnergyCharge 29815.073242188
scalar OsgEarthNet.uav[95] utilizationEnergyOverdrawMission 0
scalar OsgEarthNet.uav[95] utilizationEnergyOverdrawMaintenance 0
scalar OsgEarthNet.uav[95] utilizationCountMissions 7
scalar OsgEarthNet.uav[95] utilizationCountManeuversMission 69
scalar OsgEarthNet.uav[95] utilizationCountManeuversMaintenance 14
scalar OsgEarthNet.uav[95] utilizationCountChargeState 7
scalar OsgEarthNet.uav[95] utilizationCountOverdrawnAfterMission 0
scalar OsgEarthNet.uav[95] utilizationCountIdleState 8
scalar OsgEarthNet.uav[95] utilizationFail 0
scalar OsgEarthNet.uav[95] simulationTime 259200
scalar OsgEarthNet.uav[96] utilizationSecMission 8979.9821353076
scalar OsgEarthNet.uav[96] utilizationSecMaintenance 5450.9034380301
scalar OsgEarthNet.uav[96] utilizationSecCharge 54290
scalar OsgEarthNet.uav[96] utilizationSecIdle 190479.11342666
scalar OsgEarthNet.uav[96] utilizationEnergyMission 40975.431793213
scalar OsgEarthNet.uav[96] utilizationEnergyMaintenance 26246.784515381
scalar OsgEarthNet.uav[96] utilizationEnergyCharge 67337.312255859
scalar OsgEarthNet.uav[96] utilizationEnergyOverdrawMission 0
scalar OsgEarthNet.uav[96] utilizationEnergyOverdrawMaintenance 0
scalar OsgEarthNet.uav[96] utilizationCountMissions 15
scalar OsgEarthNet.uav[96] utilizationCountManeuversMission 149
scalar OsgEarthNet.uav[96] utilizationCountManeuversMaintenance 30
scalar OsgEarthNet.uav[96] utilizationCountChargeState 15
scalar OsgEarthNet.uav[96] utilizationCountOverdrawnAfterMission 0
scalar OsgEarthNet.uav[96] utilizationCountIdleState 16
scalar OsgEarthNet.uav[96] utilizationFail 0
scalar OsgEarthNet.uav[96] simulationTime 259200
scalar OsgEarthNet.uav[97] utilizationSecMission 27926.67315352
scalar OsgEarthNet.uav[97] utilizationSecMaintenance 12958.544131669
scalar OsgEarthNet.uav[97] utilizationSecCharge 150430
scalar OsgEarthNet.uav[97] utilizationSecIdle 67884.781714811
scalar OsgEarthNet.uav[97] utilizationEnergyMission 129186.9134775
scalar OsgEarthNet.uav[97] utilizationEnergyMaintenance 61767.277233124
scalar OsgEarthNet.uav[97] utilizationEnergyCharge 187599.40429688
scalar OsgEarthNet.uav[97] utilizationEnergyOverdrawMission 0
scalar OsgEarthNet.uav[97] utilizationEnergyOverdrawMaintenance 0
scalar OsgEarthNet.uav[97] utilizationCountMissions 41
scalar OsgEarthNet.uav[97] utilizationCountManeuversMission 452
scalar OsgEarthNet.uav[97] utilizationCountManeuversMaintenance 83
scalar OsgEarthNet.uav[97] utilizationCountChargeState 41
scalar OsgEarthNet.uav[97] utilizationCountOverdrawnAfterMission 0
scalar OsgEarthNet.uav[97] utilizationCountIdleState 42
scalar OsgEarthNet.uav[97] utilizationFail 0
scalar OsgEarthNet.uav[97] simulationTime 259200
scalar OsgEarthNet.uav[98] utilizationSecMission 18767.303912567
scalar OsgEarthNet.uav[98] utilizationSecMaintenance 9563.1807438491
scalar OsgEarthNet.uav[98] utilizationSecCharge 104620
scalar OsgEarthNet.uav[98] utilizationSecIdle 126249.51434358
scalar OsgEarthNet.uav[98] utilizationEnergyMission 87148.758422852
scalar OsgEarthNet.uav[98] utilizationEnergyMaintenance 44020.938247681
scalar OsgEarthNet.uav[98] utilizationEnergyCharge 131386.01831055
scalar OsgEarthNet.uav[98] utilizationEnergyOverdrawMission 0
scalar OsgEarthNet.uav[98] utilizationEnergyOverdrawMaintenance 0
scalar OsgEarthNet.uav[98] utilizationCountMissions 28
scalar OsgEarthNet.uav[98] utilizationCountManeuversMission 299
scalar OsgEarthNet.uav[98] utilizationCountManeuversMaintenance 56
scalar OsgEarthNet.uav[98] utilizationCountChargeState 28
scalar OsgEarthNet.uav[98] utilizationCountOverdrawnAfterMission 0
scalar OsgEarthNet.uav[98] utilizationCountIdleState 28
scalar OsgEarthNet.uav[98] utilizationFail 0
scalar OsgEarthNet.uav[98] simulationTime 259200
scalar OsgEarthNet.uav[99] utilizationSecMission 11498.751415906
scalar OsgEarthNet.uav[99] utilizationSecMaintenance 8236.8126150868
scalar OsgEarthNet.uav[99] utilizationSecCharge 70828.862760982
scalar OsgEarthNet.uav[99] utilizationSecIdle 168635.57220803
scalar OsgEarthNet.uav[99] utilizationEnergyMission 54292.355758667
scalar OsgEarthNet.uav[99] utilizationEnergyMaintenance 38108.996894836
scalar OsgEarthNet.uav[99] utilizationEnergyCharge 89093.209228516
scalar OsgEarthNet.uav[99] utilizationEnergyOverdrawMission 0
scalar OsgEarthNet.uav[99] utilizationEnergyOverdrawMaintenance 0
scalar OsgEarthNet.uav[99] utilizationCountMissions 20
scalar OsgEarthNet.uav[99] utilizationCountManeuversMission 187
scalar OsgEarthNet.uav[99] utilizationCountManeuversMaintenance 40
scalar OsgEarthNet.uav[99] utilizationCountChargeState 20
scalar OsgEarthNet.uav[99] utilizationCountOverdrawnAfterMission 0
scalar OsgEarthNet.uav[99] utilizationCountIdleState 19
scalar OsgEarthNet.uav[99] utilizationFail 0
scalar OsgEarthNet.uav[99] simulationTime 259200
scalar OsgEarthNet.cs[0] usedPower 592835.25913145
scalar OsgEarthNet.cs[0] chargedPower 592835.25913145
scalar OsgEarthNet.cs[0] chargedMobileNodes 127
scalar OsgEarthNet.cs[0] reservations 127
scalar OsgEarthNet.cs[1] usedPower 1097715.9769271
scalar OsgEarthNet.cs[1] chargedPower 1097715.9769271
scalar OsgEarthNet.cs[1] chargedMobileNodes 237
scalar OsgEarthNet.cs[1] reservations 241
scalar OsgEarthNet.cs[2] usedPower 2779332.0846984
scalar OsgEarthNet.cs[2] chargedPower 2779332.0846984
scalar OsgEarthNet.cs[2] chargedMobileNodes 587
scalar OsgEarthNet.cs[2] reservations 596
scalar OsgEarthNet.cs[3] usedPower 652057.06020707
scalar OsgEarthNet.cs[3] chargedPower 652057.06020707
scalar OsgEarthNet.cs[3] chargedMobileNodes 147
scalar OsgEarthNet.cs[3] reservations 149
scalar OsgEarthNet.cs[4] usedPower 668632.39010528
scalar OsgEarthNet.cs[4] chargedPower 668632.39010528
scalar OsgEarthNet.cs[4] chargedMobileNodes 148
scalar OsgEarthNet.cs[4] reservations 151
scalar OsgEarthNet.cs[5] usedPower 530312.48144941
scalar OsgEarthNet.cs[5] chargedPower 530312.48144941
scalar OsgEarthNet.cs[5] chargedMobileNodes 114
scalar OsgEarthNet.cs[5] reservations 114
scalar OsgEarthNet.cs[6] usedPower 2410194.5100664
scalar OsgEarthNet.cs[6] chargedPower 2410194.5100664
scalar OsgEarthNet.cs[6] chargedMobileNodes 519
scalar OsgEarthNet.cs[6] reservations 532

