version 2
run Szenario_Hotel_Gabelbach-4-20180709-18:13:02-55876
attr configname Szenario_Hotel_Gabelbach
attr datetime 20180709-18:13:02
attr experiment Szenario_Hotel_Gabelbach
attr inifile omnetpp.ini
attr iterationvars "$replM=2, $biWeight=0.1"
attr iterationvarsf replM=2,biWeight=0.1-
attr measurement "$replM=2, $biWeight=0.1"
attr network OsgEarthNet
attr processid 55876
attr repetition 4
attr replication #4
attr resultdir results
attr runnumber 4
attr seedset 4
itervar biWeight 0.1
itervar replM 2
param *.osgEarthScene.scene "\"Szenario_Hotel_Gabelbach.earth\""
param *.playgroundLatitude 50.6830269
param *.playgroundLongitude 10.8538055
param *.playgroundWidth 3500m
param *.playgroundHeight 3500m
param *.numUAVs 100
param *.cs[0].posX 3537m
param *.cs[0].posY 965m
param *.cs[0].posZ 538m
param *.cs[1].posX 312m
param *.cs[1].posY 1262m
param *.cs[1].posZ 539m
param *.cs[2].posX 2185m
param *.cs[2].posY 3026m
param *.cs[2].posZ 777m
param *.cs[3].posX 10m
param *.cs[3].posY 2200m
param *.cs[3].posZ 560m
param *.cs[4].posX 750m
param *.cs[4].posY 200m
param *.cs[4].posZ 540m
param *.cs[5].posX 2450m
param *.cs[5].posY 180m
param *.cs[5].posZ 524m
param *.cs[6].posX 3140m
param *.cs[6].posY 1790m
param *.cs[6].posZ 606m
param *.numCSs 7
param *.uav[*].replacementMethod 2
param *.uav[*].weightedSumWeight 0.1
param *.*.timeStep 10s
param *.uav[*].commandPreviewCommandCount 20
param *.missionControl.missionFiles "\"missions\\\\Szenario_WB_Hotel_Gabelbach_Mission_Hotel.waypoints,missions\\\\Szenario_WB_Hotel_Gabelbach_Mission_Kickelhahn.waypoints,missions\\\\Szenario_WB_Hotel_Gabelbach_Mission_Ilmenau_Sportplatz.waypoints,missions\\\\Szenario_WB_Hotel_Gabelbach_Mission_Manebach_Mitte.waypoints,missions\\\\Szenario_WB_Hotel_Gabelbach_Mission_Manebach_Sued.waypoints\""
param *.missionControl.missionFiles "\"missions\\\\Szenario_WB_Hotel_Gabelbach_Mission_Hotel.waypoints,missions\\\\Szenario_WB_Hotel_Gabelbach_Mission_Kickelhahn.waypoints,missions\\\\Szenario_WB_Hotel_Gabelbach_Mission_Ilmenau_Sportplatz.waypoints,missions\\\\Szenario_WB_Hotel_Gabelbach_Mission_Manebach_Mitte.waypoints,missions\\\\Szenario_WB_Hotel_Gabelbach_Mission_Manebach_Sued.waypoints,missions\\\\Szenario_WB_Hotel_Gabelbach_Hover_HoheSchlaufe.waypoints,missions\\\\Szenario_WB_Hotel_Gabelbach_Hover_Kickelhahn.waypoints,missions\\\\Szenario_WB_Hotel_Gabelbach_Hover_Gabelbachskopf.waypoints,missions\\\\Szenario_WB_Hotel_Gabelbach_Hover_Dachskopf.waypoints\""
param *.uav[0].startX 3537m
param *.uav[0].startY 965m
param *.uav[0].startZ 539m
param *.uav[1].startX 312m
param *.uav[1].startY 1262m
param *.uav[1].startZ 540m
param *.uav[2].startX 2185m
param *.uav[2].startY 3026m
param *.uav[2].startZ 778m
param *.uav[3].startX 3537m
param *.uav[3].startY 965m
param *.uav[3].startZ 539m
param *.uav[4].startX 312m
param *.uav[4].startY 1262m
param *.uav[4].startZ 540m
param *.uav[5].startX 2185m
param *.uav[5].startY 3026m
param *.uav[5].startZ 778m
param *.uav[6].startX 3537m
param *.uav[6].startY 965m
param *.uav[6].startZ 539m
param *.uav[7].startX 312m
param *.uav[7].startY 1262m
param *.uav[7].startZ 540m
param *.uav[8].startX 2185m
param *.uav[8].startY 3026m
param *.uav[8].startZ 778m
param *.uav[9].startX 3537m
param *.uav[9].startY 965m
param *.uav[9].startZ 539m
param *.uav[10].startX 3537m
param *.uav[10].startY 965m
param *.uav[10].startZ 539m
param *.uav[11].startX 312m
param *.uav[11].startY 1262m
param *.uav[11].startZ 540m
param *.uav[12].startX 2185m
param *.uav[12].startY 3026m
param *.uav[12].startZ 778m
param *.uav[13].startX 3537m
param *.uav[13].startY 965m
param *.uav[13].startZ 539m
param *.uav[14].startX 312m
param *.uav[14].startY 1262m
param *.uav[14].startZ 540m
param *.uav[15].startX 2185m
param *.uav[15].startY 3026m
param *.uav[15].startZ 778m
param *.uav[16].startX 3537m
param *.uav[16].startY 965m
param *.uav[16].startZ 539m
param *.uav[17].startX 312m
param *.uav[17].startY 1262m
param *.uav[17].startZ 540m
param *.uav[18].startX 2185m
param *.uav[18].startY 3026m
param *.uav[18].startZ 778m
param *.uav[19].startX 3537m
param *.uav[19].startY 965m
param *.uav[19].startZ 539m
param *.uav[20].startX 3537m
param *.uav[20].startY 965m
param *.uav[20].startZ 539m
param *.uav[21].startX 312m
param *.uav[21].startY 1262m
param *.uav[21].startZ 540m
param *.uav[22].startX 2185m
param *.uav[22].startY 3026m
param *.uav[22].startZ 778m
param *.uav[23].startX 3537m
param *.uav[23].startY 965m
param *.uav[23].startZ 539m
param *.uav[24].startX 312m
param *.uav[24].startY 1262m
param *.uav[24].startZ 540m
param *.uav[25].startX 2185m
param *.uav[25].startY 3026m
param *.uav[25].startZ 778m
param *.uav[26].startX 3537m
param *.uav[26].startY 965m
param *.uav[26].startZ 539m
param *.uav[27].startX 312m
param *.uav[27].startY 1262m
param *.uav[27].startZ 540m
param *.uav[28].startX 2185m
param *.uav[28].startY 3026m
param *.uav[28].startZ 778m
param *.uav[29].startX 3537m
param *.uav[29].startY 965m
param *.uav[29].startZ 539m
param *.uav[30].startX 3537m
param *.uav[30].startY 965m
param *.uav[30].startZ 539m
param *.uav[31].startX 312m
param *.uav[31].startY 1262m
param *.uav[31].startZ 540m
param *.uav[32].startX 2185m
param *.uav[32].startY 3026m
param *.uav[32].startZ 778m
param *.uav[33].startX 3537m
param *.uav[33].startY 965m
param *.uav[33].startZ 539m
param *.uav[34].startX 312m
param *.uav[34].startY 1262m
param *.uav[34].startZ 540m
param *.uav[35].startX 2185m
param *.uav[35].startY 3026m
param *.uav[35].startZ 778m
param *.uav[36].startX 3537m
param *.uav[36].startY 965m
param *.uav[36].startZ 539m
param *.uav[37].startX 312m
param *.uav[37].startY 1262m
param *.uav[37].startZ 540m
param *.uav[38].startX 2185m
param *.uav[38].startY 3026m
param *.uav[38].startZ 778m
param *.uav[39].startX 3537m
param *.uav[39].startY 965m
param *.uav[39].startZ 539m
param *.uav[40].startX 3537m
param *.uav[40].startY 965m
param *.uav[40].startZ 539m
param *.uav[41].startX 312m
param *.uav[41].startY 1262m
param *.uav[41].startZ 540m
param *.uav[42].startX 2185m
param *.uav[42].startY 3026m
param *.uav[42].startZ 778m
param *.uav[43].startX 3537m
param *.uav[43].startY 965m
param *.uav[43].startZ 539m
param *.uav[44].startX 312m
param *.uav[44].startY 1262m
param *.uav[44].startZ 540m
param *.uav[45].startX 2185m
param *.uav[45].startY 3026m
param *.uav[45].startZ 778m
param *.uav[46].startX 3537m
param *.uav[46].startY 965m
param *.uav[46].startZ 539m
param *.uav[47].startX 312m
param *.uav[47].startY 1262m
param *.uav[47].startZ 540m
param *.uav[48].startX 2185m
param *.uav[48].startY 3026m
param *.uav[48].startZ 778m
param *.uav[49].startX 3537m
param *.uav[49].startY 965m
param *.uav[49].startZ 539m
param *.uav[50].startX 3537m
param *.uav[50].startY 965m
param *.uav[50].startZ 539m
param *.uav[51].startX 312m
param *.uav[51].startY 1262m
param *.uav[51].startZ 540m
param *.uav[52].startX 2185m
param *.uav[52].startY 3026m
param *.uav[52].startZ 778m
param *.uav[53].startX 3537m
param *.uav[53].startY 965m
param *.uav[53].startZ 539m
param *.uav[54].startX 312m
param *.uav[54].startY 1262m
param *.uav[54].startZ 540m
param *.uav[55].startX 2185m
param *.uav[55].startY 3026m
param *.uav[55].startZ 778m
param *.uav[56].startX 3537m
param *.uav[56].startY 965m
param *.uav[56].startZ 539m
param *.uav[57].startX 312m
param *.uav[57].startY 1262m
param *.uav[57].startZ 540m
param *.uav[58].startX 2185m
param *.uav[58].startY 3026m
param *.uav[58].startZ 778m
param *.uav[59].startX 3537m
param *.uav[59].startY 965m
param *.uav[59].startZ 539m
param *.uav[60].startX 3537m
param *.uav[60].startY 965m
param *.uav[60].startZ 539m
param *.uav[61].startX 312m
param *.uav[61].startY 1262m
param *.uav[61].startZ 540m
param *.uav[62].startX 2185m
param *.uav[62].startY 3026m
param *.uav[62].startZ 778m
param *.uav[63].startX 3537m
param *.uav[63].startY 965m
param *.uav[63].startZ 539m
param *.uav[64].startX 312m
param *.uav[64].startY 1262m
param *.uav[64].startZ 540m
param *.uav[65].startX 2185m
param *.uav[65].startY 3026m
param *.uav[65].startZ 778m
param *.uav[66].startX 3537m
param *.uav[66].startY 965m
param *.uav[66].startZ 539m
param *.uav[67].startX 312m
param *.uav[67].startY 1262m
param *.uav[67].startZ 540m
param *.uav[68].startX 2185m
param *.uav[68].startY 3026m
param *.uav[68].startZ 778m
param *.uav[69].startX 3537m
param *.uav[69].startY 965m
param *.uav[69].startZ 539m
param *.uav[70].startX 3537m
param *.uav[70].startY 965m
param *.uav[70].startZ 539m
param *.uav[71].startX 312m
param *.uav[71].startY 1262m
param *.uav[71].startZ 540m
param *.uav[72].startX 2185m
param *.uav[72].startY 3026m
param *.uav[72].startZ 778m
param *.uav[73].startX 3537m
param *.uav[73].startY 965m
param *.uav[73].startZ 539m
param *.uav[74].startX 312m
param *.uav[74].startY 1262m
param *.uav[74].startZ 540m
param *.uav[75].startX 2185m
param *.uav[75].startY 3026m
param *.uav[75].startZ 778m
param *.uav[76].startX 3537m
param *.uav[76].startY 965m
param *.uav[76].startZ 539m
param *.uav[77].startX 312m
param *.uav[77].startY 1262m
param *.uav[77].startZ 540m
param *.uav[78].startX 2185m
param *.uav[78].startY 3026m
param *.uav[78].startZ 778m
param *.uav[79].startX 3537m
param *.uav[79].startY 965m
param *.uav[79].startZ 539m
param *.uav[80].startX 3537m
param *.uav[80].startY 965m
param *.uav[80].startZ 539m
param *.uav[81].startX 312m
param *.uav[81].startY 1262m
param *.uav[81].startZ 540m
param *.uav[82].startX 2185m
param *.uav[82].startY 3026m
param *.uav[82].startZ 778m
param *.uav[83].startX 3537m
param *.uav[83].startY 965m
param *.uav[83].startZ 539m
param *.uav[84].startX 312m
param *.uav[84].startY 1262m
param *.uav[84].startZ 540m
param *.uav[85].startX 2185m
param *.uav[85].startY 3026m
param *.uav[85].startZ 778m
param *.uav[86].startX 3537m
param *.uav[86].startY 965m
param *.uav[86].startZ 539m
param *.uav[87].startX 312m
param *.uav[87].startY 1262m
param *.uav[87].startZ 540m
param *.uav[88].startX 2185m
param *.uav[88].startY 3026m
param *.uav[88].startZ 778m
param *.uav[89].startX 3537m
param *.uav[89].startY 965m
param *.uav[89].startZ 539m
param *.uav[90].startX 3537m
param *.uav[90].startY 965m
param *.uav[90].startZ 539m
param *.uav[91].startX 312m
param *.uav[91].startY 1262m
param *.uav[91].startZ 540m
param *.uav[92].startX 2185m
param *.uav[92].startY 3026m
param *.uav[92].startZ 778m
param *.uav[93].startX 3537m
param *.uav[93].startY 965m
param *.uav[93].startZ 539m
param *.uav[94].startX 312m
param *.uav[94].startY 1262m
param *.uav[94].startZ 540m
param *.uav[95].startX 2185m
param *.uav[95].startY 3026m
param *.uav[95].startZ 778m
param *.uav[96].startX 3537m
param *.uav[96].startY 965m
param *.uav[96].startZ 539m
param *.uav[97].startX 312m
param *.uav[97].startY 1262m
param *.uav[97].startZ 540m
param *.uav[98].startX 2185m
param *.uav[98].startY 3026m
param *.uav[98].startZ 778m
param *.uav[99].startX 3537m
param *.uav[99].startY 965m
param *.uav[99].startZ 539m
param *.osgEarthScene.scene "\"boston.earth\""
param *.playgroundLatitude 42.3558
param *.playgroundLongitude -71.0677
param *.playgroundWidth 400m
param *.playgroundHeight 200m
param *.channelController.connectionColor "\"#0000FF40\""
param *.channelController.showConnections false
param *.uav[*].modelURL "\"quadrocopter.small.obj.15.scale.0,0,90.rot\""
param *.uav[*].labelColor "\"#FF7C00CC\""
param *.uav[*].label2Color "\"#FF7C00EE\""
param *.uav[*].batteryCapacity 5200mAh
param *.uav[*].batteryRemaining uav[index].batteryCapacity
param *.uav[*].predictionQuantile 0.95
param *.uav[*].replacementMethod 2
param *.uav[*].weightedSumWeight 0.5
param *.cs[*].modelURL "\"chargingstation_v1.osgt.2.scale.0,0,0.rot.0,0,-15e-1.trans\""
param *.cs[*].spotsWaiting 999
param *.cs[*].spotsCharging 999
param *.cs[*].chargeEffectivenessPercentage 100
param *.cs[*].nonLinearPhaseStartPercentage 85
param *.cs[*].chargeCurrent 6.0A
param *.cs[*].prioritizeFastCharge true
param *.missionControl.replacementSearchMethod 0
param *.*.timeStep 9s

scalar OsgEarthNet.uav[0] utilizationSecMission 27075.52897528
scalar OsgEarthNet.uav[0] utilizationSecMaintenance 14120.18255448
scalar OsgEarthNet.uav[0] utilizationSecCharge 162320
scalar OsgEarthNet.uav[0] utilizationSecIdle 55684.28747024
scalar OsgEarthNet.uav[0] utilizationEnergyMission 125398.32956696
scalar OsgEarthNet.uav[0] utilizationEnergyMaintenance 67682.403980255
scalar OsgEarthNet.uav[0] utilizationEnergyCharge 193375.53344727
scalar OsgEarthNet.uav[0] utilizationEnergyOverdrawMission 0
scalar OsgEarthNet.uav[0] utilizationEnergyOverdrawMaintenance 0
scalar OsgEarthNet.uav[0] utilizationCountMissions 50
scalar OsgEarthNet.uav[0] utilizationCountManeuversMission 464
scalar OsgEarthNet.uav[0] utilizationCountManeuversMaintenance 100
scalar OsgEarthNet.uav[0] utilizationCountChargeState 50
scalar OsgEarthNet.uav[0] utilizationCountOverdrawnAfterMission 0
scalar OsgEarthNet.uav[0] utilizationCountIdleState 51
scalar OsgEarthNet.uav[0] utilizationFail 0
scalar OsgEarthNet.uav[0] simulationTime 259200
scalar OsgEarthNet.uav[1] utilizationSecMission 26569.364766255
scalar OsgEarthNet.uav[1] utilizationSecMaintenance 13416.966055758
scalar OsgEarthNet.uav[1] utilizationSecCharge 152720
scalar OsgEarthNet.uav[1] utilizationSecIdle 66493.668177988
scalar OsgEarthNet.uav[1] utilizationEnergyMission 123254.20911251
scalar OsgEarthNet.uav[1] utilizationEnergyMaintenance 63672.273330688
scalar OsgEarthNet.uav[1] utilizationEnergyCharge 185295.40527344
scalar OsgEarthNet.uav[1] utilizationEnergyOverdrawMission 0
scalar OsgEarthNet.uav[1] utilizationEnergyOverdrawMaintenance 0
scalar OsgEarthNet.uav[1] utilizationCountMissions 45
scalar OsgEarthNet.uav[1] utilizationCountManeuversMission 447
scalar OsgEarthNet.uav[1] utilizationCountManeuversMaintenance 91
scalar OsgEarthNet.uav[1] utilizationCountChargeState 45
scalar OsgEarthNet.uav[1] utilizationCountOverdrawnAfterMission 0
scalar OsgEarthNet.uav[1] utilizationCountIdleState 46
scalar OsgEarthNet.uav[1] utilizationFail 0
scalar OsgEarthNet.uav[1] simulationTime 259200
scalar OsgEarthNet.uav[2] utilizationSecMission 26263.874337783
scalar OsgEarthNet.uav[2] utilizationSecMaintenance 10193.22558917
scalar OsgEarthNet.uav[2] utilizationSecCharge 138370
scalar OsgEarthNet.uav[2] utilizationSecIdle 84372.899073046
scalar OsgEarthNet.uav[2] utilizationEnergyMission 120574.08320627
scalar OsgEarthNet.uav[2] utilizationEnergyMaintenance 48428.349010468
scalar OsgEarthNet.uav[2] utilizationEnergyCharge 167806.48388672
scalar OsgEarthNet.uav[2] utilizationEnergyOverdrawMission 0
scalar OsgEarthNet.uav[2] utilizationEnergyOverdrawMaintenance 0
scalar OsgEarthNet.uav[2] utilizationCountMissions 41
scalar OsgEarthNet.uav[2] utilizationCountManeuversMission 411
scalar OsgEarthNet.uav[2] utilizationCountManeuversMaintenance 83
scalar OsgEarthNet.uav[2] utilizationCountChargeState 41
scalar OsgEarthNet.uav[2] utilizationCountOverdrawnAfterMission 0
scalar OsgEarthNet.uav[2] utilizationCountIdleState 42
scalar OsgEarthNet.uav[2] utilizationFail 0
scalar OsgEarthNet.uav[2] simulationTime 259200
scalar OsgEarthNet.uav[3] utilizationSecMission 570.98871244881
scalar OsgEarthNet.uav[3] utilizationSecMaintenance 276.2282017063
scalar OsgEarthNet.uav[3] utilizationSecCharge 3470
scalar OsgEarthNet.uav[3] utilizationSecIdle 254882.78208584
scalar OsgEarthNet.uav[3] utilizationEnergyMission 2854.0348052978
scalar OsgEarthNet.uav[3] utilizationEnergyMaintenance 1421.6516227722
scalar OsgEarthNet.uav[3] utilizationEnergyCharge 4275.6904296875
scalar OsgEarthNet.uav[3] utilizationEnergyOverdrawMission 0
scalar OsgEarthNet.uav[3] utilizationEnergyOverdrawMaintenance 0
scalar OsgEarthNet.uav[3] utilizationCountMissions 1
scalar OsgEarthNet.uav[3] utilizationCountManeuversMission 8
scalar OsgEarthNet.uav[3] utilizationCountManeuversMaintenance 2
scalar OsgEarthNet.uav[3] utilizationCountChargeState 1
scalar OsgEarthNet.uav[3] utilizationCountOverdrawnAfterMission 0
scalar OsgEarthNet.uav[3] utilizationCountIdleState 2
scalar OsgEarthNet.uav[3] utilizationFail 0
scalar OsgEarthNet.uav[3] simulationTime 259200
scalar OsgEarthNet.uav[4] utilizationSecMission 29705.800451848
scalar OsgEarthNet.uav[4] utilizationSecMaintenance 14792.198548152
scalar OsgEarthNet.uav[4] utilizationSecCharge 171140
scalar OsgEarthNet.uav[4] utilizationSecIdle 43562
scalar OsgEarthNet.uav[4] utilizationEnergyMission 137721.71901703
scalar OsgEarthNet.uav[4] utilizationEnergyMaintenance 69517.380162697
scalar OsgEarthNet.uav[4] utilizationEnergyCharge 207028.34057617
scalar OsgEarthNet.uav[4] utilizationEnergyOverdrawMission 0
scalar OsgEarthNet.uav[4] utilizationEnergyOverdrawMaintenance 0
scalar OsgEarthNet.uav[4] utilizationCountMissions 51
scalar OsgEarthNet.uav[4] utilizationCountManeuversMission 497
scalar OsgEarthNet.uav[4] utilizationCountManeuversMaintenance 102
scalar OsgEarthNet.uav[4] utilizationCountChargeState 51
scalar OsgEarthNet.uav[4] utilizationCountOverdrawnAfterMission 0
scalar OsgEarthNet.uav[4] utilizationCountIdleState 52
scalar OsgEarthNet.uav[4] utilizationFail 0
scalar OsgEarthNet.uav[4] simulationTime 259200
scalar OsgEarthNet.uav[5] utilizationSecMission 13751.804947137
scalar OsgEarthNet.uav[5] utilizationSecMaintenance 4903.9769932134
scalar OsgEarthNet.uav[5] utilizationSecCharge 69413.312590797
scalar OsgEarthNet.uav[5] utilizationSecIdle 171130.90446885
scalar OsgEarthNet.uav[5] utilizationEnergyMission 64186.777297974
scalar OsgEarthNet.uav[5] utilizationEnergyMaintenance 22850.326698303
scalar OsgEarthNet.uav[5] utilizationEnergyCharge 85083.941894531
scalar OsgEarthNet.uav[5] utilizationEnergyOverdrawMission 0
scalar OsgEarthNet.uav[5] utilizationEnergyOverdrawMaintenance 0
scalar OsgEarthNet.uav[5] utilizationCountMissions 21
scalar OsgEarthNet.uav[5] utilizationCountManeuversMission 224
scalar OsgEarthNet.uav[5] utilizationCountManeuversMaintenance 42
scalar OsgEarthNet.uav[5] utilizationCountChargeState 21
scalar OsgEarthNet.uav[5] utilizationCountOverdrawnAfterMission 0
scalar OsgEarthNet.uav[5] utilizationCountIdleState 21
scalar OsgEarthNet.uav[5] utilizationFail 0
scalar OsgEarthNet.uav[5] simulationTime 259200
scalar OsgEarthNet.uav[6] utilizationSecMission 760.62515258028
scalar OsgEarthNet.uav[6] utilizationSecMaintenance 245.74410321072
scalar OsgEarthNet.uav[6] utilizationSecCharge 3740
scalar OsgEarthNet.uav[6] utilizationSecIdle 254453.62974421
scalar OsgEarthNet.uav[6] utilizationEnergyMission 3532.5031890869
scalar OsgEarthNet.uav[6] utilizationEnergyMaintenance 1193.7801322937
scalar OsgEarthNet.uav[6] utilizationEnergyCharge 4726.2841796875
scalar OsgEarthNet.uav[6] utilizationEnergyOverdrawMission 0
scalar OsgEarthNet.uav[6] utilizationEnergyOverdrawMaintenance 0
scalar OsgEarthNet.uav[6] utilizationCountMissions 1
scalar OsgEarthNet.uav[6] utilizationCountManeuversMission 12
scalar OsgEarthNet.uav[6] utilizationCountManeuversMaintenance 2
scalar OsgEarthNet.uav[6] utilizationCountChargeState 1
scalar OsgEarthNet.uav[6] utilizationCountOverdrawnAfterMission 0
scalar OsgEarthNet.uav[6] utilizationCountIdleState 2
scalar OsgEarthNet.uav[6] utilizationFail 0
scalar OsgEarthNet.uav[6] simulationTime 259200
scalar OsgEarthNet.uav[7] utilizationSecMission 25701.134011158
scalar OsgEarthNet.uav[7] utilizationSecMaintenance 11238.19523202
scalar OsgEarthNet.uav[7] utilizationSecCharge 142470.64948268
scalar OsgEarthNet.uav[7] utilizationSecIdle 79790.020274145
scalar OsgEarthNet.uav[7] utilizationEnergyMission 119078.59521484
scalar OsgEarthNet.uav[7] utilizationEnergyMaintenance 53498.772094727
scalar OsgEarthNet.uav[7] utilizationEnergyCharge 172471.98144531
scalar OsgEarthNet.uav[7] utilizationEnergyOverdrawMission 0
scalar OsgEarthNet.uav[7] utilizationEnergyOverdrawMaintenance 0
scalar OsgEarthNet.uav[7] utilizationCountMissions 43
scalar OsgEarthNet.uav[7] utilizationCountManeuversMission 428
scalar OsgEarthNet.uav[7] utilizationCountManeuversMaintenance 86
scalar OsgEarthNet.uav[7] utilizationCountChargeState 43
scalar OsgEarthNet.uav[7] utilizationCountOverdrawnAfterMission 0
scalar OsgEarthNet.uav[7] utilizationCountIdleState 43
scalar OsgEarthNet.uav[7] utilizationFail 0
scalar OsgEarthNet.uav[7] simulationTime 259200
scalar OsgEarthNet.uav[8] utilizationSecMission 694.00169469977
scalar OsgEarthNet.uav[8] utilizationSecMaintenance 223.34597234416
scalar OsgEarthNet.uav[8] utilizationSecCharge 3470
scalar OsgEarthNet.uav[8] utilizationSecIdle 254812.65133296
scalar OsgEarthNet.uav[8] utilizationEnergyMission 3006.863697052
scalar OsgEarthNet.uav[8] utilizationEnergyMaintenance 1072.8390922546
scalar OsgEarthNet.uav[8] utilizationEnergyCharge 4213.7250976562
scalar OsgEarthNet.uav[8] utilizationEnergyOverdrawMission 0
scalar OsgEarthNet.uav[8] utilizationEnergyOverdrawMaintenance 0
scalar OsgEarthNet.uav[8] utilizationCountMissions 1
scalar OsgEarthNet.uav[8] utilizationCountManeuversMission 13
scalar OsgEarthNet.uav[8] utilizationCountManeuversMaintenance 2
scalar OsgEarthNet.uav[8] utilizationCountChargeState 1
scalar OsgEarthNet.uav[8] utilizationCountOverdrawnAfterMission 0
scalar OsgEarthNet.uav[8] utilizationCountIdleState 2
scalar OsgEarthNet.uav[8] utilizationFail 0
scalar OsgEarthNet.uav[8] simulationTime 259200
scalar OsgEarthNet.uav[9] utilizationSecMission 760.62515258028
scalar OsgEarthNet.uav[9] utilizationSecMaintenance 245.74410321072
scalar OsgEarthNet.uav[9] utilizationSecCharge 3760
scalar OsgEarthNet.uav[9] utilizationSecIdle 254433.62974421
scalar OsgEarthNet.uav[9] utilizationEnergyMission 3507.4625244141
scalar OsgEarthNet.uav[9] utilizationEnergyMaintenance 1199.7630119324
scalar OsgEarthNet.uav[9] utilizationEnergyCharge 4707.2309570312
scalar OsgEarthNet.uav[9] utilizationEnergyOverdrawMission 0
scalar OsgEarthNet.uav[9] utilizationEnergyOverdrawMaintenance 0
scalar OsgEarthNet.uav[9] utilizationCountMissions 1
scalar OsgEarthNet.uav[9] utilizationCountManeuversMission 12
scalar OsgEarthNet.uav[9] utilizationCountManeuversMaintenance 2
scalar OsgEarthNet.uav[9] utilizationCountChargeState 1
scalar OsgEarthNet.uav[9] utilizationCountOverdrawnAfterMission 0
scalar OsgEarthNet.uav[9] utilizationCountIdleState 2
scalar OsgEarthNet.uav[9] utilizationFail 0
scalar OsgEarthNet.uav[9] simulationTime 259200
scalar OsgEarthNet.uav[10] utilizationSecMission 2664.0733142892
scalar OsgEarthNet.uav[10] utilizationSecMaintenance 1335.8298405976
scalar OsgEarthNet.uav[10] utilizationSecCharge 15720
scalar OsgEarthNet.uav[10] utilizationSecIdle 239480.09584511
scalar OsgEarthNet.uav[10] utilizationEnergyMission 11981.507263184
scalar OsgEarthNet.uav[10] utilizationEnergyMaintenance 6239.6426773071
scalar OsgEarthNet.uav[10] utilizationEnergyCharge 18310.221191406
scalar OsgEarthNet.uav[10] utilizationEnergyOverdrawMission 0
scalar OsgEarthNet.uav[10] utilizationEnergyOverdrawMaintenance 0
scalar OsgEarthNet.uav[10] utilizationCountMissions 5
scalar OsgEarthNet.uav[10] utilizationCountManeuversMission 41
scalar OsgEarthNet.uav[10] utilizationCountManeuversMaintenance 10
scalar OsgEarthNet.uav[10] utilizationCountChargeState 5
scalar OsgEarthNet.uav[10] utilizationCountOverdrawnAfterMission 0
scalar OsgEarthNet.uav[10] utilizationCountIdleState 6
scalar OsgEarthNet.uav[10] utilizationFail 0
scalar OsgEarthNet.uav[10] simulationTime 259200
scalar OsgEarthNet.uav[11] utilizationSecMission 682.94783150361
scalar OsgEarthNet.uav[11] utilizationSecMaintenance 228.1606024445
scalar OsgEarthNet.uav[11] utilizationSecCharge 3550
scalar OsgEarthNet.uav[11] utilizationSecIdle 254738.89056605
scalar OsgEarthNet.uav[11] utilizationEnergyMission 3189.2147521973
scalar OsgEarthNet.uav[11] utilizationEnergyMaintenance 1185.7328720093
scalar OsgEarthNet.uav[11] utilizationEnergyCharge 4374.9536132812
scalar OsgEarthNet.uav[11] utilizationEnergyOverdrawMission 0
scalar OsgEarthNet.uav[11] utilizationEnergyOverdrawMaintenance 0
scalar OsgEarthNet.uav[11] utilizationCountMissions 1
scalar OsgEarthNet.uav[11] utilizationCountManeuversMission 12
scalar OsgEarthNet.uav[11] utilizationCountManeuversMaintenance 2
scalar OsgEarthNet.uav[11] utilizationCountChargeState 1
scalar OsgEarthNet.uav[11] utilizationCountOverdrawnAfterMission 0
scalar OsgEarthNet.uav[11] utilizationCountIdleState 2
scalar OsgEarthNet.uav[11] utilizationFail 0
scalar OsgEarthNet.uav[11] simulationTime 259200
scalar OsgEarthNet.uav[12] utilizationSecMission 29873.868546443
scalar OsgEarthNet.uav[12] utilizationSecMaintenance 11457.234078414
scalar OsgEarthNet.uav[12] utilizationSecCharge 152780
scalar OsgEarthNet.uav[12] utilizationSecIdle 65088.896375144
scalar OsgEarthNet.uav[12] utilizationEnergyMission 136968.4870224
scalar OsgEarthNet.uav[12] utilizationEnergyMaintenance 53206.472555673
scalar OsgEarthNet.uav[12] utilizationEnergyCharge 185480.61450195
scalar OsgEarthNet.uav[12] utilizationEnergyOverdrawMission 0
scalar OsgEarthNet.uav[12] utilizationEnergyOverdrawMaintenance 0
scalar OsgEarthNet.uav[12] utilizationCountMissions 46
scalar OsgEarthNet.uav[12] utilizationCountManeuversMission 477
scalar OsgEarthNet.uav[12] utilizationCountManeuversMaintenance 92
scalar OsgEarthNet.uav[12] utilizationCountChargeState 45
scalar OsgEarthNet.uav[12] utilizationCountOverdrawnAfterMission 0
scalar OsgEarthNet.uav[12] utilizationCountIdleState 46
scalar OsgEarthNet.uav[12] utilizationFail 0
scalar OsgEarthNet.uav[12] simulationTime 259200
scalar OsgEarthNet.uav[13] utilizationSecMission 760.62515258028
scalar OsgEarthNet.uav[13] utilizationSecMaintenance 245.74410321072
scalar OsgEarthNet.uav[13] utilizationSecCharge 3680
scalar OsgEarthNet.uav[13] utilizationSecIdle 254513.62974421
scalar OsgEarthNet.uav[13] utilizationEnergyMission 3570.7230072022
scalar OsgEarthNet.uav[13] utilizationEnergyMaintenance 1055.4816093445
scalar OsgEarthNet.uav[13] utilizationEnergyCharge 4626.208984375
scalar OsgEarthNet.uav[13] utilizationEnergyOverdrawMission 0
scalar OsgEarthNet.uav[13] utilizationEnergyOverdrawMaintenance 0
scalar OsgEarthNet.uav[13] utilizationCountMissions 1
scalar OsgEarthNet.uav[13] utilizationCountManeuversMission 12
scalar OsgEarthNet.uav[13] utilizationCountManeuversMaintenance 2
scalar OsgEarthNet.uav[13] utilizationCountChargeState 1
scalar OsgEarthNet.uav[13] utilizationCountOverdrawnAfterMission 0
scalar OsgEarthNet.uav[13] utilizationCountIdleState 2
scalar OsgEarthNet.uav[13] utilizationFail 0
scalar OsgEarthNet.uav[13] simulationTime 259200
scalar OsgEarthNet.uav[14] utilizationSecMission 17705.238830058
scalar OsgEarthNet.uav[14] utilizationSecMaintenance 9249.0368621499
scalar OsgEarthNet.uav[14] utilizationSecCharge 103480
scalar OsgEarthNet.uav[14] utilizationSecIdle 128765.72330779
scalar OsgEarthNet.uav[14] utilizationEnergyMission 80129.057853699
scalar OsgEarthNet.uav[14] utilizationEnergyMaintenance 43193.690151215
scalar OsgEarthNet.uav[14] utilizationEnergyCharge 123254.02319336
scalar OsgEarthNet.uav[14] utilizationEnergyOverdrawMission 0
scalar OsgEarthNet.uav[14] utilizationEnergyOverdrawMaintenance 0
scalar OsgEarthNet.uav[14] utilizationCountMissions 32
scalar OsgEarthNet.uav[14] utilizationCountManeuversMission 285
scalar OsgEarthNet.uav[14] utilizationCountManeuversMaintenance 64
scalar OsgEarthNet.uav[14] utilizationCountChargeState 32
scalar OsgEarthNet.uav[14] utilizationCountOverdrawnAfterMission 0
scalar OsgEarthNet.uav[14] utilizationCountIdleState 33
scalar OsgEarthNet.uav[14] utilizationFail 0
scalar OsgEarthNet.uav[14] simulationTime 259200
scalar OsgEarthNet.uav[15] utilizationSecMission 694.00169469977
scalar OsgEarthNet.uav[15] utilizationSecMaintenance 223.34597234416
scalar OsgEarthNet.uav[15] utilizationSecCharge 3420
scalar OsgEarthNet.uav[15] utilizationSecIdle 254862.65133296
scalar OsgEarthNet.uav[15] utilizationEnergyMission 3213.598236084
scalar OsgEarthNet.uav[15] utilizationEnergyMaintenance 983.67042160034
scalar OsgEarthNet.uav[15] utilizationEnergyCharge 4150.4018554688
scalar OsgEarthNet.uav[15] utilizationEnergyOverdrawMission 0
scalar OsgEarthNet.uav[15] utilizationEnergyOverdrawMaintenance 0
scalar OsgEarthNet.uav[15] utilizationCountMissions 1
scalar OsgEarthNet.uav[15] utilizationCountManeuversMission 13
scalar OsgEarthNet.uav[15] utilizationCountManeuversMaintenance 2
scalar OsgEarthNet.uav[15] utilizationCountChargeState 1
scalar OsgEarthNet.uav[15] utilizationCountOverdrawnAfterMission 0
scalar OsgEarthNet.uav[15] utilizationCountIdleState 2
scalar OsgEarthNet.uav[15] utilizationFail 0
scalar OsgEarthNet.uav[15] simulationTime 259200
scalar OsgEarthNet.uav[16] utilizationSecMission 3501.3227182595
scalar OsgEarthNet.uav[16] utilizationSecMaintenance 2304.8945498763
scalar OsgEarthNet.uav[16] utilizationSecCharge 20899.163916606
scalar OsgEarthNet.uav[16] utilizationSecIdle 232494.61781526
scalar OsgEarthNet.uav[16] utilizationEnergyMission 15954.198997498
scalar OsgEarthNet.uav[16] utilizationEnergyMaintenance 10693.735919952
scalar OsgEarthNet.uav[16] utilizationEnergyCharge 25658.010742188
scalar OsgEarthNet.uav[16] utilizationEnergyOverdrawMission 0
scalar OsgEarthNet.uav[16] utilizationEnergyOverdrawMaintenance 0
scalar OsgEarthNet.uav[16] utilizationCountMissions 7
scalar OsgEarthNet.uav[16] utilizationCountManeuversMission 60
scalar OsgEarthNet.uav[16] utilizationCountManeuversMaintenance 14
scalar OsgEarthNet.uav[16] utilizationCountChargeState 7
scalar OsgEarthNet.uav[16] utilizationCountOverdrawnAfterMission 0
scalar OsgEarthNet.uav[16] utilizationCountIdleState 7
scalar OsgEarthNet.uav[16] utilizationFail 0
scalar OsgEarthNet.uav[16] simulationTime 259200
scalar OsgEarthNet.uav[17] utilizationSecMission 16882.813907216
scalar OsgEarthNet.uav[17] utilizationSecMaintenance 7712.261246509
scalar OsgEarthNet.uav[17] utilizationSecCharge 95240
scalar OsgEarthNet.uav[17] utilizationSecIdle 139364.92384627
scalar OsgEarthNet.uav[17] utilizationEnergyMission 79730.259750366
scalar OsgEarthNet.uav[17] utilizationEnergyMaintenance 36540.966072083
scalar OsgEarthNet.uav[17] utilizationEnergyCharge 115863.50415039
scalar OsgEarthNet.uav[17] utilizationEnergyOverdrawMission 0
scalar OsgEarthNet.uav[17] utilizationEnergyOverdrawMaintenance 0
scalar OsgEarthNet.uav[17] utilizationCountMissions 28
scalar OsgEarthNet.uav[17] utilizationCountManeuversMission 286
scalar OsgEarthNet.uav[17] utilizationCountManeuversMaintenance 56
scalar OsgEarthNet.uav[17] utilizationCountChargeState 28
scalar OsgEarthNet.uav[17] utilizationCountOverdrawnAfterMission 0
scalar OsgEarthNet.uav[17] utilizationCountIdleState 29
scalar OsgEarthNet.uav[17] utilizationFail 0
scalar OsgEarthNet.uav[17] simulationTime 259200
scalar OsgEarthNet.uav[18] utilizationSecMission 9615.6147500778
scalar OsgEarthNet.uav[18] utilizationSecMaintenance 4626.3301891086
scalar OsgEarthNet.uav[18] utilizationSecCharge 55450
scalar OsgEarthNet.uav[18] utilizationSecIdle 189508.05406081
scalar OsgEarthNet.uav[18] utilizationEnergyMission 44234.995429993
scalar OsgEarthNet.uav[18] utilizationEnergyMaintenance 22206.800502777
scalar OsgEarthNet.uav[18] utilizationEnergyCharge 66145.097412109
scalar OsgEarthNet.uav[18] utilizationEnergyOverdrawMission 0
scalar OsgEarthNet.uav[18] utilizationEnergyOverdrawMaintenance 0
scalar OsgEarthNet.uav[18] utilizationCountMissions 17
scalar OsgEarthNet.uav[18] utilizationCountManeuversMission 152
scalar OsgEarthNet.uav[18] utilizationCountManeuversMaintenance 34
scalar OsgEarthNet.uav[18] utilizationCountChargeState 17
scalar OsgEarthNet.uav[18] utilizationCountOverdrawnAfterMission 0
scalar OsgEarthNet.uav[18] utilizationCountIdleState 18
scalar OsgEarthNet.uav[18] utilizationFail 0
scalar OsgEarthNet.uav[18] simulationTime 259200
scalar OsgEarthNet.uav[19] utilizationSecMission 750.20472747826
scalar OsgEarthNet.uav[19] utilizationSecMaintenance 261.68051383311
scalar OsgEarthNet.uav[19] utilizationSecCharge 3700
scalar OsgEarthNet.uav[19] utilizationSecIdle 254488.11375869
scalar OsgEarthNet.uav[19] utilizationEnergyMission 3449.0607910156
scalar OsgEarthNet.uav[19] utilizationEnergyMaintenance 1183.7548942566
scalar OsgEarthNet.uav[19] utilizationEnergyCharge 4632.822265625
scalar OsgEarthNet.uav[19] utilizationEnergyOverdrawMission 0
scalar OsgEarthNet.uav[19] utilizationEnergyOverdrawMaintenance 0
scalar OsgEarthNet.uav[19] utilizationCountMissions 1
scalar OsgEarthNet.uav[19] utilizationCountManeuversMission 11
scalar OsgEarthNet.uav[19] utilizationCountManeuversMaintenance 2
scalar OsgEarthNet.uav[19] utilizationCountChargeState 1
scalar OsgEarthNet.uav[19] utilizationCountOverdrawnAfterMission 0
scalar OsgEarthNet.uav[19] utilizationCountIdleState 2
scalar OsgEarthNet.uav[19] utilizationFail 0
scalar OsgEarthNet.uav[19] simulationTime 259200
scalar OsgEarthNet.uav[20] utilizationSecMission 750.20472747826
scalar OsgEarthNet.uav[20] utilizationSecMaintenance 261.68051383311
scalar OsgEarthNet.uav[20] utilizationSecCharge 3570
scalar OsgEarthNet.uav[20] utilizationSecIdle 254618.11375869
scalar OsgEarthNet.uav[20] utilizationEnergyMission 3251.3300018311
scalar OsgEarthNet.uav[20] utilizationEnergyMaintenance 1218.4607048035
scalar OsgEarthNet.uav[20] utilizationEnergyCharge 4469.7885742188
scalar OsgEarthNet.uav[20] utilizationEnergyOverdrawMission 0
scalar OsgEarthNet.uav[20] utilizationEnergyOverdrawMaintenance 0
scalar OsgEarthNet.uav[20] utilizationCountMissions 1
scalar OsgEarthNet.uav[20] utilizationCountManeuversMission 11
scalar OsgEarthNet.uav[20] utilizationCountManeuversMaintenance 2
scalar OsgEarthNet.uav[20] utilizationCountChargeState 1
scalar OsgEarthNet.uav[20] utilizationCountOverdrawnAfterMission 0
scalar OsgEarthNet.uav[20] utilizationCountIdleState 2
scalar OsgEarthNet.uav[20] utilizationFail 0
scalar OsgEarthNet.uav[20] simulationTime 259200
scalar OsgEarthNet.uav[21] utilizationSecMission 1015.0862832093
scalar OsgEarthNet.uav[21] utilizationSecMaintenance 505.6761361493
scalar OsgEarthNet.uav[21] utilizationSecCharge 6160
scalar OsgEarthNet.uav[21] utilizationSecIdle 251519.23658064
scalar OsgEarthNet.uav[21] utilizationEnergyMission 4703.8956756592
scalar OsgEarthNet.uav[21] utilizationEnergyMaintenance 2501.4821815491
scalar OsgEarthNet.uav[21] utilizationEnergyCharge 7205.3801269531
scalar OsgEarthNet.uav[21] utilizationEnergyOverdrawMission 0
scalar OsgEarthNet.uav[21] utilizationEnergyOverdrawMaintenance 0
scalar OsgEarthNet.uav[21] utilizationCountMissions 2
scalar OsgEarthNet.uav[21] utilizationCountManeuversMission 17
scalar OsgEarthNet.uav[21] utilizationCountManeuversMaintenance 4
scalar OsgEarthNet.uav[21] utilizationCountChargeState 2
scalar OsgEarthNet.uav[21] utilizationCountOverdrawnAfterMission 0
scalar OsgEarthNet.uav[21] utilizationCountIdleState 3
scalar OsgEarthNet.uav[21] utilizationFail 0
scalar OsgEarthNet.uav[21] simulationTime 259200
scalar OsgEarthNet.uav[22] utilizationSecMission 26695.631998507
scalar OsgEarthNet.uav[22] utilizationSecMaintenance 14134.560123054
scalar OsgEarthNet.uav[22] utilizationSecCharge 157933.77077967
scalar OsgEarthNet.uav[22] utilizationSecIdle 60436.036098769
scalar OsgEarthNet.uav[22] utilizationEnergyMission 124014.08587646
scalar OsgEarthNet.uav[22] utilizationEnergyMaintenance 67107.968025208
scalar OsgEarthNet.uav[22] utilizationEnergyCharge 189695.83081055
scalar OsgEarthNet.uav[22] utilizationEnergyOverdrawMission 0
scalar OsgEarthNet.uav[22] utilizationEnergyOverdrawMaintenance 0
scalar OsgEarthNet.uav[22] utilizationCountMissions 49
scalar OsgEarthNet.uav[22] utilizationCountManeuversMission 433
scalar OsgEarthNet.uav[22] utilizationCountManeuversMaintenance 98
scalar OsgEarthNet.uav[22] utilizationCountChargeState 49
scalar OsgEarthNet.uav[22] utilizationCountOverdrawnAfterMission 0
scalar OsgEarthNet.uav[22] utilizationCountIdleState 49
scalar OsgEarthNet.uav[22] utilizationFail 0
scalar OsgEarthNet.uav[22] simulationTime 259200
scalar OsgEarthNet.uav[23] utilizationSecMission 19917.882797555
scalar OsgEarthNet.uav[23] utilizationSecMaintenance 10384.310489789
scalar OsgEarthNet.uav[23] utilizationSecCharge 118300
scalar OsgEarthNet.uav[23] utilizationSecIdle 110597.80571266
scalar OsgEarthNet.uav[23] utilizationEnergyMission 92237.508285522
scalar OsgEarthNet.uav[23] utilizationEnergyMaintenance 49493.714401245
scalar OsgEarthNet.uav[23] utilizationEnergyCharge 141724.28515625
scalar OsgEarthNet.uav[23] utilizationEnergyOverdrawMission 0
scalar OsgEarthNet.uav[23] utilizationEnergyOverdrawMaintenance 0
scalar OsgEarthNet.uav[23] utilizationCountMissions 36
scalar OsgEarthNet.uav[23] utilizationCountManeuversMission 326
scalar OsgEarthNet.uav[23] utilizationCountManeuversMaintenance 72
scalar OsgEarthNet.uav[23] utilizationCountChargeState 36
scalar OsgEarthNet.uav[23] utilizationCountOverdrawnAfterMission 0
scalar OsgEarthNet.uav[23] utilizationCountIdleState 37
scalar OsgEarthNet.uav[23] utilizationFail 0
scalar OsgEarthNet.uav[23] simulationTime 259200
scalar OsgEarthNet.uav[24] utilizationSecMission 26591.773159095
scalar OsgEarthNet.uav[24] utilizationSecMaintenance 12450.136050982
scalar OsgEarthNet.uav[24] utilizationSecCharge 149157.03199473
scalar OsgEarthNet.uav[24] utilizationSecIdle 71001.057795193
scalar OsgEarthNet.uav[24] utilizationEnergyMission 123574.81036758
scalar OsgEarthNet.uav[24] utilizationEnergyMaintenance 58399.093559265
scalar OsgEarthNet.uav[24] utilizationEnergyCharge 179399.17919922
scalar OsgEarthNet.uav[24] utilizationEnergyOverdrawMission 0
scalar OsgEarthNet.uav[24] utilizationEnergyOverdrawMaintenance 0
scalar OsgEarthNet.uav[24] utilizationCountMissions 46
scalar OsgEarthNet.uav[24] utilizationCountManeuversMission 437
scalar OsgEarthNet.uav[24] utilizationCountManeuversMaintenance 92
scalar OsgEarthNet.uav[24] utilizationCountChargeState 46
scalar OsgEarthNet.uav[24] utilizationCountOverdrawnAfterMission 0
scalar OsgEarthNet.uav[24] utilizationCountIdleState 46
scalar OsgEarthNet.uav[24] utilizationFail 0
scalar OsgEarthNet.uav[24] simulationTime 259200
scalar OsgEarthNet.uav[25] utilizationSecMission 27371.979388401
scalar OsgEarthNet.uav[25] utilizationSecMaintenance 11956.575934574
scalar OsgEarthNet.uav[25] utilizationSecCharge 152405.78424491
scalar OsgEarthNet.uav[25] utilizationSecIdle 67465.659432111
scalar OsgEarthNet.uav[25] utilizationEnergyMission 126122.4852829
scalar OsgEarthNet.uav[25] utilizationEnergyMaintenance 57035.445743561
scalar OsgEarthNet.uav[25] utilizationEnergyCharge 182988.31420898
scalar OsgEarthNet.uav[25] utilizationEnergyOverdrawMission 0
scalar OsgEarthNet.uav[25] utilizationEnergyOverdrawMaintenance 0
scalar OsgEarthNet.uav[25] utilizationCountMissions 46
scalar OsgEarthNet.uav[25] utilizationCountManeuversMission 434
scalar OsgEarthNet.uav[25] utilizationCountManeuversMaintenance 92
scalar OsgEarthNet.uav[25] utilizationCountChargeState 46
scalar OsgEarthNet.uav[25] utilizationCountOverdrawnAfterMission 0
scalar OsgEarthNet.uav[25] utilizationCountIdleState 46
scalar OsgEarthNet.uav[25] utilizationFail 0
scalar OsgEarthNet.uav[25] simulationTime 259200
scalar OsgEarthNet.uav[26] utilizationSecMission 570.98871244881
scalar OsgEarthNet.uav[26] utilizationSecMaintenance 276.2282017063
scalar OsgEarthNet.uav[26] utilizationSecCharge 3400
scalar OsgEarthNet.uav[26] utilizationSecIdle 254952.78208584
scalar OsgEarthNet.uav[26] utilizationEnergyMission 2736.6244354248
scalar OsgEarthNet.uav[26] utilizationEnergyMaintenance 1428.6701469421
scalar OsgEarthNet.uav[26] utilizationEnergyCharge 4165.2944335938
scalar OsgEarthNet.uav[26] utilizationEnergyOverdrawMission 0
scalar OsgEarthNet.uav[26] utilizationEnergyOverdrawMaintenance 0
scalar OsgEarthNet.uav[26] utilizationCountMissions 1
scalar OsgEarthNet.uav[26] utilizationCountManeuversMission 8
scalar OsgEarthNet.uav[26] utilizationCountManeuversMaintenance 2
scalar OsgEarthNet.uav[26] utilizationCountChargeState 1
scalar OsgEarthNet.uav[26] utilizationCountOverdrawnAfterMission 0
scalar OsgEarthNet.uav[26] utilizationCountIdleState 2
scalar OsgEarthNet.uav[26] utilizationFail 0
scalar OsgEarthNet.uav[26] simulationTime 259200
scalar OsgEarthNet.uav[27] utilizationSecMission 443.5870541303
scalar OsgEarthNet.uav[27] utilizationSecMaintenance 465.20364065929
scalar OsgEarthNet.uav[27] utilizationSecCharge 3410
scalar OsgEarthNet.uav[27] utilizationSecIdle 254881.20830521
scalar OsgEarthNet.uav[27] utilizationEnergyMission 2099.9382476807
scalar OsgEarthNet.uav[27] utilizationEnergyMaintenance 2113.3122520447
scalar OsgEarthNet.uav[27] utilizationEnergyCharge 4155.916015625
scalar OsgEarthNet.uav[27] utilizationEnergyOverdrawMission 0
scalar OsgEarthNet.uav[27] utilizationEnergyOverdrawMaintenance 0
scalar OsgEarthNet.uav[27] utilizationCountMissions 1
scalar OsgEarthNet.uav[27] utilizationCountManeuversMission 7
scalar OsgEarthNet.uav[27] utilizationCountManeuversMaintenance 2
scalar OsgEarthNet.uav[27] utilizationCountChargeState 1
scalar OsgEarthNet.uav[27] utilizationCountOverdrawnAfterMission 0
scalar OsgEarthNet.uav[27] utilizationCountIdleState 2
scalar OsgEarthNet.uav[27] utilizationFail 0
scalar OsgEarthNet.uav[27] simulationTime 259200
scalar OsgEarthNet.uav[28] utilizationSecMission 570.98871244881
scalar OsgEarthNet.uav[28] utilizationSecMaintenance 295.50253239167
scalar OsgEarthNet.uav[28] utilizationSecCharge 3400
scalar OsgEarthNet.uav[28] utilizationSecIdle 254933.50775516
scalar OsgEarthNet.uav[28] utilizationEnergyMission 2734.4401855469
scalar OsgEarthNet.uav[28] utilizationEnergyMaintenance 1393.408000946
scalar OsgEarthNet.uav[28] utilizationEnergyCharge 4127.8427734375
scalar OsgEarthNet.uav[28] utilizationEnergyOverdrawMission 0
scalar OsgEarthNet.uav[28] utilizationEnergyOverdrawMaintenance 0
scalar OsgEarthNet.uav[28] utilizationCountMissions 1
scalar OsgEarthNet.uav[28] utilizationCountManeuversMission 8
scalar OsgEarthNet.uav[28] utilizationCountManeuversMaintenance 2
scalar OsgEarthNet.uav[28] utilizationCountChargeState 1
scalar OsgEarthNet.uav[28] utilizationCountOverdrawnAfterMission 0
scalar OsgEarthNet.uav[28] utilizationCountIdleState 2
scalar OsgEarthNet.uav[28] utilizationFail 0
scalar OsgEarthNet.uav[28] simulationTime 259200
scalar OsgEarthNet.uav[29] utilizationSecMission 213.40226662092
scalar OsgEarthNet.uav[29] utilizationSecMaintenance 474.30151219871
scalar OsgEarthNet.uav[29] utilizationSecCharge 2950
scalar OsgEarthNet.uav[29] utilizationSecIdle 255562.29522118
scalar OsgEarthNet.uav[29] utilizationEnergyMission 1012.920135498
scalar OsgEarthNet.uav[29] utilizationEnergyMaintenance 2309.4274215698
scalar OsgEarthNet.uav[29] utilizationEnergyCharge 3322.3481445312
scalar OsgEarthNet.uav[29] utilizationEnergyOverdrawMission 0
scalar OsgEarthNet.uav[29] utilizationEnergyOverdrawMaintenance 0
scalar OsgEarthNet.uav[29] utilizationCountMissions 1
scalar OsgEarthNet.uav[29] utilizationCountManeuversMission 3
scalar OsgEarthNet.uav[29] utilizationCountManeuversMaintenance 2
scalar OsgEarthNet.uav[29] utilizationCountChargeState 1
scalar OsgEarthNet.uav[29] utilizationCountOverdrawnAfterMission 0
scalar OsgEarthNet.uav[29] utilizationCountIdleState 2
scalar OsgEarthNet.uav[29] utilizationFail 0
scalar OsgEarthNet.uav[29] simulationTime 259200
scalar OsgEarthNet.uav[30] utilizationSecMission 750.20472747826
scalar OsgEarthNet.uav[30] utilizationSecMaintenance 261.68051383311
scalar OsgEarthNet.uav[30] utilizationSecCharge 3890
scalar OsgEarthNet.uav[30] utilizationSecIdle 254298.11375869
scalar OsgEarthNet.uav[30] utilizationEnergyMission 3617.1325531006
scalar OsgEarthNet.uav[30] utilizationEnergyMaintenance 1319.8014030457
scalar OsgEarthNet.uav[30] utilizationEnergyCharge 4936.935546875
scalar OsgEarthNet.uav[30] utilizationEnergyOverdrawMission 0
scalar OsgEarthNet.uav[30] utilizationEnergyOverdrawMaintenance 0
scalar OsgEarthNet.uav[30] utilizationCountMissions 1
scalar OsgEarthNet.uav[30] utilizationCountManeuversMission 11
scalar OsgEarthNet.uav[30] utilizationCountManeuversMaintenance 2
scalar OsgEarthNet.uav[30] utilizationCountChargeState 1
scalar OsgEarthNet.uav[30] utilizationCountOverdrawnAfterMission 0
scalar OsgEarthNet.uav[30] utilizationCountIdleState 2
scalar OsgEarthNet.uav[30] utilizationFail 0
scalar OsgEarthNet.uav[30] simulationTime 259200
scalar OsgEarthNet.uav[31] utilizationSecMission 25806.899579017
scalar OsgEarthNet.uav[31] utilizationSecMaintenance 11266.304527859
scalar OsgEarthNet.uav[31] utilizationSecCharge 139630.20778999
scalar OsgEarthNet.uav[31] utilizationSecIdle 82496.587103138
scalar OsgEarthNet.uav[31] utilizationEnergyMission 119377.59311676
scalar OsgEarthNet.uav[31] utilizationEnergyMaintenance 53168.553073883
scalar OsgEarthNet.uav[31] utilizationEnergyCharge 168371.34082031
scalar OsgEarthNet.uav[31] utilizationEnergyOverdrawMission 0
scalar OsgEarthNet.uav[31] utilizationEnergyOverdrawMaintenance 0
scalar OsgEarthNet.uav[31] utilizationCountMissions 43
scalar OsgEarthNet.uav[31] utilizationCountManeuversMission 416
scalar OsgEarthNet.uav[31] utilizationCountManeuversMaintenance 86
scalar OsgEarthNet.uav[31] utilizationCountChargeState 43
scalar OsgEarthNet.uav[31] utilizationCountOverdrawnAfterMission 0
scalar OsgEarthNet.uav[31] utilizationCountIdleState 43
scalar OsgEarthNet.uav[31] utilizationFail 0
scalar OsgEarthNet.uav[31] simulationTime 259200
scalar OsgEarthNet.uav[32] utilizationSecMission 887.1741082606
scalar OsgEarthNet.uav[32] utilizationSecMaintenance 125.81102573108
scalar OsgEarthNet.uav[32] utilizationSecCharge 3840
scalar OsgEarthNet.uav[32] utilizationSecIdle 254347.01386601
scalar OsgEarthNet.uav[32] utilizationEnergyMission 4193.2313995361
scalar OsgEarthNet.uav[32] utilizationEnergyMaintenance 602.4661026001
scalar OsgEarthNet.uav[32] utilizationEnergyCharge 4880.9624023438
scalar OsgEarthNet.uav[32] utilizationEnergyOverdrawMission 0
scalar OsgEarthNet.uav[32] utilizationEnergyOverdrawMaintenance 0
scalar OsgEarthNet.uav[32] utilizationCountMissions 1
scalar OsgEarthNet.uav[32] utilizationCountManeuversMission 14
scalar OsgEarthNet.uav[32] utilizationCountManeuversMaintenance 2
scalar OsgEarthNet.uav[32] utilizationCountChargeState 1
scalar OsgEarthNet.uav[32] utilizationCountOverdrawnAfterMission 0
scalar OsgEarthNet.uav[32] utilizationCountIdleState 2
scalar OsgEarthNet.uav[32] utilizationFail 0
scalar OsgEarthNet.uav[32] simulationTime 259200
scalar OsgEarthNet.uav[33] utilizationSecMission 29992.507735794
scalar OsgEarthNet.uav[33] utilizationSecMaintenance 13875.491264206
scalar OsgEarthNet.uav[33] utilizationSecCharge 166850
scalar OsgEarthNet.uav[33] utilizationSecIdle 48482
scalar OsgEarthNet.uav[33] utilizationEnergyMission 138598.71362415
scalar OsgEarthNet.uav[33] utilizationEnergyMaintenance 65166.156032901
scalar OsgEarthNet.uav[33] utilizationEnergyCharge 199462.27441406
scalar OsgEarthNet.uav[33] utilizationEnergyOverdrawMission 0
scalar OsgEarthNet.uav[33] utilizationEnergyOverdrawMaintenance 0
scalar OsgEarthNet.uav[33] utilizationCountMissions 52
scalar OsgEarthNet.uav[33] utilizationCountManeuversMission 490
scalar OsgEarthNet.uav[33] utilizationCountManeuversMaintenance 103
scalar OsgEarthNet.uav[33] utilizationCountChargeState 51
scalar OsgEarthNet.uav[33] utilizationCountOverdrawnAfterMission 0
scalar OsgEarthNet.uav[33] utilizationCountIdleState 52
scalar OsgEarthNet.uav[33] utilizationFail 0
scalar OsgEarthNet.uav[33] simulationTime 259200
scalar OsgEarthNet.uav[34] utilizationSecMission 25190.3741722
scalar OsgEarthNet.uav[34] utilizationSecMaintenance 10539.439788571
scalar OsgEarthNet.uav[34] utilizationSecCharge 135090
scalar OsgEarthNet.uav[34] utilizationSecIdle 88380.185039229
scalar OsgEarthNet.uav[34] utilizationEnergyMission 116253.64272308
scalar OsgEarthNet.uav[34] utilizationEnergyMaintenance 49736.168151855
scalar OsgEarthNet.uav[34] utilizationEnergyCharge 165570.99975586
scalar OsgEarthNet.uav[34] utilizationEnergyOverdrawMission 0
scalar OsgEarthNet.uav[34] utilizationEnergyOverdrawMaintenance 0
scalar OsgEarthNet.uav[34] utilizationCountMissions 39
scalar OsgEarthNet.uav[34] utilizationCountManeuversMission 420
scalar OsgEarthNet.uav[34] utilizationCountManeuversMaintenance 78
scalar OsgEarthNet.uav[34] utilizationCountChargeState 39
scalar OsgEarthNet.uav[34] utilizationCountOverdrawnAfterMission 0
scalar OsgEarthNet.uav[34] utilizationCountIdleState 40
scalar OsgEarthNet.uav[34] utilizationFail 0
scalar OsgEarthNet.uav[34] simulationTime 259200
scalar OsgEarthNet.uav[35] utilizationSecMission 18045.402007568
scalar OsgEarthNet.uav[35] utilizationSecMaintenance 6866.5173126393
scalar OsgEarthNet.uav[35] utilizationSecCharge 93062.749613207
scalar OsgEarthNet.uav[35] utilizationSecIdle 141225.33006659
scalar OsgEarthNet.uav[35] utilizationEnergyMission 82830.94316864
scalar OsgEarthNet.uav[35] utilizationEnergyMaintenance 33180.927692413
scalar OsgEarthNet.uav[35] utilizationEnergyCharge 112137.96398926
scalar OsgEarthNet.uav[35] utilizationEnergyOverdrawMission 0
scalar OsgEarthNet.uav[35] utilizationEnergyOverdrawMaintenance 0
scalar OsgEarthNet.uav[35] utilizationCountMissions 29
scalar OsgEarthNet.uav[35] utilizationCountManeuversMission 280
scalar OsgEarthNet.uav[35] utilizationCountManeuversMaintenance 58
scalar OsgEarthNet.uav[35] utilizationCountChargeState 29
scalar OsgEarthNet.uav[35] utilizationCountOverdrawnAfterMission 0
scalar OsgEarthNet.uav[35] utilizationCountIdleState 29
scalar OsgEarthNet.uav[35] utilizationFail 0
scalar OsgEarthNet.uav[35] simulationTime 259200
scalar OsgEarthNet.uav[36] utilizationSecMission 179.21601502944
scalar OsgEarthNet.uav[36] utilizationSecMaintenance 354.43405905663
scalar OsgEarthNet.uav[36] utilizationSecCharge 2520
scalar OsgEarthNet.uav[36] utilizationSecIdle 256146.34892591
scalar OsgEarthNet.uav[36] utilizationEnergyMission 806.12231445313
scalar OsgEarthNet.uav[36] utilizationEnergyMaintenance 1789.0339584351
scalar OsgEarthNet.uav[36] utilizationEnergyCharge 2595.1533203125
scalar OsgEarthNet.uav[36] utilizationEnergyOverdrawMission 0
scalar OsgEarthNet.uav[36] utilizationEnergyOverdrawMaintenance 0
scalar OsgEarthNet.uav[36] utilizationCountMissions 1
scalar OsgEarthNet.uav[36] utilizationCountManeuversMission 3
scalar OsgEarthNet.uav[36] utilizationCountManeuversMaintenance 2
scalar OsgEarthNet.uav[36] utilizationCountChargeState 1
scalar OsgEarthNet.uav[36] utilizationCountOverdrawnAfterMission 0
scalar OsgEarthNet.uav[36] utilizationCountIdleState 2
scalar OsgEarthNet.uav[36] utilizationFail 0
scalar OsgEarthNet.uav[36] simulationTime 259200
scalar OsgEarthNet.uav[37] utilizationSecMission 18711.126921068
scalar OsgEarthNet.uav[37] utilizationSecMaintenance 7994.9059719443
scalar OsgEarthNet.uav[37] utilizationSecCharge 99071.26157672
scalar OsgEarthNet.uav[37] utilizationSecIdle 133422.70453027
scalar OsgEarthNet.uav[37] utilizationEnergyMission 86526.714744568
scalar OsgEarthNet.uav[37] utilizationEnergyMaintenance 37825.128787994
scalar OsgEarthNet.uav[37] utilizationEnergyCharge 120713.45446777
scalar OsgEarthNet.uav[37] utilizationEnergyOverdrawMission 0
scalar OsgEarthNet.uav[37] utilizationEnergyOverdrawMaintenance 0
scalar OsgEarthNet.uav[37] utilizationCountMissions 30
scalar OsgEarthNet.uav[37] utilizationCountManeuversMission 302
scalar OsgEarthNet.uav[37] utilizationCountManeuversMaintenance 60
scalar OsgEarthNet.uav[37] utilizationCountChargeState 30
scalar OsgEarthNet.uav[37] utilizationCountOverdrawnAfterMission 0
scalar OsgEarthNet.uav[37] utilizationCountIdleState 30
scalar OsgEarthNet.uav[37] utilizationFail 0
scalar OsgEarthNet.uav[37] simulationTime 259200
scalar OsgEarthNet.uav[38] utilizationSecMission 750.20472747826
scalar OsgEarthNet.uav[38] utilizationSecMaintenance 218.84515192887
scalar OsgEarthNet.uav[38] utilizationSecCharge 3420
scalar OsgEarthNet.uav[38] utilizationSecIdle 254810.94912059
scalar OsgEarthNet.uav[38] utilizationEnergyMission 3405.4992675781
scalar OsgEarthNet.uav[38] utilizationEnergyMaintenance 809.97045135498
scalar OsgEarthNet.uav[38] utilizationEnergyCharge 4189.9174804688
scalar OsgEarthNet.uav[38] utilizationEnergyOverdrawMission 0
scalar OsgEarthNet.uav[38] utilizationEnergyOverdrawMaintenance 0
scalar OsgEarthNet.uav[38] utilizationCountMissions 1
scalar OsgEarthNet.uav[38] utilizationCountManeuversMission 11
scalar OsgEarthNet.uav[38] utilizationCountManeuversMaintenance 2
scalar OsgEarthNet.uav[38] utilizationCountChargeState 1
scalar OsgEarthNet.uav[38] utilizationCountOverdrawnAfterMission 0
scalar OsgEarthNet.uav[38] utilizationCountIdleState 2
scalar OsgEarthNet.uav[38] utilizationFail 0
scalar OsgEarthNet.uav[38] simulationTime 259200
scalar OsgEarthNet.uav[39] utilizationSecMission 760.62515258028
scalar OsgEarthNet.uav[39] utilizationSecMaintenance 245.74410321072
scalar OsgEarthNet.uav[39] utilizationSecCharge 3720
scalar OsgEarthNet.uav[39] utilizationSecIdle 254473.62974421
scalar OsgEarthNet.uav[39] utilizationEnergyMission 3614.4953918457
scalar OsgEarthNet.uav[39] utilizationEnergyMaintenance 1055.1328544617
scalar OsgEarthNet.uav[39] utilizationEnergyCharge 4669.6254882812
scalar OsgEarthNet.uav[39] utilizationEnergyOverdrawMission 0
scalar OsgEarthNet.uav[39] utilizationEnergyOverdrawMaintenance 0
scalar OsgEarthNet.uav[39] utilizationCountMissions 1
scalar OsgEarthNet.uav[39] utilizationCountManeuversMission 12
scalar OsgEarthNet.uav[39] utilizationCountManeuversMaintenance 2
scalar OsgEarthNet.uav[39] utilizationCountChargeState 1
scalar OsgEarthNet.uav[39] utilizationCountOverdrawnAfterMission 0
scalar OsgEarthNet.uav[39] utilizationCountIdleState 2
scalar OsgEarthNet.uav[39] utilizationFail 0
scalar OsgEarthNet.uav[39] simulationTime 259200
scalar OsgEarthNet.uav[40] utilizationSecMission 570.98871244881
scalar OsgEarthNet.uav[40] utilizationSecMaintenance 276.2282017063
scalar OsgEarthNet.uav[40] utilizationSecCharge 3370
scalar OsgEarthNet.uav[40] utilizationSecIdle 254982.78208584
scalar OsgEarthNet.uav[40] utilizationEnergyMission 2785.3945465088
scalar OsgEarthNet.uav[40] utilizationEnergyMaintenance 1294.4920463562
scalar OsgEarthNet.uav[40] utilizationEnergyCharge 4079.890625
scalar OsgEarthNet.uav[40] utilizationEnergyOverdrawMission 0
scalar OsgEarthNet.uav[40] utilizationEnergyOverdrawMaintenance 0
scalar OsgEarthNet.uav[40] utilizationCountMissions 1
scalar OsgEarthNet.uav[40] utilizationCountManeuversMission 8
scalar OsgEarthNet.uav[40] utilizationCountManeuversMaintenance 2
scalar OsgEarthNet.uav[40] utilizationCountChargeState 1
scalar OsgEarthNet.uav[40] utilizationCountOverdrawnAfterMission 0
scalar OsgEarthNet.uav[40] utilizationCountIdleState 2
scalar OsgEarthNet.uav[40] utilizationFail 0
scalar OsgEarthNet.uav[40] simulationTime 259200
scalar OsgEarthNet.uav[41] utilizationSecMission 7366.5980206267
scalar OsgEarthNet.uav[41] utilizationSecMaintenance 2955.9020889458
scalar OsgEarthNet.uav[41] utilizationSecCharge 39920
scalar OsgEarthNet.uav[41] utilizationSecIdle 208957.49889043
scalar OsgEarthNet.uav[41] utilizationEnergyMission 34244.562774658
scalar OsgEarthNet.uav[41] utilizationEnergyMaintenance 13912.602005005
scalar OsgEarthNet.uav[41] utilizationEnergyCharge 48181.925537109
scalar OsgEarthNet.uav[41] utilizationEnergyOverdrawMission 0
scalar OsgEarthNet.uav[41] utilizationEnergyOverdrawMaintenance 0
scalar OsgEarthNet.uav[41] utilizationCountMissions 12
scalar OsgEarthNet.uav[41] utilizationCountManeuversMission 117
scalar OsgEarthNet.uav[41] utilizationCountManeuversMaintenance 24
scalar OsgEarthNet.uav[41] utilizationCountChargeState 12
scalar OsgEarthNet.uav[41] utilizationCountOverdrawnAfterMission 0
scalar OsgEarthNet.uav[41] utilizationCountIdleState 13
scalar OsgEarthNet.uav[41] utilizationFail 0
scalar OsgEarthNet.uav[41] simulationTime 259200
scalar OsgEarthNet.uav[42] utilizationSecMission 2648.4186288886
scalar OsgEarthNet.uav[42] utilizationSecMaintenance 995.85107377427
scalar OsgEarthNet.uav[42] utilizationSecCharge 13700
scalar OsgEarthNet.uav[42] utilizationSecIdle 241855.72929734
scalar OsgEarthNet.uav[42] utilizationEnergyMission 11979.898986816
scalar OsgEarthNet.uav[42] utilizationEnergyMaintenance 4804.4178924561
scalar OsgEarthNet.uav[42] utilizationEnergyCharge 16687.228759766
scalar OsgEarthNet.uav[42] utilizationEnergyOverdrawMission 0
scalar OsgEarthNet.uav[42] utilizationEnergyOverdrawMaintenance 0
scalar OsgEarthNet.uav[42] utilizationCountMissions 4
scalar OsgEarthNet.uav[42] utilizationCountManeuversMission 43
scalar OsgEarthNet.uav[42] utilizationCountManeuversMaintenance 8
scalar OsgEarthNet.uav[42] utilizationCountChargeState 4
scalar OsgEarthNet.uav[42] utilizationCountOverdrawnAfterMission 0
scalar OsgEarthNet.uav[42] utilizationCountIdleState 5
scalar OsgEarthNet.uav[42] utilizationFail 0
scalar OsgEarthNet.uav[42] simulationTime 259200
scalar OsgEarthNet.uav[43] utilizationSecMission 28849.348607357
scalar OsgEarthNet.uav[43] utilizationSecMaintenance 14165.103483385
scalar OsgEarthNet.uav[43] utilizationSecCharge 164850
scalar OsgEarthNet.uav[43] utilizationSecIdle 51335.546909258
scalar OsgEarthNet.uav[43] utilizationEnergyMission 133870.12254827
scalar OsgEarthNet.uav[43] utilizationEnergyMaintenance 67291.560443878
scalar OsgEarthNet.uav[43] utilizationEnergyCharge 197706.42041016
scalar OsgEarthNet.uav[43] utilizationEnergyOverdrawMission 0
scalar OsgEarthNet.uav[43] utilizationEnergyOverdrawMaintenance 0
scalar OsgEarthNet.uav[43] utilizationCountMissions 50
scalar OsgEarthNet.uav[43] utilizationCountManeuversMission 467
scalar OsgEarthNet.uav[43] utilizationCountManeuversMaintenance 101
scalar OsgEarthNet.uav[43] utilizationCountChargeState 50
scalar OsgEarthNet.uav[43] utilizationCountOverdrawnAfterMission 0
scalar OsgEarthNet.uav[43] utilizationCountIdleState 51
scalar OsgEarthNet.uav[43] utilizationFail 0
scalar OsgEarthNet.uav[43] simulationTime 259200
scalar OsgEarthNet.uav[44] utilizationSecMission 27736.15761984
scalar OsgEarthNet.uav[44] utilizationSecMaintenance 13535.259680443
scalar OsgEarthNet.uav[44] utilizationSecCharge 154990
scalar OsgEarthNet.uav[44] utilizationSecIdle 62938.581699718
scalar OsgEarthNet.uav[44] utilizationEnergyMission 127329.38842759
scalar OsgEarthNet.uav[44] utilizationEnergyMaintenance 62693.142185211
scalar OsgEarthNet.uav[44] utilizationEnergyCharge 188232.90893555
scalar OsgEarthNet.uav[44] utilizationEnergyOverdrawMission 0
scalar OsgEarthNet.uav[44] utilizationEnergyOverdrawMaintenance 0
scalar OsgEarthNet.uav[44] utilizationCountMissions 46
scalar OsgEarthNet.uav[44] utilizationCountManeuversMission 448
scalar OsgEarthNet.uav[44] utilizationCountManeuversMaintenance 93
scalar OsgEarthNet.uav[44] utilizationCountChargeState 46
scalar OsgEarthNet.uav[44] utilizationCountOverdrawnAfterMission 0
scalar OsgEarthNet.uav[44] utilizationCountIdleState 47
scalar OsgEarthNet.uav[44] utilizationFail 0
scalar OsgEarthNet.uav[44] simulationTime 259200
scalar OsgEarthNet.uav[45] utilizationSecMission 25731.478142568
scalar OsgEarthNet.uav[45] utilizationSecMaintenance 11654.658779399
scalar OsgEarthNet.uav[45] utilizationSecCharge 141390
scalar OsgEarthNet.uav[45] utilizationSecIdle 80423.862078034
scalar OsgEarthNet.uav[45] utilizationEnergyMission 117643.00626373
scalar OsgEarthNet.uav[45] utilizationEnergyMaintenance 54864.300895691
scalar OsgEarthNet.uav[45] utilizationEnergyCharge 172823.9128418
scalar OsgEarthNet.uav[45] utilizationEnergyOverdrawMission 0
scalar OsgEarthNet.uav[45] utilizationEnergyOverdrawMaintenance 0
scalar OsgEarthNet.uav[45] utilizationCountMissions 41
scalar OsgEarthNet.uav[45] utilizationCountManeuversMission 420
scalar OsgEarthNet.uav[45] utilizationCountManeuversMaintenance 82
scalar OsgEarthNet.uav[45] utilizationCountChargeState 41
scalar OsgEarthNet.uav[45] utilizationCountOverdrawnAfterMission 0
scalar OsgEarthNet.uav[45] utilizationCountIdleState 42
scalar OsgEarthNet.uav[45] utilizationFail 0
scalar OsgEarthNet.uav[45] simulationTime 259200
scalar OsgEarthNet.uav[46] utilizationSecMission 570.98871244881
scalar OsgEarthNet.uav[46] utilizationSecMaintenance 276.2282017063
scalar OsgEarthNet.uav[46] utilizationSecCharge 3400
scalar OsgEarthNet.uav[46] utilizationSecIdle 254952.78208584
scalar OsgEarthNet.uav[46] utilizationEnergyMission 2796.8659362793
scalar OsgEarthNet.uav[46] utilizationEnergyMaintenance 1336.2461051941
scalar OsgEarthNet.uav[46] utilizationEnergyCharge 4133.1103515625
scalar OsgEarthNet.uav[46] utilizationEnergyOverdrawMission 0
scalar OsgEarthNet.uav[46] utilizationEnergyOverdrawMaintenance 0
scalar OsgEarthNet.uav[46] utilizationCountMissions 1
scalar OsgEarthNet.uav[46] utilizationCountManeuversMission 8
scalar OsgEarthNet.uav[46] utilizationCountManeuversMaintenance 2
scalar OsgEarthNet.uav[46] utilizationCountChargeState 1
scalar OsgEarthNet.uav[46] utilizationCountOverdrawnAfterMission 0
scalar OsgEarthNet.uav[46] utilizationCountIdleState 2
scalar OsgEarthNet.uav[46] utilizationFail 0
scalar OsgEarthNet.uav[46] simulationTime 259200
scalar OsgEarthNet.uav[47] utilizationSecMission 11909.611355189
scalar OsgEarthNet.uav[47] utilizationSecMaintenance 6840.2752395153
scalar OsgEarthNet.uav[47] utilizationSecCharge 72450
scalar OsgEarthNet.uav[47] utilizationSecIdle 168000.1124053
scalar OsgEarthNet.uav[47] utilizationEnergyMission 55127.497497559
scalar OsgEarthNet.uav[47] utilizationEnergyMaintenance 31653.708087921
scalar OsgEarthNet.uav[47] utilizationEnergyCharge 87218.937255859
scalar OsgEarthNet.uav[47] utilizationEnergyOverdrawMission 0
scalar OsgEarthNet.uav[47] utilizationEnergyOverdrawMaintenance 0
scalar OsgEarthNet.uav[47] utilizationCountMissions 22
scalar OsgEarthNet.uav[47] utilizationCountManeuversMission 198
scalar OsgEarthNet.uav[47] utilizationCountManeuversMaintenance 44
scalar OsgEarthNet.uav[47] utilizationCountChargeState 22
scalar OsgEarthNet.uav[47] utilizationCountOverdrawnAfterMission 0
scalar OsgEarthNet.uav[47] utilizationCountIdleState 23
scalar OsgEarthNet.uav[47] utilizationFail 0
scalar OsgEarthNet.uav[47] simulationTime 259200
scalar OsgEarthNet.uav[48] utilizationSecMission 26031.306388815
scalar OsgEarthNet.uav[48] utilizationSecMaintenance 7981.3693715266
scalar OsgEarthNet.uav[48] utilizationSecCharge 125690.25746396
scalar OsgEarthNet.uav[48] utilizationSecIdle 99497.065775698
scalar OsgEarthNet.uav[48] utilizationEnergyMission 119171.69163513
scalar OsgEarthNet.uav[48] utilizationEnergyMaintenance 37045.826396942
scalar OsgEarthNet.uav[48] utilizationEnergyCharge 154620.64794922
scalar OsgEarthNet.uav[48] utilizationEnergyOverdrawMission 0
scalar OsgEarthNet.uav[48] utilizationEnergyOverdrawMaintenance 0
scalar OsgEarthNet.uav[48] utilizationCountMissions 37
scalar OsgEarthNet.uav[48] utilizationCountManeuversMission 420
scalar OsgEarthNet.uav[48] utilizationCountManeuversMaintenance 74
scalar OsgEarthNet.uav[48] utilizationCountChargeState 37
scalar OsgEarthNet.uav[48] utilizationCountOverdrawnAfterMission 0
scalar OsgEarthNet.uav[48] utilizationCountIdleState 37
scalar OsgEarthNet.uav[48] utilizationFail 0
scalar OsgEarthNet.uav[48] simulationTime 259200
scalar OsgEarthNet.uav[49] utilizationSecMission 26439.170578769
scalar OsgEarthNet.uav[49] utilizationSecMaintenance 13309.197283481
scalar OsgEarthNet.uav[49] utilizationSecCharge 153260
scalar OsgEarthNet.uav[49] utilizationSecIdle 66191.631137751
scalar OsgEarthNet.uav[49] utilizationEnergyMission 121537.75902176
scalar OsgEarthNet.uav[49] utilizationEnergyMaintenance 63159.643257141
scalar OsgEarthNet.uav[49] utilizationEnergyCharge 184892.234375
scalar OsgEarthNet.uav[49] utilizationEnergyOverdrawMission 0
scalar OsgEarthNet.uav[49] utilizationEnergyOverdrawMaintenance 0
scalar OsgEarthNet.uav[49] utilizationCountMissions 46
scalar OsgEarthNet.uav[49] utilizationCountManeuversMission 445
scalar OsgEarthNet.uav[49] utilizationCountManeuversMaintenance 92
scalar OsgEarthNet.uav[49] utilizationCountChargeState 46
scalar OsgEarthNet.uav[49] utilizationCountOverdrawnAfterMission 0
scalar OsgEarthNet.uav[49] utilizationCountIdleState 47
scalar OsgEarthNet.uav[49] utilizationFail 0
scalar OsgEarthNet.uav[49] simulationTime 259200
scalar OsgEarthNet.uav[50] utilizationSecMission 1668.029113901
scalar OsgEarthNet.uav[50] utilizationSecMaintenance 872.61393997355
scalar OsgEarthNet.uav[50] utilizationSecCharge 6924.20195491
scalar OsgEarthNet.uav[50] utilizationSecIdle 249735.15399122
scalar OsgEarthNet.uav[50] utilizationEnergyMission 7996.4687347412
scalar OsgEarthNet.uav[50] utilizationEnergyMaintenance 4032.2788734436
scalar OsgEarthNet.uav[50] utilizationEnergyCharge 8460.8571777344
scalar OsgEarthNet.uav[50] utilizationEnergyOverdrawMission 0
scalar OsgEarthNet.uav[50] utilizationEnergyOverdrawMaintenance 0
scalar OsgEarthNet.uav[50] utilizationCountMissions 3
scalar OsgEarthNet.uav[50] utilizationCountManeuversMission 28
scalar OsgEarthNet.uav[50] utilizationCountManeuversMaintenance 6
scalar OsgEarthNet.uav[50] utilizationCountChargeState 3
scalar OsgEarthNet.uav[50] utilizationCountOverdrawnAfterMission 0
scalar OsgEarthNet.uav[50] utilizationCountIdleState 3
scalar OsgEarthNet.uav[50] utilizationFail 0
scalar OsgEarthNet.uav[50] simulationTime 259200
scalar OsgEarthNet.uav[51] utilizationSecMission 12773.563812205
scalar OsgEarthNet.uav[51] utilizationSecMaintenance 6545.4427247525
scalar OsgEarthNet.uav[51] utilizationSecCharge 74780
scalar OsgEarthNet.uav[51] utilizationSecIdle 165100.99246304
scalar OsgEarthNet.uav[51] utilizationEnergyMission 58414.788955688
scalar OsgEarthNet.uav[51] utilizationEnergyMaintenance 30575.850879669
scalar OsgEarthNet.uav[51] utilizationEnergyCharge 89281.703369141
scalar OsgEarthNet.uav[51] utilizationEnergyOverdrawMission 0
scalar OsgEarthNet.uav[51] utilizationEnergyOverdrawMaintenance 0
scalar OsgEarthNet.uav[51] utilizationCountMissions 23
scalar OsgEarthNet.uav[51] utilizationCountManeuversMission 214
scalar OsgEarthNet.uav[51] utilizationCountManeuversMaintenance 46
scalar OsgEarthNet.uav[51] utilizationCountChargeState 23
scalar OsgEarthNet.uav[51] utilizationCountOverdrawnAfterMission 0
scalar OsgEarthNet.uav[51] utilizationCountIdleState 24
scalar OsgEarthNet.uav[51] utilizationFail 0
scalar OsgEarthNet.uav[51] simulationTime 259200
scalar OsgEarthNet.uav[52] utilizationSecMission 887.1741082606
scalar OsgEarthNet.uav[52] utilizationSecMaintenance 125.81102573108
scalar OsgEarthNet.uav[52] utilizationSecCharge 3660
scalar OsgEarthNet.uav[52] utilizationSecIdle 254527.01386601
scalar OsgEarthNet.uav[52] utilizationEnergyMission 4237.7660827637
scalar OsgEarthNet.uav[52] utilizationEnergyMaintenance 555.58701324463
scalar OsgEarthNet.uav[52] utilizationEnergyCharge 4524.5009765625
scalar OsgEarthNet.uav[52] utilizationEnergyOverdrawMission 0
scalar OsgEarthNet.uav[52] utilizationEnergyOverdrawMaintenance 0
scalar OsgEarthNet.uav[52] utilizationCountMissions 1
scalar OsgEarthNet.uav[52] utilizationCountManeuversMission 14
scalar OsgEarthNet.uav[52] utilizationCountManeuversMaintenance 2
scalar OsgEarthNet.uav[52] utilizationCountChargeState 1
scalar OsgEarthNet.uav[52] utilizationCountOverdrawnAfterMission 0
scalar OsgEarthNet.uav[52] utilizationCountIdleState 2
scalar OsgEarthNet.uav[52] utilizationFail 0
scalar OsgEarthNet.uav[52] simulationTime 259200
scalar OsgEarthNet.uav[53] utilizationSecMission 760.62515258028
scalar OsgEarthNet.uav[53] utilizationSecMaintenance 245.74410321072
scalar OsgEarthNet.uav[53] utilizationSecCharge 3630
scalar OsgEarthNet.uav[53] utilizationSecIdle 254563.62974421
scalar OsgEarthNet.uav[53] utilizationEnergyMission 3478.7556838989
scalar OsgEarthNet.uav[53] utilizationEnergyMaintenance 1042.7065544128
scalar OsgEarthNet.uav[53] utilizationEnergyCharge 4521.4643554688
scalar OsgEarthNet.uav[53] utilizationEnergyOverdrawMission 0
scalar OsgEarthNet.uav[53] utilizationEnergyOverdrawMaintenance 0
scalar OsgEarthNet.uav[53] utilizationCountMissions 1
scalar OsgEarthNet.uav[53] utilizationCountManeuversMission 12
scalar OsgEarthNet.uav[53] utilizationCountManeuversMaintenance 2
scalar OsgEarthNet.uav[53] utilizationCountChargeState 1
scalar OsgEarthNet.uav[53] utilizationCountOverdrawnAfterMission 0
scalar OsgEarthNet.uav[53] utilizationCountIdleState 2
scalar OsgEarthNet.uav[53] utilizationFail 0
scalar OsgEarthNet.uav[53] simulationTime 259200
scalar OsgEarthNet.uav[54] utilizationSecMission 24464.293865692
scalar OsgEarthNet.uav[54] utilizationSecMaintenance 10334.151543749
scalar OsgEarthNet.uav[54] utilizationSecCharge 132864.14369921
scalar OsgEarthNet.uav[54] utilizationSecIdle 91537.40989135
scalar OsgEarthNet.uav[54] utilizationEnergyMission 111507.55106354
scalar OsgEarthNet.uav[54] utilizationEnergyMaintenance 49041.866966248
scalar OsgEarthNet.uav[54] utilizationEnergyCharge 159719.40551758
scalar OsgEarthNet.uav[54] utilizationEnergyOverdrawMission 0
scalar OsgEarthNet.uav[54] utilizationEnergyOverdrawMaintenance 0
scalar OsgEarthNet.uav[54] utilizationCountMissions 41
scalar OsgEarthNet.uav[54] utilizationCountManeuversMission 396
scalar OsgEarthNet.uav[54] utilizationCountManeuversMaintenance 82
scalar OsgEarthNet.uav[54] utilizationCountChargeState 41
scalar OsgEarthNet.uav[54] utilizationCountOverdrawnAfterMission 0
scalar OsgEarthNet.uav[54] utilizationCountIdleState 41
scalar OsgEarthNet.uav[54] utilizationFail 0
scalar OsgEarthNet.uav[54] simulationTime 259200
scalar OsgEarthNet.uav[55] utilizationSecMission 1774.3482165212
scalar OsgEarthNet.uav[55] utilizationSecMaintenance 241.74272053182
scalar OsgEarthNet.uav[55] utilizationSecCharge 7270
scalar OsgEarthNet.uav[55] utilizationSecIdle 249913.90806295
scalar OsgEarthNet.uav[55] utilizationEnergyMission 7900.0458984375
scalar OsgEarthNet.uav[55] utilizationEnergyMaintenance 1048.6077308655
scalar OsgEarthNet.uav[55] utilizationEnergyCharge 9022.4458007812
scalar OsgEarthNet.uav[55] utilizationEnergyOverdrawMission 0
scalar OsgEarthNet.uav[55] utilizationEnergyOverdrawMaintenance 0
scalar OsgEarthNet.uav[55] utilizationCountMissions 2
scalar OsgEarthNet.uav[55] utilizationCountManeuversMission 28
scalar OsgEarthNet.uav[55] utilizationCountManeuversMaintenance 4
scalar OsgEarthNet.uav[55] utilizationCountChargeState 2
scalar OsgEarthNet.uav[55] utilizationCountOverdrawnAfterMission 0
scalar OsgEarthNet.uav[55] utilizationCountIdleState 3
scalar OsgEarthNet.uav[55] utilizationFail 0
scalar OsgEarthNet.uav[55] simulationTime 259200
scalar OsgEarthNet.uav[56] utilizationSecMission 29157.633776517
scalar OsgEarthNet.uav[56] utilizationSecMaintenance 14729.441345082
scalar OsgEarthNet.uav[56] utilizationSecCharge 167110
scalar OsgEarthNet.uav[56] utilizationSecIdle 48202.923878401
scalar OsgEarthNet.uav[56] utilizationEnergyMission 135881.30245972
scalar OsgEarthNet.uav[56] utilizationEnergyMaintenance 68597.814769745
scalar OsgEarthNet.uav[56] utilizationEnergyCharge 203727.98803711
scalar OsgEarthNet.uav[56] utilizationEnergyOverdrawMission 0
scalar OsgEarthNet.uav[56] utilizationEnergyOverdrawMaintenance 0
scalar OsgEarthNet.uav[56] utilizationCountMissions 49
scalar OsgEarthNet.uav[56] utilizationCountManeuversMission 486
scalar OsgEarthNet.uav[56] utilizationCountManeuversMaintenance 98
scalar OsgEarthNet.uav[56] utilizationCountChargeState 49
scalar OsgEarthNet.uav[56] utilizationCountOverdrawnAfterMission 0
scalar OsgEarthNet.uav[56] utilizationCountIdleState 50
scalar OsgEarthNet.uav[56] utilizationFail 0
scalar OsgEarthNet.uav[56] simulationTime 259200
scalar OsgEarthNet.uav[57] utilizationSecMission 8604.837735557
scalar OsgEarthNet.uav[57] utilizationSecMaintenance 4438.2163452428
scalar OsgEarthNet.uav[57] utilizationSecCharge 50960
scalar OsgEarthNet.uav[57] utilizationSecIdle 195196.9449192
scalar OsgEarthNet.uav[57] utilizationEnergyMission 41041.475730896
scalar OsgEarthNet.uav[57] utilizationEnergyMaintenance 20746.243041992
scalar OsgEarthNet.uav[57] utilizationEnergyCharge 61907.023681641
scalar OsgEarthNet.uav[57] utilizationEnergyOverdrawMission 0
scalar OsgEarthNet.uav[57] utilizationEnergyOverdrawMaintenance 0
scalar OsgEarthNet.uav[57] utilizationCountMissions 15
scalar OsgEarthNet.uav[57] utilizationCountManeuversMission 144
scalar OsgEarthNet.uav[57] utilizationCountManeuversMaintenance 30
scalar OsgEarthNet.uav[57] utilizationCountChargeState 15
scalar OsgEarthNet.uav[57] utilizationCountOverdrawnAfterMission 0
scalar OsgEarthNet.uav[57] utilizationCountIdleState 16
scalar OsgEarthNet.uav[57] utilizationFail 0
scalar OsgEarthNet.uav[57] simulationTime 259200
scalar OsgEarthNet.uav[58] utilizationSecMission 887.1741082606
scalar OsgEarthNet.uav[58] utilizationSecMaintenance 125.81102573108
scalar OsgEarthNet.uav[58] utilizationSecCharge 3800
scalar OsgEarthNet.uav[58] utilizationSecIdle 254387.01386601
scalar OsgEarthNet.uav[58] utilizationEnergyMission 4228.8921051025
scalar OsgEarthNet.uav[58] utilizationEnergyMaintenance 605.87366485596
scalar OsgEarthNet.uav[58] utilizationEnergyCharge 4818.712890625
scalar OsgEarthNet.uav[58] utilizationEnergyOverdrawMission 0
scalar OsgEarthNet.uav[58] utilizationEnergyOverdrawMaintenance 0
scalar OsgEarthNet.uav[58] utilizationCountMissions 1
scalar OsgEarthNet.uav[58] utilizationCountManeuversMission 14
scalar OsgEarthNet.uav[58] utilizationCountManeuversMaintenance 2
scalar OsgEarthNet.uav[58] utilizationCountChargeState 1
scalar OsgEarthNet.uav[58] utilizationCountOverdrawnAfterMission 0
scalar OsgEarthNet.uav[58] utilizationCountIdleState 2
scalar OsgEarthNet.uav[58] utilizationFail 0
scalar OsgEarthNet.uav[58] simulationTime 259200
scalar OsgEarthNet.uav[59] utilizationSecMission 570.98871244881
scalar OsgEarthNet.uav[59] utilizationSecMaintenance 276.2282017063
scalar OsgEarthNet.uav[59] utilizationSecCharge 3390
scalar OsgEarthNet.uav[59] utilizationSecIdle 254962.78208584
scalar OsgEarthNet.uav[59] utilizationEnergyMission 2814.7068634033
scalar OsgEarthNet.uav[59] utilizationEnergyMaintenance 1329.2303276062
scalar OsgEarthNet.uav[59] utilizationEnergyCharge 4143.9370117188
scalar OsgEarthNet.uav[59] utilizationEnergyOverdrawMission 0
scalar OsgEarthNet.uav[59] utilizationEnergyOverdrawMaintenance 0
scalar OsgEarthNet.uav[59] utilizationCountMissions 1
scalar OsgEarthNet.uav[59] utilizationCountManeuversMission 8
scalar OsgEarthNet.uav[59] utilizationCountManeuversMaintenance 2
scalar OsgEarthNet.uav[59] utilizationCountChargeState 1
scalar OsgEarthNet.uav[59] utilizationCountOverdrawnAfterMission 0
scalar OsgEarthNet.uav[59] utilizationCountIdleState 2
scalar OsgEarthNet.uav[59] utilizationFail 0
scalar OsgEarthNet.uav[59] simulationTime 259200
scalar OsgEarthNet.uav[60] utilizationSecMission 179.21601502944
scalar OsgEarthNet.uav[60] utilizationSecMaintenance 354.43405905663
scalar OsgEarthNet.uav[60] utilizationSecCharge 2430
scalar OsgEarthNet.uav[60] utilizationSecIdle 256236.34892591
scalar OsgEarthNet.uav[60] utilizationEnergyMission 772.25242614746
scalar OsgEarthNet.uav[60] utilizationEnergyMaintenance 1703.973777771
scalar OsgEarthNet.uav[60] utilizationEnergyCharge 2476.2248535156
scalar OsgEarthNet.uav[60] utilizationEnergyOverdrawMission 0
scalar OsgEarthNet.uav[60] utilizationEnergyOverdrawMaintenance 0
scalar OsgEarthNet.uav[60] utilizationCountMissions 1
scalar OsgEarthNet.uav[60] utilizationCountManeuversMission 3
scalar OsgEarthNet.uav[60] utilizationCountManeuversMaintenance 2
scalar OsgEarthNet.uav[60] utilizationCountChargeState 1
scalar OsgEarthNet.uav[60] utilizationCountOverdrawnAfterMission 0
scalar OsgEarthNet.uav[60] utilizationCountIdleState 2
scalar OsgEarthNet.uav[60] utilizationFail 0
scalar OsgEarthNet.uav[60] simulationTime 259200
scalar OsgEarthNet.uav[61] utilizationSecMission 21264.14053755
scalar OsgEarthNet.uav[61] utilizationSecMaintenance 8831.0969461425
scalar OsgEarthNet.uav[61] utilizationSecCharge 115270.61868668
scalar OsgEarthNet.uav[61] utilizationSecIdle 113834.14282963
scalar OsgEarthNet.uav[61] utilizationEnergyMission 97880.704872131
scalar OsgEarthNet.uav[61] utilizationEnergyMaintenance 42827.246047974
scalar OsgEarthNet.uav[61] utilizationEnergyCharge 140396.44042969
scalar OsgEarthNet.uav[61] utilizationEnergyOverdrawMission 0
scalar OsgEarthNet.uav[61] utilizationEnergyOverdrawMaintenance 0
scalar OsgEarthNet.uav[61] utilizationCountMissions 35
scalar OsgEarthNet.uav[61] utilizationCountManeuversMission 344
scalar OsgEarthNet.uav[61] utilizationCountManeuversMaintenance 70
scalar OsgEarthNet.uav[61] utilizationCountChargeState 35
scalar OsgEarthNet.uav[61] utilizationCountOverdrawnAfterMission 0
scalar OsgEarthNet.uav[61] utilizationCountIdleState 35
scalar OsgEarthNet.uav[61] utilizationFail 0
scalar OsgEarthNet.uav[61] simulationTime 259200
scalar OsgEarthNet.uav[62] utilizationSecMission 31931.156248974
scalar OsgEarthNet.uav[62] utilizationSecMaintenance 11476.207387659
scalar OsgEarthNet.uav[62] utilizationSecCharge 164658.95217329
scalar OsgEarthNet.uav[62] utilizationSecIdle 51133.683190079
scalar OsgEarthNet.uav[62] utilizationEnergyMission 147413.71891785
scalar OsgEarthNet.uav[62] utilizationEnergyMaintenance 54789.1498909
scalar OsgEarthNet.uav[62] utilizationEnergyCharge 199297.94799805
scalar OsgEarthNet.uav[62] utilizationEnergyOverdrawMission 0
scalar OsgEarthNet.uav[62] utilizationEnergyOverdrawMaintenance 0
scalar OsgEarthNet.uav[62] utilizationCountMissions 50
scalar OsgEarthNet.uav[62] utilizationCountManeuversMission 514
scalar OsgEarthNet.uav[62] utilizationCountManeuversMaintenance 100
scalar OsgEarthNet.uav[62] utilizationCountChargeState 50
scalar OsgEarthNet.uav[62] utilizationCountOverdrawnAfterMission 0
scalar OsgEarthNet.uav[62] utilizationCountIdleState 50
scalar OsgEarthNet.uav[62] utilizationFail 0
scalar OsgEarthNet.uav[62] simulationTime 259200
scalar OsgEarthNet.uav[63] utilizationSecMission 684.4732299383
scalar OsgEarthNet.uav[63] utilizationSecMaintenance 298.56834692969
scalar OsgEarthNet.uav[63] utilizationSecCharge 3600
scalar OsgEarthNet.uav[63] utilizationSecIdle 254616.95742313
scalar OsgEarthNet.uav[63] utilizationEnergyMission 3135.343460083
scalar OsgEarthNet.uav[63] utilizationEnergyMaintenance 1347.1522750854
scalar OsgEarthNet.uav[63] utilizationEnergyCharge 4482.4956054688
scalar OsgEarthNet.uav[63] utilizationEnergyOverdrawMission 0
scalar OsgEarthNet.uav[63] utilizationEnergyOverdrawMaintenance 0
scalar OsgEarthNet.uav[63] utilizationCountMissions 1
scalar OsgEarthNet.uav[63] utilizationCountManeuversMission 11
scalar OsgEarthNet.uav[63] utilizationCountManeuversMaintenance 2
scalar OsgEarthNet.uav[63] utilizationCountChargeState 1
scalar OsgEarthNet.uav[63] utilizationCountOverdrawnAfterMission 0
scalar OsgEarthNet.uav[63] utilizationCountIdleState 2
scalar OsgEarthNet.uav[63] utilizationFail 0
scalar OsgEarthNet.uav[63] simulationTime 259200
scalar OsgEarthNet.uav[64] utilizationSecMission 3158.5958592563
scalar OsgEarthNet.uav[64] utilizationSecMaintenance 1547.7827072611
scalar OsgEarthNet.uav[64] utilizationSecCharge 19200
scalar OsgEarthNet.uav[64] utilizationSecIdle 235293.62043348
scalar OsgEarthNet.uav[64] utilizationEnergyMission 14942.119018555
scalar OsgEarthNet.uav[64] utilizationEnergyMaintenance 7806.841129303
scalar OsgEarthNet.uav[64] utilizationEnergyCharge 22748.970214844
scalar OsgEarthNet.uav[64] utilizationEnergyOverdrawMission 0
scalar OsgEarthNet.uav[64] utilizationEnergyOverdrawMaintenance 0
scalar OsgEarthNet.uav[64] utilizationCountMissions 6
scalar OsgEarthNet.uav[64] utilizationCountManeuversMission 54
scalar OsgEarthNet.uav[64] utilizationCountManeuversMaintenance 12
scalar OsgEarthNet.uav[64] utilizationCountChargeState 6
scalar OsgEarthNet.uav[64] utilizationCountOverdrawnAfterMission 0
scalar OsgEarthNet.uav[64] utilizationCountIdleState 7
scalar OsgEarthNet.uav[64] utilizationFail 0
scalar OsgEarthNet.uav[64] simulationTime 259200
scalar OsgEarthNet.uav[65] utilizationSecMission 29236.067221689
scalar OsgEarthNet.uav[65] utilizationSecMaintenance 12268.726339031
scalar OsgEarthNet.uav[65] utilizationSecCharge 158688.75687414
scalar OsgEarthNet.uav[65] utilizationSecIdle 59006.448565144
[...]
scalar OsgEarthNet.uav[82] utilizationEnergyMission 120438.35738373
scalar OsgEarthNet.uav[82] utilizationEnergyMaintenance 38145.803031921
scalar OsgEarthNet.uav[82] utilizationEnergyCharge 158129.87695312
scalar OsgEarthNet.uav[82] utilizationEnergyOverdrawMission 0
scalar OsgEarthNet.uav[82] utilizationEnergyOverdrawMaintenance 0
scalar OsgEarthNet.uav[82] utilizationCountMissions 36
scalar OsgEarthNet.uav[82] utilizationCountManeuversMission 416
scalar OsgEarthNet.uav[82] utilizationCountManeuversMaintenance 72
scalar OsgEarthNet.uav[82] utilizationCountChargeState 36
scalar OsgEarthNet.uav[82] utilizationCountOverdrawnAfterMission 0
scalar OsgEarthNet.uav[82] utilizationCountIdleState 36
scalar OsgEarthNet.uav[82] utilizationFail 0
scalar OsgEarthNet.uav[82] simulationTime 259200
scalar OsgEarthNet.uav[83] utilizationSecMission 443.5870541303
scalar OsgEarthNet.uav[83] utilizationSecMaintenance 425.80795651079
scalar OsgEarthNet.uav[83] utilizationSecCharge 3400
scalar OsgEarthNet.uav[83] utilizationSecIdle 254930.60398936
scalar OsgEarthNet.uav[83] utilizationEnergyMission 2074.9504089355
scalar OsgEarthNet.uav[83] utilizationEnergyMaintenance 1930.6587486267
scalar OsgEarthNet.uav[83] utilizationEnergyCharge 4159.3642578125
scalar OsgEarthNet.uav[83] utilizationEnergyOverdrawMission 0
scalar OsgEarthNet.uav[83] utilizationEnergyOverdrawMaintenance 0
scalar OsgEarthNet.uav[83] utilizationCountMissions 1
scalar OsgEarthNet.uav[83] utilizationCountManeuversMission 7
scalar OsgEarthNet.uav[83] utilizationCountManeuversMaintenance 2
scalar OsgEarthNet.uav[83] utilizationCountChargeState 1
scalar OsgEarthNet.uav[83] utilizationCountOverdrawnAfterMission 0
scalar OsgEarthNet.uav[83] utilizationCountIdleState 2
scalar OsgEarthNet.uav[83] utilizationFail 0
scalar OsgEarthNet.uav[83] simulationTime 259200
scalar OsgEarthNet.uav[84] utilizationSecMission 2932.1668184114
scalar OsgEarthNet.uav[84] utilizationSecMaintenance 1362.8058042448
scalar OsgEarthNet.uav[84] utilizationSecCharge 16680
scalar OsgEarthNet.uav[84] utilizationSecIdle 238225.02637734
scalar OsgEarthNet.uav[84] utilizationEnergyMission 13615.896846771
scalar OsgEarthNet.uav[84] utilizationEnergyMaintenance 6650.3930282593
scalar OsgEarthNet.uav[84] utilizationEnergyCharge 20012.757568359
scalar OsgEarthNet.uav[84] utilizationEnergyOverdrawMission 0
scalar OsgEarthNet.uav[84] utilizationEnergyOverdrawMaintenance 0
scalar OsgEarthNet.uav[84] utilizationCountMissions 5
scalar OsgEarthNet.uav[84] utilizationCountManeuversMission 50
scalar OsgEarthNet.uav[84] utilizationCountManeuversMaintenance 10
scalar OsgEarthNet.uav[84] utilizationCountChargeState 5
scalar OsgEarthNet.uav[84] utilizationCountOverdrawnAfterMission 0
scalar OsgEarthNet.uav[84] utilizationCountIdleState 6
scalar OsgEarthNet.uav[84] utilizationFail 0
scalar OsgEarthNet.uav[84] simulationTime 259200
scalar OsgEarthNet.uav[85] utilizationSecMission 28377.28574357
scalar OsgEarthNet.uav[85] utilizationSecMaintenance 14774.596556572
scalar OsgEarthNet.uav[85] utilizationSecCharge 166196.11669986
scalar OsgEarthNet.uav[85] utilizationSecIdle 49852
scalar OsgEarthNet.uav[85] utilizationEnergyMission 131226.56135234
scalar OsgEarthNet.uav[85] utilizationEnergyMaintenance 70223.651081085
scalar OsgEarthNet.uav[85] utilizationEnergyCharge 200056.90380859
scalar OsgEarthNet.uav[85] utilizationEnergyOverdrawMission 0
scalar OsgEarthNet.uav[85] utilizationEnergyOverdrawMaintenance 0
scalar OsgEarthNet.uav[85] utilizationCountMissions 51
scalar OsgEarthNet.uav[85] utilizationCountManeuversMission 466
scalar OsgEarthNet.uav[85] utilizationCountManeuversMaintenance 101
scalar OsgEarthNet.uav[85] utilizationCountChargeState 51
scalar OsgEarthNet.uav[85] utilizationCountOverdrawnAfterMission 0
scalar OsgEarthNet.uav[85] utilizationCountIdleState 51
scalar OsgEarthNet.uav[85] utilizationFail 0
scalar OsgEarthNet.uav[85] simulationTime 259200
scalar OsgEarthNet.uav[86] utilizationSecMission 750.20472747826
scalar OsgEarthNet.uav[86] utilizationSecMaintenance 261.68051383311
scalar OsgEarthNet.uav[86] utilizationSecCharge 3780
scalar OsgEarthNet.uav[86] utilizationSecIdle 254408.11375869
scalar OsgEarthNet.uav[86] utilizationEnergyMission 3450.0289764404
scalar OsgEarthNet.uav[86] utilizationEnergyMaintenance 1327.0047721863
scalar OsgEarthNet.uav[86] utilizationEnergyCharge 4777.0336914062
scalar OsgEarthNet.uav[86] utilizationEnergyOverdrawMission 0
scalar OsgEarthNet.uav[86] utilizationEnergyOverdrawMaintenance 0
scalar OsgEarthNet.uav[86] utilizationCountMissions 1
scalar OsgEarthNet.uav[86] utilizationCountManeuversMission 11
scalar OsgEarthNet.uav[86] utilizationCountManeuversMaintenance 2
scalar OsgEarthNet.uav[86] utilizationCountChargeState 1
scalar OsgEarthNet.uav[86] utilizationCountOverdrawnAfterMission 0
scalar OsgEarthNet.uav[86] utilizationCountIdleState 2
scalar OsgEarthNet.uav[86] utilizationFail 0
scalar OsgEarthNet.uav[86] simulationTime 259200
scalar OsgEarthNet.uav[87] utilizationSecMission 27770.884217464
scalar OsgEarthNet.uav[87] utilizationSecMaintenance 12945.598243828
scalar OsgEarthNet.uav[87] utilizationSecCharge 152510.93213728
scalar OsgEarthNet.uav[87] utilizationSecIdle 65972.584401428
scalar OsgEarthNet.uav[87] utilizationEnergyMission 129828.38222504
scalar OsgEarthNet.uav[87] utilizationEnergyMaintenance 60564.332057953
scalar OsgEarthNet.uav[87] utilizationEnergyCharge 187072.98425293
scalar OsgEarthNet.uav[87] utilizationEnergyOverdrawMission 0
scalar OsgEarthNet.uav[87] utilizationEnergyOverdrawMaintenance 0
scalar OsgEarthNet.uav[87] utilizationCountMissions 45
scalar OsgEarthNet.uav[87] utilizationCountManeuversMission 473
scalar OsgEarthNet.uav[87] utilizationCountManeuversMaintenance 90
scalar OsgEarthNet.uav[87] utilizationCountChargeState 45
scalar OsgEarthNet.uav[87] utilizationCountOverdrawnAfterMission 0
scalar OsgEarthNet.uav[87] utilizationCountIdleState 45
scalar OsgEarthNet.uav[87] utilizationFail 0
scalar OsgEarthNet.uav[87] simulationTime 259200
scalar OsgEarthNet.uav[88] utilizationSecMission 26759.889348848
scalar OsgEarthNet.uav[88] utilizationSecMaintenance 12926.097185099
scalar OsgEarthNet.uav[88] utilizationSecCharge 151797.35816406
scalar OsgEarthNet.uav[88] utilizationSecIdle 67716.654301995
scalar OsgEarthNet.uav[88] utilizationEnergyMission 122956.37258911
scalar OsgEarthNet.uav[88] utilizationEnergyMaintenance 60869.418411255
scalar OsgEarthNet.uav[88] utilizationEnergyCharge 183729.93701172
scalar OsgEarthNet.uav[88] utilizationEnergyOverdrawMission 0
scalar OsgEarthNet.uav[88] utilizationEnergyOverdrawMaintenance 0
scalar OsgEarthNet.uav[88] utilizationCountMissions 46
scalar OsgEarthNet.uav[88] utilizationCountManeuversMission 430
scalar OsgEarthNet.uav[88] utilizationCountManeuversMaintenance 92
scalar OsgEarthNet.uav[88] utilizationCountChargeState 46
scalar OsgEarthNet.uav[88] utilizationCountOverdrawnAfterMission 0
scalar OsgEarthNet.uav[88] utilizationCountIdleState 46
scalar OsgEarthNet.uav[88] utilizationFail 0
scalar OsgEarthNet.uav[88] simulationTime 259200
scalar OsgEarthNet.uav[89] utilizationSecMission 570.98871244881
scalar OsgEarthNet.uav[89] utilizationSecMaintenance 276.2282017063
scalar OsgEarthNet.uav[89] utilizationSecCharge 3280
scalar OsgEarthNet.uav[89] utilizationSecIdle 255072.78208584
scalar OsgEarthNet.uav[89] utilizationEnergyMission 2671.6290435791
scalar OsgEarthNet.uav[89] utilizationEnergyMaintenance 1271.8141288757
scalar OsgEarthNet.uav[89] utilizationEnergyCharge 3943.4438476562
scalar OsgEarthNet.uav[89] utilizationEnergyOverdrawMission 0
scalar OsgEarthNet.uav[89] utilizationEnergyOverdrawMaintenance 0
scalar OsgEarthNet.uav[89] utilizationCountMissions 1
scalar OsgEarthNet.uav[89] utilizationCountManeuversMission 8
scalar OsgEarthNet.uav[89] utilizationCountManeuversMaintenance 2
scalar OsgEarthNet.uav[89] utilizationCountChargeState 1
scalar OsgEarthNet.uav[89] utilizationCountOverdrawnAfterMission 0
scalar OsgEarthNet.uav[89] utilizationCountIdleState 2
scalar OsgEarthNet.uav[89] utilizationFail 0
scalar OsgEarthNet.uav[89] simulationTime 259200
scalar OsgEarthNet.uav[90] utilizationSecMission 13299.753573402
scalar OsgEarthNet.uav[90] utilizationSecMaintenance 5695.6991414893
scalar OsgEarthNet.uav[90] utilizationSecCharge 73313.569677462
scalar OsgEarthNet.uav[90] utilizationSecIdle 166890.97660765
scalar OsgEarthNet.uav[90] utilizationEnergyMission 61187.810386658
scalar OsgEarthNet.uav[90] utilizationEnergyMaintenance 27320.448806763
scalar OsgEarthNet.uav[90] utilizationEnergyCharge 88612.754150391
scalar OsgEarthNet.uav[90] utilizationEnergyOverdrawMission 0
scalar OsgEarthNet.uav[90] utilizationEnergyOverdrawMaintenance 0
scalar OsgEarthNet.uav[90] utilizationCountMissions 22
scalar OsgEarthNet.uav[90] utilizationCountManeuversMission 211
scalar OsgEarthNet.uav[90] utilizationCountManeuversMaintenance 44
scalar OsgEarthNet.uav[90] utilizationCountChargeState 22
scalar OsgEarthNet.uav[90] utilizationCountOverdrawnAfterMission 0
scalar OsgEarthNet.uav[90] utilizationCountIdleState 22
scalar OsgEarthNet.uav[90] utilizationFail 0
scalar OsgEarthNet.uav[90] simulationTime 259200
scalar OsgEarthNet.uav[91] utilizationSecMission 21079.252070069
scalar OsgEarthNet.uav[91] utilizationSecMaintenance 9184.7753379452
scalar OsgEarthNet.uav[91] utilizationSecCharge 119650
scalar OsgEarthNet.uav[91] utilizationSecIdle 109285.97159199
scalar OsgEarthNet.uav[91] utilizationEnergyMission 99051.079334426
scalar OsgEarthNet.uav[91] utilizationEnergyMaintenance 44325.490314484
scalar OsgEarthNet.uav[91] utilizationEnergyCharge 142659.24658203
scalar OsgEarthNet.uav[91] utilizationEnergyOverdrawMission 0
scalar OsgEarthNet.uav[91] utilizationEnergyOverdrawMaintenance 0
scalar OsgEarthNet.uav[91] utilizationCountMissions 37
scalar OsgEarthNet.uav[91] utilizationCountManeuversMission 342
scalar OsgEarthNet.uav[91] utilizationCountManeuversMaintenance 75
scalar OsgEarthNet.uav[91] utilizationCountChargeState 37
scalar OsgEarthNet.uav[91] utilizationCountOverdrawnAfterMission 0
scalar OsgEarthNet.uav[91] utilizationCountIdleState 38
scalar OsgEarthNet.uav[91] utilizationFail 0
scalar OsgEarthNet.uav[91] simulationTime 259200
scalar OsgEarthNet.uav[92] utilizationSecMission 7398.5334701728
scalar OsgEarthNet.uav[92] utilizationSecMaintenance 3642.7609741888
scalar OsgEarthNet.uav[92] utilizationSecCharge 41668.694914068
scalar OsgEarthNet.uav[92] utilizationSecIdle 206490.00964157
scalar OsgEarthNet.uav[92] utilizationEnergyMission 34738.923500061
scalar OsgEarthNet.uav[92] utilizationEnergyMaintenance 17555.06231308
scalar OsgEarthNet.uav[92] utilizationEnergyCharge 52506.122070312
scalar OsgEarthNet.uav[92] utilizationEnergyOverdrawMission 0
scalar OsgEarthNet.uav[92] utilizationEnergyOverdrawMaintenance 0
scalar OsgEarthNet.uav[92] utilizationCountMissions 12
scalar OsgEarthNet.uav[92] utilizationCountManeuversMission 127
scalar OsgEarthNet.uav[92] utilizationCountManeuversMaintenance 24
scalar OsgEarthNet.uav[92] utilizationCountChargeState 12
scalar OsgEarthNet.uav[92] utilizationCountOverdrawnAfterMission 0
scalar OsgEarthNet.uav[92] utilizationCountIdleState 12
scalar OsgEarthNet.uav[92] utilizationFail 0
scalar OsgEarthNet.uav[92] simulationTime 259200
scalar OsgEarthNet.uav[93] utilizationSecMission 28769.988788096
scalar OsgEarthNet.uav[93] utilizationSecMaintenance 14477.988744886
scalar OsgEarthNet.uav[93] utilizationSecCharge 165200.02146702
scalar OsgEarthNet.uav[93] utilizationSecIdle 50752
scalar OsgEarthNet.uav[93] utilizationEnergyMission 133159.76063919
scalar OsgEarthNet.uav[93] utilizationEnergyMaintenance 68307.395927429
scalar OsgEarthNet.uav[93] utilizationEnergyCharge 200425.39990234
scalar OsgEarthNet.uav[93] utilizationEnergyOverdrawMission 0
scalar OsgEarthNet.uav[93] utilizationEnergyOverdrawMaintenance 0
scalar OsgEarthNet.uav[93] utilizationCountMissions 50
scalar OsgEarthNet.uav[93] utilizationCountManeuversMission 470
scalar OsgEarthNet.uav[93] utilizationCountManeuversMaintenance 99
scalar OsgEarthNet.uav[93] utilizationCountChargeState 50
scalar OsgEarthNet.uav[93] utilizationCountOverdrawnAfterMission 0
scalar OsgEarthNet.uav[93] utilizationCountIdleState 50
scalar OsgEarthNet.uav[93] utilizationFail 0
scalar OsgEarthNet.uav[93] simulationTime 259200
scalar OsgEarthNet.uav[94] utilizationSecMission 29970.291382818
scalar OsgEarthNet.uav[94] utilizationSecMaintenance 11939.599352025
scalar OsgEarthNet.uav[94] utilizationSecCharge 158315.52926715
scalar OsgEarthNet.uav[94] utilizationSecIdle 58974.578998007
scalar OsgEarthNet.uav[94] utilizationEnergyMission 140214.41786957
scalar OsgEarthNet.uav[94] utilizationEnergyMaintenance 55717.23310852
scalar OsgEarthNet.uav[94] utilizationEnergyCharge 195390.68701172
scalar OsgEarthNet.uav[94] utilizationEnergyOverdrawMission 0
scalar OsgEarthNet.uav[94] utilizationEnergyOverdrawMaintenance 0
scalar OsgEarthNet.uav[94] utilizationCountMissions 46
scalar OsgEarthNet.uav[94] utilizationCountManeuversMission 499
scalar OsgEarthNet.uav[94] utilizationCountManeuversMaintenance 92
scalar OsgEarthNet.uav[94] utilizationCountChargeState 46
scalar OsgEarthNet.uav[94] utilizationCountOverdrawnAfterMission 0
scalar OsgEarthNet.uav[94] utilizationCountIdleState 46
scalar OsgEarthNet.uav[94] utilizationFail 0
scalar OsgEarthNet.uav[94] simulationTime 259200
scalar OsgEarthNet.uav[95] utilizationSecMission 10261.447853427
scalar OsgEarthNet.uav[95] utilizationSecMaintenance 4382.1493929542
scalar OsgEarthNet.uav[95] utilizationSecCharge 54840
scalar OsgEarthNet.uav[95] utilizationSecIdle 189716.40175362
scalar OsgEarthNet.uav[95] utilizationEnergyMission 47157.124313354
scalar OsgEarthNet.uav[95] utilizationEnergyMaintenance 20291.27633667
scalar OsgEarthNet.uav[95] utilizationEnergyCharge 67034.065917969
scalar OsgEarthNet.uav[95] utilizationEnergyOverdrawMission 0
scalar OsgEarthNet.uav[95] utilizationEnergyOverdrawMaintenance 0
scalar OsgEarthNet.uav[95] utilizationCountMissions 16
scalar OsgEarthNet.uav[95] utilizationCountManeuversMission 166
scalar OsgEarthNet.uav[95] utilizationCountManeuversMaintenance 32
scalar OsgEarthNet.uav[95] utilizationCountChargeState 16
scalar OsgEarthNet.uav[95] utilizationCountOverdrawnAfterMission 0
scalar OsgEarthNet.uav[95] utilizationCountIdleState 16
scalar OsgEarthNet.uav[95] utilizationFail 0
scalar OsgEarthNet.uav[95] simulationTime 259200
scalar OsgEarthNet.uav[96] utilizationSecMission 22009.019314396
scalar OsgEarthNet.uav[96] utilizationSecMaintenance 11670.237432118
scalar OsgEarthNet.uav[96] utilizationSecCharge 131960
scalar OsgEarthNet.uav[96] utilizationSecIdle 93560.742253486
scalar OsgEarthNet.uav[96] utilizationEnergyMission 101583.43799591
scalar OsgEarthNet.uav[96] utilizationEnergyMaintenance 55484.121330261
scalar OsgEarthNet.uav[96] utilizationEnergyCharge 157065.82519531
scalar OsgEarthNet.uav[96] utilizationEnergyOverdrawMission 0
scalar OsgEarthNet.uav[96] utilizationEnergyOverdrawMaintenance 0
scalar OsgEarthNet.uav[96] utilizationCountMissions 41
scalar OsgEarthNet.uav[96] utilizationCountManeuversMission 350
scalar OsgEarthNet.uav[96] utilizationCountManeuversMaintenance 82
scalar OsgEarthNet.uav[96] utilizationCountChargeState 41
scalar OsgEarthNet.uav[96] utilizationCountOverdrawnAfterMission 0
scalar OsgEarthNet.uav[96] utilizationCountIdleState 41
scalar OsgEarthNet.uav[96] utilizationFail 0
scalar OsgEarthNet.uav[96] simulationTime 259200
scalar OsgEarthNet.uav[97] utilizationSecMission 29806.37183057
scalar OsgEarthNet.uav[97] utilizationSecMaintenance 13129.95614705
scalar OsgEarthNet.uav[97] utilizationSecCharge 164981.66951566
scalar OsgEarthNet.uav[97] utilizationSecIdle 51282.001506722
scalar OsgEarthNet.uav[97] utilizationEnergyMission 138976.4348526
scalar OsgEarthNet.uav[97] utilizationEnergyMaintenance 62961.227615356
scalar OsgEarthNet.uav[97] utilizationEnergyCharge 200051.7565918
scalar OsgEarthNet.uav[97] utilizationEnergyOverdrawMission 0
scalar OsgEarthNet.uav[97] utilizationEnergyOverdrawMaintenance 0
scalar OsgEarthNet.uav[97] utilizationCountMissions 50
scalar OsgEarthNet.uav[97] utilizationCountManeuversMission 502
scalar OsgEarthNet.uav[97] utilizationCountManeuversMaintenance 100
scalar OsgEarthNet.uav[97] utilizationCountChargeState 50
scalar OsgEarthNet.uav[97] utilizationCountOverdrawnAfterMission 0
scalar OsgEarthNet.uav[97] utilizationCountIdleState 50
scalar OsgEarthNet.uav[97] utilizationFail 0
scalar OsgEarthNet.uav[97] simulationTime 259200
scalar OsgEarthNet.uav[98] utilizationSecMission 5304.8960281563
scalar OsgEarthNet.uav[98] utilizationSecMaintenance 3706.7546882073
scalar OsgEarthNet.uav[98] utilizationSecCharge 35120
scalar OsgEarthNet.uav[98] utilizationSecIdle 215068.34828364
scalar OsgEarthNet.uav[98] utilizationEnergyMission 24275.092323303
scalar OsgEarthNet.uav[98] utilizationEnergyMaintenance 16854.046962738
scalar OsgEarthNet.uav[98] utilizationEnergyCharge 41393.614990234
scalar OsgEarthNet.uav[98] utilizationEnergyOverdrawMission 0
scalar OsgEarthNet.uav[98] utilizationEnergyOverdrawMaintenance 0
scalar OsgEarthNet.uav[98] utilizationCountMissions 11
scalar OsgEarthNet.uav[98] utilizationCountManeuversMission 87
scalar OsgEarthNet.uav[98] utilizationCountManeuversMaintenance 22
scalar OsgEarthNet.uav[98] utilizationCountChargeState 11
scalar OsgEarthNet.uav[98] utilizationCountOverdrawnAfterMission 0
scalar OsgEarthNet.uav[98] utilizationCountIdleState 12
scalar OsgEarthNet.uav[98] utilizationFail 0
scalar OsgEarthNet.uav[98] simulationTime 259200
scalar OsgEarthNet.uav[99] utilizationSecMission 14471.219292475
scalar OsgEarthNet.uav[99] utilizationSecMaintenance 8213.3871644181
scalar OsgEarthNet.uav[99] utilizationSecCharge 89270
scalar OsgEarthNet.uav[99] utilizationSecIdle 147245.39254311
scalar OsgEarthNet.uav[99] utilizationEnergyMission 65923.968955994
scalar OsgEarthNet.uav[99] utilizationEnergyMaintenance 39875.781990051
scalar OsgEarthNet.uav[99] utilizationEnergyCharge 105973.83862305
scalar OsgEarthNet.uav[99] utilizationEnergyOverdrawMission 0
scalar OsgEarthNet.uav[99] utilizationEnergyOverdrawMaintenance 0
scalar OsgEarthNet.uav[99] utilizationCountMissions 28
scalar OsgEarthNet.uav[99] utilizationCountManeuversMission 238
scalar OsgEarthNet.uav[99] utilizationCountManeuversMaintenance 56
scalar OsgEarthNet.uav[99] utilizationCountChargeState 28
scalar OsgEarthNet.uav[99] utilizationCountOverdrawnAfterMission 0
scalar OsgEarthNet.uav[99] utilizationCountIdleState 28
scalar OsgEarthNet.uav[99] utilizationFail 0
scalar OsgEarthNet.uav[99] simulationTime 259200
scalar OsgEarthNet.cs[0] usedPower 0
scalar OsgEarthNet.cs[0] chargedPower 0
scalar OsgEarthNet.cs[0] chargedMobileNodes 0
scalar OsgEarthNet.cs[0] reservations 0
scalar OsgEarthNet.cs[1] usedPower 869665.6275365
scalar OsgEarthNet.cs[1] chargedPower 869665.6275365
scalar OsgEarthNet.cs[1] chargedMobileNodes 303
scalar OsgEarthNet.cs[1] reservations 307
scalar OsgEarthNet.cs[2] usedPower 2559450.8800086
scalar OsgEarthNet.cs[2] chargedPower 2559450.8800086
scalar OsgEarthNet.cs[2] chargedMobileNodes 602
scalar OsgEarthNet.cs[2] reservations 610
scalar OsgEarthNet.cs[3] usedPower 1086227.0263242
scalar OsgEarthNet.cs[3] chargedPower 1086227.0263242
scalar OsgEarthNet.cs[3] chargedMobileNodes 246
scalar OsgEarthNet.cs[3] reservations 251
scalar OsgEarthNet.cs[4] usedPower 1079061.0342444
scalar OsgEarthNet.cs[4] chargedPower 1079061.0342444
scalar OsgEarthNet.cs[4] chargedMobileNodes 240
scalar OsgEarthNet.cs[4] reservations 244
scalar OsgEarthNet.cs[5] usedPower 898006.34873243
scalar OsgEarthNet.cs[5] chargedPower 898006.34873243
scalar OsgEarthNet.cs[5] chargedMobileNodes 203
scalar OsgEarthNet.cs[5] reservations 208
scalar OsgEarthNet.cs[6] usedPower 2150900.4589815
scalar OsgEarthNet.cs[6] chargedPower 2150900.4589815
scalar OsgEarthNet.cs[6] chargedMobileNodes 534
scalar OsgEarthNet.cs[6] reservations 539

