version 2
run Szenario_Hotel_Gabelbach-22-20180709-13:23:03-15208
attr configname Szenario_Hotel_Gabelbach
attr datetime 20180709-13:23:03
attr experiment Szenario_Hotel_Gabelbach
attr inifile omnetpp.ini
attr iterationvars "$replM=2, $biWeight=0.3"
attr iterationvarsf replM=2,biWeight=0.3-
attr measurement "$replM=2, $biWeight=0.3"
attr network OsgEarthNet
attr processid 15208
attr repetition 10
attr replication #10
attr resultdir results
attr runnumber 22
attr seedset 22
itervar biWeight 0.3
itervar replM 2
param *.osgEarthScene.scene "\"Szenario_Hotel_Gabelbach.earth\""
param *.playgroundLatitude 50.6830269
param *.playgroundLongitude 10.8538055
param *.playgroundWidth 3500m
param *.playgroundHeight 3500m
param *.numUAVs 100
param *.cs[0].posX 3537m
param *.cs[0].posY 965m
param *.cs[0].posZ 538m
param *.cs[1].posX 312m
param *.cs[1].posY 1262m
param *.cs[1].posZ 539m
param *.cs[2].posX 2185m
param *.cs[2].posY 3026m
param *.cs[2].posZ 777m
param *.cs[3].posX 10m
param *.cs[3].posY 2200m
param *.cs[3].posZ 560m
param *.cs[4].posX 750m
param *.cs[4].posY 200m
param *.cs[4].posZ 540m
param *.cs[5].posX 2450m
param *.cs[5].posY 180m
param *.cs[5].posZ 524m
param *.cs[6].posX 3140m
param *.cs[6].posY 1790m
param *.cs[6].posZ 606m
param *.numCSs 7
param *.uav[*].replacementMethod 2
param *.uav[*].weightedSumWeight 0.3
param *.*.timeStep 10s
param *.uav[*].commandPreviewCommandCount 20
param *.missionControl.missionFiles "\"missions\\\\Szenario_WB_Hotel_Gabelbach_Mission_Hotel.waypoints,missions\\\\Szenario_WB_Hotel_Gabelbach_Mission_Kickelhahn.waypoints,missions\\\\Szenario_WB_Hotel_Gabelbach_Mission_Ilmenau_Sportplatz.waypoints,missions\\\\Szenario_WB_Hotel_Gabelbach_Mission_Manebach_Mitte.waypoints,missions\\\\Szenario_WB_Hotel_Gabelbach_Mission_Manebach_Sued.waypoints\""
param *.missionControl.missionFiles "\"missions\\\\Szenario_WB_Hotel_Gabelbach_Mission_Hotel.waypoints,missions\\\\Szenario_WB_Hotel_Gabelbach_Mission_Kickelhahn.waypoints,missions\\\\Szenario_WB_Hotel_Gabelbach_Mission_Ilmenau_Sportplatz.waypoints,missions\\\\Szenario_WB_Hotel_Gabelbach_Mission_Manebach_Mitte.waypoints,missions\\\\Szenario_WB_Hotel_Gabelbach_Mission_Manebach_Sued.waypoints,missions\\\\Szenario_WB_Hotel_Gabelbach_Hover_HoheSchlaufe.waypoints,missions\\\\Szenario_WB_Hotel_Gabelbach_Hover_Kickelhahn.waypoints,missions\\\\Szenario_WB_Hotel_Gabelbach_Hover_Gabelbachskopf.waypoints,missions\\\\Szenario_WB_Hotel_Gabelbach_Hover_Dachskopf.waypoints\""
param *.uav[0].startX 3537m
param *.uav[0].startY 965m
param *.uav[0].startZ 539m
param *.uav[1].startX 312m
param *.uav[1].startY 1262m
param *.uav[1].startZ 540m
param *.uav[2].startX 2185m
param *.uav[2].startY 3026m
param *.uav[2].startZ 778m
param *.uav[3].startX 3537m
param *.uav[3].startY 965m
param *.uav[3].startZ 539m
param *.uav[4].startX 312m
param *.uav[4].startY 1262m
param *.uav[4].startZ 540m
param *.uav[5].startX 2185m
param *.uav[5].startY 3026m
param *.uav[5].startZ 778m
param *.uav[6].startX 3537m
param *.uav[6].startY 965m
param *.uav[6].startZ 539m
param *.uav[7].startX 312m
param *.uav[7].startY 1262m
param *.uav[7].startZ 540m
param *.uav[8].startX 2185m
param *.uav[8].startY 3026m
param *.uav[8].startZ 778m
param *.uav[9].startX 3537m
param *.uav[9].startY 965m
param *.uav[9].startZ 539m
param *.uav[10].startX 3537m
param *.uav[10].startY 965m
param *.uav[10].startZ 539m
param *.uav[11].startX 312m
param *.uav[11].startY 1262m
param *.uav[11].startZ 540m
param *.uav[12].startX 2185m
param *.uav[12].startY 3026m
param *.uav[12].startZ 778m
param *.uav[13].startX 3537m
param *.uav[13].startY 965m
param *.uav[13].startZ 539m
param *.uav[14].startX 312m
param *.uav[14].startY 1262m
param *.uav[14].startZ 540m
param *.uav[15].startX 2185m
param *.uav[15].startY 3026m
param *.uav[15].startZ 778m
param *.uav[16].startX 3537m
param *.uav[16].startY 965m
param *.uav[16].startZ 539m
param *.uav[17].startX 312m
param *.uav[17].startY 1262m
param *.uav[17].startZ 540m
param *.uav[18].startX 2185m
param *.uav[18].startY 3026m
param *.uav[18].startZ 778m
param *.uav[19].startX 3537m
param *.uav[19].startY 965m
param *.uav[19].startZ 539m
param *.uav[20].startX 3537m
param *.uav[20].startY 965m
param *.uav[20].startZ 539m
param *.uav[21].startX 312m
param *.uav[21].startY 1262m
param *.uav[21].startZ 540m
param *.uav[22].startX 2185m
param *.uav[22].startY 3026m
param *.uav[22].startZ 778m
param *.uav[23].startX 3537m
param *.uav[23].startY 965m
param *.uav[23].startZ 539m
param *.uav[24].startX 312m
param *.uav[24].startY 1262m
param *.uav[24].startZ 540m
param *.uav[25].startX 2185m
param *.uav[25].startY 3026m
param *.uav[25].startZ 778m
param *.uav[26].startX 3537m
param *.uav[26].startY 965m
param *.uav[26].startZ 539m
param *.uav[27].startX 312m
param *.uav[27].startY 1262m
param *.uav[27].startZ 540m
param *.uav[28].startX 2185m
param *.uav[28].startY 3026m
param *.uav[28].startZ 778m
param *.uav[29].startX 3537m
param *.uav[29].startY 965m
param *.uav[29].startZ 539m
param *.uav[30].startX 3537m
param *.uav[30].startY 965m
param *.uav[30].startZ 539m
param *.uav[31].startX 312m
param *.uav[31].startY 1262m
param *.uav[31].startZ 540m
param *.uav[32].startX 2185m
param *.uav[32].startY 3026m
param *.uav[32].startZ 778m
param *.uav[33].startX 3537m
param *.uav[33].startY 965m
param *.uav[33].startZ 539m
param *.uav[34].startX 312m
param *.uav[34].startY 1262m
param *.uav[34].startZ 540m
param *.uav[35].startX 2185m
param *.uav[35].startY 3026m
param *.uav[35].startZ 778m
param *.uav[36].startX 3537m
param *.uav[36].startY 965m
param *.uav[36].startZ 539m
param *.uav[37].startX 312m
param *.uav[37].startY 1262m
param *.uav[37].startZ 540m
param *.uav[38].startX 2185m
param *.uav[38].startY 3026m
param *.uav[38].startZ 778m
param *.uav[39].startX 3537m
param *.uav[39].startY 965m
param *.uav[39].startZ 539m
param *.uav[40].startX 3537m
param *.uav[40].startY 965m
param *.uav[40].startZ 539m
param *.uav[41].startX 312m
param *.uav[41].startY 1262m
param *.uav[41].startZ 540m
param *.uav[42].startX 2185m
param *.uav[42].startY 3026m
param *.uav[42].startZ 778m
param *.uav[43].startX 3537m
param *.uav[43].startY 965m
param *.uav[43].startZ 539m
param *.uav[44].startX 312m
param *.uav[44].startY 1262m
param *.uav[44].startZ 540m
param *.uav[45].startX 2185m
param *.uav[45].startY 3026m
param *.uav[45].startZ 778m
param *.uav[46].startX 3537m
param *.uav[46].startY 965m
param *.uav[46].startZ 539m
param *.uav[47].startX 312m
param *.uav[47].startY 1262m
param *.uav[47].startZ 540m
param *.uav[48].startX 2185m
param *.uav[48].startY 3026m
param *.uav[48].startZ 778m
param *.uav[49].startX 3537m
param *.uav[49].startY 965m
param *.uav[49].startZ 539m
param *.uav[50].startX 3537m
param *.uav[50].startY 965m
param *.uav[50].startZ 539m
param *.uav[51].startX 312m
param *.uav[51].startY 1262m
param *.uav[51].startZ 540m
param *.uav[52].startX 2185m
param *.uav[52].startY 3026m
param *.uav[52].startZ 778m
param *.uav[53].startX 3537m
param *.uav[53].startY 965m
param *.uav[53].startZ 539m
param *.uav[54].startX 312m
param *.uav[54].startY 1262m
param *.uav[54].startZ 540m
param *.uav[55].startX 2185m
param *.uav[55].startY 3026m
param *.uav[55].startZ 778m
param *.uav[56].startX 3537m
param *.uav[56].startY 965m
param *.uav[56].startZ 539m
param *.uav[57].startX 312m
param *.uav[57].startY 1262m
param *.uav[57].startZ 540m
param *.uav[58].startX 2185m
param *.uav[58].startY 3026m
param *.uav[58].startZ 778m
param *.uav[59].startX 3537m
param *.uav[59].startY 965m
param *.uav[59].startZ 539m
param *.uav[60].startX 3537m
param *.uav[60].startY 965m
param *.uav[60].startZ 539m
param *.uav[61].startX 312m
param *.uav[61].startY 1262m
param *.uav[61].startZ 540m
param *.uav[62].startX 2185m
param *.uav[62].startY 3026m
param *.uav[62].startZ 778m
param *.uav[63].startX 3537m
param *.uav[63].startY 965m
param *.uav[63].startZ 539m
param *.uav[64].startX 312m
param *.uav[64].startY 1262m
param *.uav[64].startZ 540m
param *.uav[65].startX 2185m
param *.uav[65].startY 3026m
param *.uav[65].startZ 778m
param *.uav[66].startX 3537m
param *.uav[66].startY 965m
param *.uav[66].startZ 539m
param *.uav[67].startX 312m
param *.uav[67].startY 1262m
param *.uav[67].startZ 540m
param *.uav[68].startX 2185m
param *.uav[68].startY 3026m
param *.uav[68].startZ 778m
param *.uav[69].startX 3537m
param *.uav[69].startY 965m
param *.uav[69].startZ 539m
param *.uav[70].startX 3537m
param *.uav[70].startY 965m
param *.uav[70].startZ 539m
param *.uav[71].startX 312m
param *.uav[71].startY 1262m
param *.uav[71].startZ 540m
param *.uav[72].startX 2185m
param *.uav[72].startY 3026m
param *.uav[72].startZ 778m
param *.uav[73].startX 3537m
param *.uav[73].startY 965m
param *.uav[73].startZ 539m
param *.uav[74].startX 312m
param *.uav[74].startY 1262m
param *.uav[74].startZ 540m
param *.uav[75].startX 2185m
param *.uav[75].startY 3026m
param *.uav[75].startZ 778m
param *.uav[76].startX 3537m
param *.uav[76].startY 965m
param *.uav[76].startZ 539m
param *.uav[77].startX 312m
param *.uav[77].startY 1262m
param *.uav[77].startZ 540m
param *.uav[78].startX 2185m
param *.uav[78].startY 3026m
param *.uav[78].startZ 778m
param *.uav[79].startX 3537m
param *.uav[79].startY 965m
param *.uav[79].startZ 539m
param *.uav[80].startX 3537m
param *.uav[80].startY 965m
param *.uav[80].startZ 539m
param *.uav[81].startX 312m
param *.uav[81].startY 1262m
param *.uav[81].startZ 540m
param *.uav[82].startX 2185m
param *.uav[82].startY 3026m
param *.uav[82].startZ 778m
param *.uav[83].startX 3537m
param *.uav[83].startY 965m
param *.uav[83].startZ 539m
param *.uav[84].startX 312m
param *.uav[84].startY 1262m
param *.uav[84].startZ 540m
param *.uav[85].startX 2185m
param *.uav[85].startY 3026m
param *.uav[85].startZ 778m
param *.uav[86].startX 3537m
param *.uav[86].startY 965m
param *.uav[86].startZ 539m
param *.uav[87].startX 312m
param *.uav[87].startY 1262m
param *.uav[87].startZ 540m
param *.uav[88].startX 2185m
param *.uav[88].startY 3026m
param *.uav[88].startZ 778m
param *.uav[89].startX 3537m
param *.uav[89].startY 965m
param *.uav[89].startZ 539m
param *.uav[90].startX 3537m
param *.uav[90].startY 965m
param *.uav[90].startZ 539m
param *.uav[91].startX 312m
param *.uav[91].startY 1262m
param *.uav[91].startZ 540m
param *.uav[92].startX 2185m
param *.uav[92].startY 3026m
param *.uav[92].startZ 778m
param *.uav[93].startX 3537m
param *.uav[93].startY 965m
param *.uav[93].startZ 539m
param *.uav[94].startX 312m
param *.uav[94].startY 1262m
param *.uav[94].startZ 540m
param *.uav[95].startX 2185m
param *.uav[95].startY 3026m
param *.uav[95].startZ 778m
param *.uav[96].startX 3537m
param *.uav[96].startY 965m
param *.uav[96].startZ 539m
param *.uav[97].startX 312m
param *.uav[97].startY 1262m
param *.uav[97].startZ 540m
param *.uav[98].startX 2185m
param *.uav[98].startY 3026m
param *.uav[98].startZ 778m
param *.uav[99].startX 3537m
param *.uav[99].startY 965m
param *.uav[99].startZ 539m
param *.osgEarthScene.scene "\"boston.earth\""
param *.playgroundLatitude 42.3558
param *.playgroundLongitude -71.0677
param *.playgroundWidth 400m
param *.playgroundHeight 200m
param *.channelController.connectionColor "\"#0000FF40\""
param *.channelController.showConnections false
param *.uav[*].modelURL "\"quadrocopter.small.obj.15.scale.0,0,90.rot\""
param *.uav[*].labelColor "\"#FF7C00CC\""
param *.uav[*].label2Color "\"#FF7C00EE\""
param *.uav[*].batteryCapacity 5200mAh
param *.uav[*].batteryRemaining uav[index].batteryCapacity
param *.uav[*].predictionQuantile 0.95
param *.uav[*].replacementMethod 2
param *.uav[*].weightedSumWeight 0.5
param *.cs[*].modelURL "\"chargingstation_v1.osgt.2.scale.0,0,0.rot.0,0,-15e-1.trans\""
param *.cs[*].spotsWaiting 999
param *.cs[*].spotsCharging 999
param *.cs[*].chargeEffectivenessPercentage 100
param *.cs[*].nonLinearPhaseStartPercentage 85
param *.cs[*].chargeCurrent 6.0A
param *.cs[*].prioritizeFastCharge true
param *.missionControl.replacementSearchMethod 0
param *.*.timeStep 9s

scalar OsgEarthNet.uav[0] utilizationSecMission 12548.690717713
scalar OsgEarthNet.uav[0] utilizationSecMaintenance 6231.1727210296
scalar OsgEarthNet.uav[0] utilizationSecCharge 71860
scalar OsgEarthNet.uav[0] utilizationSecIdle 168560.13556126
scalar OsgEarthNet.uav[0] utilizationEnergyMission 57489.078651428
scalar OsgEarthNet.uav[0] utilizationEnergyMaintenance 29775.197059631
scalar OsgEarthNet.uav[0] utilizationEnergyCharge 87302.3984375
scalar OsgEarthNet.uav[0] utilizationEnergyOverdrawMission 0
scalar OsgEarthNet.uav[0] utilizationEnergyOverdrawMaintenance 0
scalar OsgEarthNet.uav[0] utilizationCountMissions 21
scalar OsgEarthNet.uav[0] utilizationCountManeuversMission 207
scalar OsgEarthNet.uav[0] utilizationCountManeuversMaintenance 42
scalar OsgEarthNet.uav[0] utilizationCountChargeState 21
scalar OsgEarthNet.uav[0] utilizationCountOverdrawnAfterMission 0
scalar OsgEarthNet.uav[0] utilizationCountIdleState 22
scalar OsgEarthNet.uav[0] utilizationFail 0
scalar OsgEarthNet.uav[0] simulationTime 259200
scalar OsgEarthNet.uav[1] utilizationSecMission 597.53391521556
scalar OsgEarthNet.uav[1] utilizationSecMaintenance 388.71128889908
scalar OsgEarthNet.uav[1] utilizationSecCharge 3630
scalar OsgEarthNet.uav[1] utilizationSecIdle 254583.75379589
scalar OsgEarthNet.uav[1] utilizationEnergyMission 2731.7912139893
scalar OsgEarthNet.uav[1] utilizationEnergyMaintenance 1841.5380363464
scalar OsgEarthNet.uav[1] utilizationEnergyCharge 4510.3930664062
scalar OsgEarthNet.uav[1] utilizationEnergyOverdrawMission 0
scalar OsgEarthNet.uav[1] utilizationEnergyOverdrawMaintenance 0
scalar OsgEarthNet.uav[1] utilizationCountMissions 1
scalar OsgEarthNet.uav[1] utilizationCountManeuversMission 9
scalar OsgEarthNet.uav[1] utilizationCountManeuversMaintenance 2
scalar OsgEarthNet.uav[1] utilizationCountChargeState 1
scalar OsgEarthNet.uav[1] utilizationCountOverdrawnAfterMission 0
scalar OsgEarthNet.uav[1] utilizationCountIdleState 2
scalar OsgEarthNet.uav[1] utilizationFail 0
scalar OsgEarthNet.uav[1] simulationTime 259200
scalar OsgEarthNet.uav[2] utilizationSecMission 7370.7650123637
scalar OsgEarthNet.uav[2] utilizationSecMaintenance 3618.9288048627
scalar OsgEarthNet.uav[2] utilizationSecCharge 41780
scalar OsgEarthNet.uav[2] utilizationSecIdle 206430.30518277
scalar OsgEarthNet.uav[2] utilizationEnergyMission 34298.258598328
scalar OsgEarthNet.uav[2] utilizationEnergyMaintenance 16943.31370163
scalar OsgEarthNet.uav[2] utilizationEnergyCharge 51239.717285156
scalar OsgEarthNet.uav[2] utilizationEnergyOverdrawMission 0
scalar OsgEarthNet.uav[2] utilizationEnergyOverdrawMaintenance 0
scalar OsgEarthNet.uav[2] utilizationCountMissions 12
scalar OsgEarthNet.uav[2] utilizationCountManeuversMission 122
scalar OsgEarthNet.uav[2] utilizationCountManeuversMaintenance 24
scalar OsgEarthNet.uav[2] utilizationCountChargeState 12
scalar OsgEarthNet.uav[2] utilizationCountOverdrawnAfterMission 0
scalar OsgEarthNet.uav[2] utilizationCountIdleState 13
scalar OsgEarthNet.uav[2] utilizationFail 0
scalar OsgEarthNet.uav[2] simulationTime 259200
scalar OsgEarthNet.uav[3] utilizationSecMission 684.4732299383
scalar OsgEarthNet.uav[3] utilizationSecMaintenance 368.56834692969
scalar OsgEarthNet.uav[3] utilizationSecCharge 3950
scalar OsgEarthNet.uav[3] utilizationSecIdle 254196.95742313
scalar OsgEarthNet.uav[3] utilizationEnergyMission 3308.241027832
scalar OsgEarthNet.uav[3] utilizationEnergyMaintenance 1732.5479545593
scalar OsgEarthNet.uav[3] utilizationEnergyCharge 5040.791015625
scalar OsgEarthNet.uav[3] utilizationEnergyOverdrawMission 0
scalar OsgEarthNet.uav[3] utilizationEnergyOverdrawMaintenance 0
scalar OsgEarthNet.uav[3] utilizationCountMissions 1
scalar OsgEarthNet.uav[3] utilizationCountManeuversMission 11
scalar OsgEarthNet.uav[3] utilizationCountManeuversMaintenance 2
scalar OsgEarthNet.uav[3] utilizationCountChargeState 1
scalar OsgEarthNet.uav[3] utilizationCountOverdrawnAfterMission 0
scalar OsgEarthNet.uav[3] utilizationCountIdleState 2
scalar OsgEarthNet.uav[3] utilizationFail 0
scalar OsgEarthNet.uav[3] simulationTime 259200
scalar OsgEarthNet.uav[4] utilizationSecMission 28907.081770346
scalar OsgEarthNet.uav[4] utilizationSecMaintenance 10865.705811671
scalar OsgEarthNet.uav[4] utilizationSecCharge 147996.15362279
scalar OsgEarthNet.uav[4] utilizationSecIdle 71431.057795193
scalar OsgEarthNet.uav[4] utilizationEnergyMission 133818.23210907
scalar OsgEarthNet.uav[4] utilizationEnergyMaintenance 51274.14957428
scalar OsgEarthNet.uav[4] utilizationEnergyCharge 184627.24072266
scalar OsgEarthNet.uav[4] utilizationEnergyOverdrawMission 0
scalar OsgEarthNet.uav[4] utilizationEnergyOverdrawMaintenance 0
scalar OsgEarthNet.uav[4] utilizationCountMissions 41
scalar OsgEarthNet.uav[4] utilizationCountManeuversMission 464
scalar OsgEarthNet.uav[4] utilizationCountManeuversMaintenance 82
scalar OsgEarthNet.uav[4] utilizationCountChargeState 41
scalar OsgEarthNet.uav[4] utilizationCountOverdrawnAfterMission 0
scalar OsgEarthNet.uav[4] utilizationCountIdleState 41
scalar OsgEarthNet.uav[4] utilizationFail 0
scalar OsgEarthNet.uav[4] simulationTime 259200
scalar OsgEarthNet.uav[5] utilizationSecMission 750.20472747826
scalar OsgEarthNet.uav[5] utilizationSecMaintenance 218.84515192887
scalar OsgEarthNet.uav[5] utilizationSecCharge 3540
scalar OsgEarthNet.uav[5] utilizationSecIdle 254690.94912059
scalar OsgEarthNet.uav[5] utilizationEnergyMission 3507.7134857178
scalar OsgEarthNet.uav[5] utilizationEnergyMaintenance 819.95391082764
scalar OsgEarthNet.uav[5] utilizationEnergyCharge 4366.2592773438
scalar OsgEarthNet.uav[5] utilizationEnergyOverdrawMission 0
scalar OsgEarthNet.uav[5] utilizationEnergyOverdrawMaintenance 0
scalar OsgEarthNet.uav[5] utilizationCountMissions 1
scalar OsgEarthNet.uav[5] utilizationCountManeuversMission 11
scalar OsgEarthNet.uav[5] utilizationCountManeuversMaintenance 2
scalar OsgEarthNet.uav[5] utilizationCountChargeState 1
scalar OsgEarthNet.uav[5] utilizationCountOverdrawnAfterMission 0
scalar OsgEarthNet.uav[5] utilizationCountIdleState 2
scalar OsgEarthNet.uav[5] utilizationFail 0
scalar OsgEarthNet.uav[5] simulationTime 259200
scalar OsgEarthNet.uav[6] utilizationSecMission 27096.352409476
scalar OsgEarthNet.uav[6] utilizationSecMaintenance 11375.85137868
scalar OsgEarthNet.uav[6] utilizationSecCharge 143052.24141022
scalar OsgEarthNet.uav[6] utilizationSecIdle 77675.553801626
scalar OsgEarthNet.uav[6] utilizationEnergyMission 124559.70608521
scalar OsgEarthNet.uav[6] utilizationEnergyMaintenance 53099.496681213
scalar OsgEarthNet.uav[6] utilizationEnergyCharge 176947.07299805
scalar OsgEarthNet.uav[6] utilizationEnergyOverdrawMission 0
scalar OsgEarthNet.uav[6] utilizationEnergyOverdrawMaintenance 0
scalar OsgEarthNet.uav[6] utilizationCountMissions 41
scalar OsgEarthNet.uav[6] utilizationCountManeuversMission 432
scalar OsgEarthNet.uav[6] utilizationCountManeuversMaintenance 82
scalar OsgEarthNet.uav[6] utilizationCountChargeState 41
scalar OsgEarthNet.uav[6] utilizationCountOverdrawnAfterMission 0
scalar OsgEarthNet.uav[6] utilizationCountIdleState 41
scalar OsgEarthNet.uav[6] utilizationFail 0
scalar OsgEarthNet.uav[6] simulationTime 259200
scalar OsgEarthNet.uav[7] utilizationSecMission 631.74159133852
scalar OsgEarthNet.uav[7] utilizationSecMaintenance 414.50798074032
scalar OsgEarthNet.uav[7] utilizationSecCharge 3790
scalar OsgEarthNet.uav[7] utilizationSecIdle 254363.74942792
scalar OsgEarthNet.uav[7] utilizationEnergyMission 2886.9437561035
scalar OsgEarthNet.uav[7] utilizationEnergyMaintenance 1908.5110397339
scalar OsgEarthNet.uav[7] utilizationEnergyCharge 4795.4575195312
scalar OsgEarthNet.uav[7] utilizationEnergyOverdrawMission 0
scalar OsgEarthNet.uav[7] utilizationEnergyOverdrawMaintenance 0
scalar OsgEarthNet.uav[7] utilizationCountMissions 1
scalar OsgEarthNet.uav[7] utilizationCountManeuversMission 12
scalar OsgEarthNet.uav[7] utilizationCountManeuversMaintenance 2
scalar OsgEarthNet.uav[7] utilizationCountChargeState 1
scalar OsgEarthNet.uav[7] utilizationCountOverdrawnAfterMission 0
scalar OsgEarthNet.uav[7] utilizationCountIdleState 2
scalar OsgEarthNet.uav[7] utilizationFail 0
scalar OsgEarthNet.uav[7] simulationTime 259200
scalar OsgEarthNet.uav[8] utilizationSecMission 1623.6680332273
scalar OsgEarthNet.uav[8] utilizationSecMaintenance 455.71002719827
scalar OsgEarthNet.uav[8] utilizationSecCharge 7440
scalar OsgEarthNet.uav[8] utilizationSecIdle 249680.62093957
scalar OsgEarthNet.uav[8] utilizationEnergyMission 7686.4867019653
scalar OsgEarthNet.uav[8] utilizationEnergyMaintenance 2035.3082313538
scalar OsgEarthNet.uav[8] utilizationEnergyCharge 9312.2587890625
scalar OsgEarthNet.uav[8] utilizationEnergyOverdrawMission 0
scalar OsgEarthNet.uav[8] utilizationEnergyOverdrawMaintenance 0
scalar OsgEarthNet.uav[8] utilizationCountMissions 2
scalar OsgEarthNet.uav[8] utilizationCountManeuversMission 28
scalar OsgEarthNet.uav[8] utilizationCountManeuversMaintenance 4
scalar OsgEarthNet.uav[8] utilizationCountChargeState 2
scalar OsgEarthNet.uav[8] utilizationCountOverdrawnAfterMission 0
scalar OsgEarthNet.uav[8] utilizationCountIdleState 3
scalar OsgEarthNet.uav[8] utilizationFail 0
scalar OsgEarthNet.uav[8] simulationTime 259200
scalar OsgEarthNet.uav[9] utilizationSecMission 684.4732299383
scalar OsgEarthNet.uav[9] utilizationSecMaintenance 298.56834692969
scalar OsgEarthNet.uav[9] utilizationSecCharge 3680
scalar OsgEarthNet.uav[9] utilizationSecIdle 254536.95742313
scalar OsgEarthNet.uav[9] utilizationEnergyMission 3130.1311798096
scalar OsgEarthNet.uav[9] utilizationEnergyMaintenance 1473.4623641968
scalar OsgEarthNet.uav[9] utilizationEnergyCharge 4603.5913085938
scalar OsgEarthNet.uav[9] utilizationEnergyOverdrawMission 0
scalar OsgEarthNet.uav[9] utilizationEnergyOverdrawMaintenance 0
scalar OsgEarthNet.uav[9] utilizationCountMissions 1
scalar OsgEarthNet.uav[9] utilizationCountManeuversMission 11
scalar OsgEarthNet.uav[9] utilizationCountManeuversMaintenance 2
scalar OsgEarthNet.uav[9] utilizationCountChargeState 1
scalar OsgEarthNet.uav[9] utilizationCountOverdrawnAfterMission 0
scalar OsgEarthNet.uav[9] utilizationCountIdleState 2
scalar OsgEarthNet.uav[9] utilizationFail 0
scalar OsgEarthNet.uav[9] simulationTime 259200
scalar OsgEarthNet.uav[10] utilizationSecMission 28768.34942212
scalar OsgEarthNet.uav[10] utilizationSecMaintenance 13879.808541394
scalar OsgEarthNet.uav[10] utilizationSecCharge 160199.84103649
scalar OsgEarthNet.uav[10] utilizationSecIdle 56352
scalar OsgEarthNet.uav[10] utilizationEnergyMission 133650.1012103
scalar OsgEarthNet.uav[10] utilizationEnergyMaintenance 66662.928443909
scalar OsgEarthNet.uav[10] utilizationEnergyCharge 197712.88366699
scalar OsgEarthNet.uav[10] utilizationEnergyOverdrawMission 0
scalar OsgEarthNet.uav[10] utilizationEnergyOverdrawMaintenance 0
scalar OsgEarthNet.uav[10] utilizationCountMissions 46
scalar OsgEarthNet.uav[10] utilizationCountManeuversMission 471
scalar OsgEarthNet.uav[10] utilizationCountManeuversMaintenance 91
scalar OsgEarthNet.uav[10] utilizationCountChargeState 46
scalar OsgEarthNet.uav[10] utilizationCountOverdrawnAfterMission 0
scalar OsgEarthNet.uav[10] utilizationCountIdleState 46
scalar OsgEarthNet.uav[10] utilizationFail 0
scalar OsgEarthNet.uav[10] simulationTime 259200
scalar OsgEarthNet.uav[11] utilizationSecMission 25344.586109546
scalar OsgEarthNet.uav[11] utilizationSecMaintenance 13762.46912496
scalar OsgEarthNet.uav[11] utilizationSecCharge 150250
scalar OsgEarthNet.uav[11] utilizationSecIdle 69842.943765493
scalar OsgEarthNet.uav[11] utilizationEnergyMission 116282.81092072
scalar OsgEarthNet.uav[11] utilizationEnergyMaintenance 66105.787734985
scalar OsgEarthNet.uav[11] utilizationEnergyCharge 182255.59301758
scalar OsgEarthNet.uav[11] utilizationEnergyOverdrawMission 0
scalar OsgEarthNet.uav[11] utilizationEnergyOverdrawMaintenance 0
scalar OsgEarthNet.uav[11] utilizationCountMissions 44
scalar OsgEarthNet.uav[11] utilizationCountManeuversMission 412
scalar OsgEarthNet.uav[11] utilizationCountManeuversMaintenance 88
scalar OsgEarthNet.uav[11] utilizationCountChargeState 44
scalar OsgEarthNet.uav[11] utilizationCountOverdrawnAfterMission 0
scalar OsgEarthNet.uav[11] utilizationCountIdleState 45
scalar OsgEarthNet.uav[11] utilizationFail 0
scalar OsgEarthNet.uav[11] simulationTime 259200
scalar OsgEarthNet.uav[12] utilizationSecMission 27431.84093224
scalar OsgEarthNet.uav[12] utilizationSecMaintenance 10824.407810359
scalar OsgEarthNet.uav[12] utilizationSecCharge 141234.57514699
scalar OsgEarthNet.uav[12] utilizationSecIdle 79709.175110411
scalar OsgEarthNet.uav[12] utilizationEnergyMission 126953.20487976
scalar OsgEarthNet.uav[12] utilizationEnergyMaintenance 50771.366062164
scalar OsgEarthNet.uav[12] utilizationEnergyCharge 176692.84277344
scalar OsgEarthNet.uav[12] utilizationEnergyOverdrawMission 0
scalar OsgEarthNet.uav[12] utilizationEnergyOverdrawMaintenance 0
scalar OsgEarthNet.uav[12] utilizationCountMissions 39
scalar OsgEarthNet.uav[12] utilizationCountManeuversMission 443
scalar OsgEarthNet.uav[12] utilizationCountManeuversMaintenance 78
scalar OsgEarthNet.uav[12] utilizationCountChargeState 39
scalar OsgEarthNet.uav[12] utilizationCountOverdrawnAfterMission 0
scalar OsgEarthNet.uav[12] utilizationCountIdleState 39
scalar OsgEarthNet.uav[12] utilizationFail 0
scalar OsgEarthNet.uav[12] simulationTime 259200
scalar OsgEarthNet.uav[13] utilizationSecMission 760.62515258028
scalar OsgEarthNet.uav[13] utilizationSecMaintenance 291.95923480269
scalar OsgEarthNet.uav[13] utilizationSecCharge 3740
scalar OsgEarthNet.uav[13] utilizationSecIdle 254407.41461262
scalar OsgEarthNet.uav[13] utilizationEnergyMission 3304.5873260498
scalar OsgEarthNet.uav[13] utilizationEnergyMaintenance 1405.1540756226
scalar OsgEarthNet.uav[13] utilizationEnergyCharge 4709.7392578125
scalar OsgEarthNet.uav[13] utilizationEnergyOverdrawMission 0
scalar OsgEarthNet.uav[13] utilizationEnergyOverdrawMaintenance 0
scalar OsgEarthNet.uav[13] utilizationCountMissions 1
scalar OsgEarthNet.uav[13] utilizationCountManeuversMission 12
scalar OsgEarthNet.uav[13] utilizationCountManeuversMaintenance 2
scalar OsgEarthNet.uav[13] utilizationCountChargeState 1
scalar OsgEarthNet.uav[13] utilizationCountOverdrawnAfterMission 0
scalar OsgEarthNet.uav[13] utilizationCountIdleState 2
scalar OsgEarthNet.uav[13] utilizationFail 0
scalar OsgEarthNet.uav[13] simulationTime 259200
scalar OsgEarthNet.uav[14] utilizationSecMission 30523.97077653
scalar OsgEarthNet.uav[14] utilizationSecMaintenance 12540.362608787
scalar OsgEarthNet.uav[14] utilizationSecCharge 157777.3120118
scalar OsgEarthNet.uav[14] utilizationSecIdle 58358.353602879
scalar OsgEarthNet.uav[14] utilizationEnergyMission 139897.33250427
scalar OsgEarthNet.uav[14] utilizationEnergyMaintenance 58936.2462883
scalar OsgEarthNet.uav[14] utilizationEnergyCharge 195437.91571045
scalar OsgEarthNet.uav[14] utilizationEnergyOverdrawMission 0
scalar OsgEarthNet.uav[14] utilizationEnergyOverdrawMaintenance 0
scalar OsgEarthNet.uav[14] utilizationCountMissions 45
scalar OsgEarthNet.uav[14] utilizationCountManeuversMission 488
scalar OsgEarthNet.uav[14] utilizationCountManeuversMaintenance 90
scalar OsgEarthNet.uav[14] utilizationCountChargeState 45
scalar OsgEarthNet.uav[14] utilizationCountOverdrawnAfterMission 0
scalar OsgEarthNet.uav[14] utilizationCountIdleState 45
scalar OsgEarthNet.uav[14] utilizationFail 0
scalar OsgEarthNet.uav[14] simulationTime 259200
scalar OsgEarthNet.uav[15] utilizationSecMission 694.00169469977
scalar OsgEarthNet.uav[15] utilizationSecMaintenance 282.18572599206
scalar OsgEarthNet.uav[15] utilizationSecCharge 3740
scalar OsgEarthNet.uav[15] utilizationSecIdle 254483.81157931
scalar OsgEarthNet.uav[15] utilizationEnergyMission 3463.3641052246
scalar OsgEarthNet.uav[15] utilizationEnergyMaintenance 1354.651725769
scalar OsgEarthNet.uav[15] utilizationEnergyCharge 4691.4536132812
scalar OsgEarthNet.uav[15] utilizationEnergyOverdrawMission 0
scalar OsgEarthNet.uav[15] utilizationEnergyOverdrawMaintenance 0
scalar OsgEarthNet.uav[15] utilizationCountMissions 1
scalar OsgEarthNet.uav[15] utilizationCountManeuversMission 13
scalar OsgEarthNet.uav[15] utilizationCountManeuversMaintenance 2
scalar OsgEarthNet.uav[15] utilizationCountChargeState 1
scalar OsgEarthNet.uav[15] utilizationCountOverdrawnAfterMission 0
scalar OsgEarthNet.uav[15] utilizationCountIdleState 2
scalar OsgEarthNet.uav[15] utilizationFail 0
scalar OsgEarthNet.uav[15] simulationTime 259200
scalar OsgEarthNet.uav[16] utilizationSecMission 1467.6976802147
scalar OsgEarthNet.uav[16] utilizationSecMaintenance 642.94051992021
scalar OsgEarthNet.uav[16] utilizationSecCharge 4461.3024019446
scalar OsgEarthNet.uav[16] utilizationSecIdle 252628.05839792
scalar OsgEarthNet.uav[16] utilizationEnergyMission 6461.2567520142
scalar OsgEarthNet.uav[16] utilizationEnergyMaintenance 3141.5461769104
scalar OsgEarthNet.uav[16] utilizationEnergyCharge 5957.2434082031
scalar OsgEarthNet.uav[16] utilizationEnergyOverdrawMission 0
scalar OsgEarthNet.uav[16] utilizationEnergyOverdrawMaintenance 0
scalar OsgEarthNet.uav[16] utilizationCountMissions 2
scalar OsgEarthNet.uav[16] utilizationCountManeuversMission 23
scalar OsgEarthNet.uav[16] utilizationCountManeuversMaintenance 4
scalar OsgEarthNet.uav[16] utilizationCountChargeState 2
scalar OsgEarthNet.uav[16] utilizationCountOverdrawnAfterMission 0
scalar OsgEarthNet.uav[16] utilizationCountIdleState 2
scalar OsgEarthNet.uav[16] utilizationFail 0
scalar OsgEarthNet.uav[16] simulationTime 259200
scalar OsgEarthNet.uav[17] utilizationSecMission 28958.703481284
scalar OsgEarthNet.uav[17] utilizationSecMaintenance 12734.014558322
scalar OsgEarthNet.uav[17] utilizationSecCharge 154246.31697472
scalar OsgEarthNet.uav[17] utilizationSecIdle 63260.963985674
scalar OsgEarthNet.uav[17] utilizationEnergyMission 132600.14919281
scalar OsgEarthNet.uav[17] utilizationEnergyMaintenance 59472.652873993
scalar OsgEarthNet.uav[17] utilizationEnergyCharge 190862.36645508
scalar OsgEarthNet.uav[17] utilizationEnergyOverdrawMission 0
scalar OsgEarthNet.uav[17] utilizationEnergyOverdrawMaintenance 0
scalar OsgEarthNet.uav[17] utilizationCountMissions 44
scalar OsgEarthNet.uav[17] utilizationCountManeuversMission 482
scalar OsgEarthNet.uav[17] utilizationCountManeuversMaintenance 88
scalar OsgEarthNet.uav[17] utilizationCountChargeState 44
scalar OsgEarthNet.uav[17] utilizationCountOverdrawnAfterMission 0
scalar OsgEarthNet.uav[17] utilizationCountIdleState 44
scalar OsgEarthNet.uav[17] utilizationFail 0
scalar OsgEarthNet.uav[17] simulationTime 259200
scalar OsgEarthNet.uav[18] utilizationSecMission 750.20472747826
scalar OsgEarthNet.uav[18] utilizationSecMaintenance 218.84515192887
scalar OsgEarthNet.uav[18] utilizationSecCharge 3700
scalar OsgEarthNet.uav[18] utilizationSecIdle 254530.94912059
scalar OsgEarthNet.uav[18] utilizationEnergyMission 3544.4376678467
scalar OsgEarthNet.uav[18] utilizationEnergyMaintenance 1105.987236023
scalar OsgEarthNet.uav[18] utilizationEnergyCharge 4650.4267578125
scalar OsgEarthNet.uav[18] utilizationEnergyOverdrawMission 0
scalar OsgEarthNet.uav[18] utilizationEnergyOverdrawMaintenance 0
scalar OsgEarthNet.uav[18] utilizationCountMissions 1
scalar OsgEarthNet.uav[18] utilizationCountManeuversMission 11
scalar OsgEarthNet.uav[18] utilizationCountManeuversMaintenance 2
scalar OsgEarthNet.uav[18] utilizationCountChargeState 1
scalar OsgEarthNet.uav[18] utilizationCountOverdrawnAfterMission 0
scalar OsgEarthNet.uav[18] utilizationCountIdleState 2
scalar OsgEarthNet.uav[18] utilizationFail 0
scalar OsgEarthNet.uav[18] simulationTime 259200
scalar OsgEarthNet.uav[19] utilizationSecMission 836.77707522227
scalar OsgEarthNet.uav[19] utilizationSecMaintenance 217.0347828456
scalar OsgEarthNet.uav[19] utilizationSecCharge 3950
scalar OsgEarthNet.uav[19] utilizationSecIdle 254196.18714193
scalar OsgEarthNet.uav[19] utilizationEnergyMission 3941.3455505371
scalar OsgEarthNet.uav[19] utilizationEnergyMaintenance 1140.9549369812
scalar OsgEarthNet.uav[19] utilizationEnergyCharge 5082.3056640625
scalar OsgEarthNet.uav[19] utilizationEnergyOverdrawMission 0
scalar OsgEarthNet.uav[19] utilizationEnergyOverdrawMaintenance 0
scalar OsgEarthNet.uav[19] utilizationCountMissions 1
scalar OsgEarthNet.uav[19] utilizationCountManeuversMission 13
scalar OsgEarthNet.uav[19] utilizationCountManeuversMaintenance 2
scalar OsgEarthNet.uav[19] utilizationCountChargeState 1
scalar OsgEarthNet.uav[19] utilizationCountOverdrawnAfterMission 0
scalar OsgEarthNet.uav[19] utilizationCountIdleState 2
scalar OsgEarthNet.uav[19] utilizationFail 0
scalar OsgEarthNet.uav[19] simulationTime 259200
scalar OsgEarthNet.uav[20] utilizationSecMission 836.77707522227
scalar OsgEarthNet.uav[20] utilizationSecMaintenance 217.0347828456
scalar OsgEarthNet.uav[20] utilizationSecCharge 3860
scalar OsgEarthNet.uav[20] utilizationSecIdle 254286.18714193
scalar OsgEarthNet.uav[20] utilizationEnergyMission 3861.2208862305
scalar OsgEarthNet.uav[20] utilizationEnergyMaintenance 1083.8339347839
scalar OsgEarthNet.uav[20] utilizationEnergyCharge 4945.0537109375
scalar OsgEarthNet.uav[20] utilizationEnergyOverdrawMission 0
scalar OsgEarthNet.uav[20] utilizationEnergyOverdrawMaintenance 0
scalar OsgEarthNet.uav[20] utilizationCountMissions 1
scalar OsgEarthNet.uav[20] utilizationCountManeuversMission 13
scalar OsgEarthNet.uav[20] utilizationCountManeuversMaintenance 2
scalar OsgEarthNet.uav[20] utilizationCountChargeState 1
scalar OsgEarthNet.uav[20] utilizationCountOverdrawnAfterMission 0
scalar OsgEarthNet.uav[20] utilizationCountIdleState 2
scalar OsgEarthNet.uav[20] utilizationFail 0
scalar OsgEarthNet.uav[20] simulationTime 259200
scalar OsgEarthNet.uav[21] utilizationSecMission 25096.260531567
scalar OsgEarthNet.uav[21] utilizationSecMaintenance 11233.249952754
scalar OsgEarthNet.uav[21] utilizationSecCharge 135240
scalar OsgEarthNet.uav[21] utilizationSecIdle 87630.488515679
scalar OsgEarthNet.uav[21] utilizationEnergyMission 115238.14541245
scalar OsgEarthNet.uav[21] utilizationEnergyMaintenance 52234.923755646
scalar OsgEarthNet.uav[21] utilizationEnergyCharge 167154.28613281
scalar OsgEarthNet.uav[21] utilizationEnergyOverdrawMission 0
scalar OsgEarthNet.uav[21] utilizationEnergyOverdrawMaintenance 0
scalar OsgEarthNet.uav[21] utilizationCountMissions 38
scalar OsgEarthNet.uav[21] utilizationCountManeuversMission 409
scalar OsgEarthNet.uav[21] utilizationCountManeuversMaintenance 76
scalar OsgEarthNet.uav[21] utilizationCountChargeState 38
scalar OsgEarthNet.uav[21] utilizationCountOverdrawnAfterMission 0
scalar OsgEarthNet.uav[21] utilizationCountIdleState 39
scalar OsgEarthNet.uav[21] utilizationFail 0
scalar OsgEarthNet.uav[21] simulationTime 259200
scalar OsgEarthNet.uav[22] utilizationSecMission 750.20472747826
scalar OsgEarthNet.uav[22] utilizationSecMaintenance 218.84515192887
scalar OsgEarthNet.uav[22] utilizationSecCharge 3530
scalar OsgEarthNet.uav[22] utilizationSecIdle 254700.94912059
scalar OsgEarthNet.uav[22] utilizationEnergyMission 3449.3131256103
scalar OsgEarthNet.uav[22] utilizationEnergyMaintenance 938.75353240967
scalar OsgEarthNet.uav[22] utilizationEnergyCharge 4326.7265625
scalar OsgEarthNet.uav[22] utilizationEnergyOverdrawMission 0
scalar OsgEarthNet.uav[22] utilizationEnergyOverdrawMaintenance 0
scalar OsgEarthNet.uav[22] utilizationCountMissions 1
scalar OsgEarthNet.uav[22] utilizationCountManeuversMission 11
scalar OsgEarthNet.uav[22] utilizationCountManeuversMaintenance 2
scalar OsgEarthNet.uav[22] utilizationCountChargeState 1
scalar OsgEarthNet.uav[22] utilizationCountOverdrawnAfterMission 0
scalar OsgEarthNet.uav[22] utilizationCountIdleState 2
scalar OsgEarthNet.uav[22] utilizationFail 0
scalar OsgEarthNet.uav[22] simulationTime 259200
scalar OsgEarthNet.uav[23] utilizationSecMission 684.4732299383
scalar OsgEarthNet.uav[23] utilizationSecMaintenance 298.56834692969
scalar OsgEarthNet.uav[23] utilizationSecCharge 3760
scalar OsgEarthNet.uav[23] utilizationSecIdle 254456.95742313
scalar OsgEarthNet.uav[23] utilizationEnergyMission 3379.2503890991
scalar OsgEarthNet.uav[23] utilizationEnergyMaintenance 1354.9388961792
scalar OsgEarthNet.uav[23] utilizationEnergyCharge 4734.1909179688
scalar OsgEarthNet.uav[23] utilizationEnergyOverdrawMission 0
scalar OsgEarthNet.uav[23] utilizationEnergyOverdrawMaintenance 0
scalar OsgEarthNet.uav[23] utilizationCountMissions 1
scalar OsgEarthNet.uav[23] utilizationCountManeuversMission 11
scalar OsgEarthNet.uav[23] utilizationCountManeuversMaintenance 2
scalar OsgEarthNet.uav[23] utilizationCountChargeState 1
scalar OsgEarthNet.uav[23] utilizationCountOverdrawnAfterMission 0
scalar OsgEarthNet.uav[23] utilizationCountIdleState 2
scalar OsgEarthNet.uav[23] utilizationFail 0
scalar OsgEarthNet.uav[23] simulationTime 259200
scalar OsgEarthNet.uav[24] utilizationSecMission 27155.522588704
scalar OsgEarthNet.uav[24] utilizationSecMaintenance 12121.660051975
scalar OsgEarthNet.uav[24] utilizationSecCharge 142688.45123877
scalar OsgEarthNet.uav[24] utilizationSecIdle 77234.365120548
scalar OsgEarthNet.uav[24] utilizationEnergyMission 125397.877388
scalar OsgEarthNet.uav[24] utilizationEnergyMaintenance 56733.665294647
scalar OsgEarthNet.uav[24] utilizationEnergyCharge 178131.96728516
scalar OsgEarthNet.uav[24] utilizationEnergyOverdrawMission 0
scalar OsgEarthNet.uav[24] utilizationEnergyOverdrawMaintenance 0
scalar OsgEarthNet.uav[24] utilizationCountMissions 40
scalar OsgEarthNet.uav[24] utilizationCountManeuversMission 437
scalar OsgEarthNet.uav[24] utilizationCountManeuversMaintenance 80
scalar OsgEarthNet.uav[24] utilizationCountChargeState 40
scalar OsgEarthNet.uav[24] utilizationCountOverdrawnAfterMission 0
scalar OsgEarthNet.uav[24] utilizationCountIdleState 40
scalar OsgEarthNet.uav[24] utilizationFail 0
scalar OsgEarthNet.uav[24] simulationTime 259200
scalar OsgEarthNet.uav[25] utilizationSecMission 30920.056286437
scalar OsgEarthNet.uav[25] utilizationSecMaintenance 13154.623408703
scalar OsgEarthNet.uav[25] utilizationSecCharge 165793.31930486
scalar OsgEarthNet.uav[25] utilizationSecIdle 49332
scalar OsgEarthNet.uav[25] utilizationEnergyMission 143107.75265738
scalar OsgEarthNet.uav[25] utilizationEnergyMaintenance 63027.828826904
scalar OsgEarthNet.uav[25] utilizationEnergyCharge 203962.18261719
scalar OsgEarthNet.uav[25] utilizationEnergyOverdrawMission 0
scalar OsgEarthNet.uav[25] utilizationEnergyOverdrawMaintenance 0
scalar OsgEarthNet.uav[25] utilizationCountMissions 48
scalar OsgEarthNet.uav[25] utilizationCountManeuversMission 491
scalar OsgEarthNet.uav[25] utilizationCountManeuversMaintenance 95
scalar OsgEarthNet.uav[25] utilizationCountChargeState 48
scalar OsgEarthNet.uav[25] utilizationCountOverdrawnAfterMission 0
scalar OsgEarthNet.uav[25] utilizationCountIdleState 48
scalar OsgEarthNet.uav[25] utilizationFail 0
scalar OsgEarthNet.uav[25] simulationTime 259200
scalar OsgEarthNet.uav[26] utilizationSecMission 581.19640448947
scalar OsgEarthNet.uav[26] utilizationSecMaintenance 393.71026136566
scalar OsgEarthNet.uav[26] utilizationSecCharge 3620
scalar OsgEarthNet.uav[26] utilizationSecIdle 254605.09233414
scalar OsgEarthNet.uav[26] utilizationEnergyMission 2676.1959838867
scalar OsgEarthNet.uav[26] utilizationEnergyMaintenance 1891.0926742554
scalar OsgEarthNet.uav[26] utilizationEnergyCharge 4525.7705078125
scalar OsgEarthNet.uav[26] utilizationEnergyOverdrawMission 0
scalar OsgEarthNet.uav[26] utilizationEnergyOverdrawMaintenance 0
scalar OsgEarthNet.uav[26] utilizationCountMissions 1
scalar OsgEarthNet.uav[26] utilizationCountManeuversMission 9
scalar OsgEarthNet.uav[26] utilizationCountManeuversMaintenance 2
scalar OsgEarthNet.uav[26] utilizationCountChargeState 1
scalar OsgEarthNet.uav[26] utilizationCountOverdrawnAfterMission 0
scalar OsgEarthNet.uav[26] utilizationCountIdleState 2
scalar OsgEarthNet.uav[26] utilizationFail 0
scalar OsgEarthNet.uav[26] simulationTime 259200
scalar OsgEarthNet.uav[27] utilizationSecMission 29951.783776758
scalar OsgEarthNet.uav[27] utilizationSecMaintenance 12816.190988238
scalar OsgEarthNet.uav[27] utilizationSecCharge 158889.66721959
scalar OsgEarthNet.uav[27] utilizationSecIdle 57542.357015417
scalar OsgEarthNet.uav[27] utilizationEnergyMission 137878.40548706
scalar OsgEarthNet.uav[27] utilizationEnergyMaintenance 59973.617362976
scalar OsgEarthNet.uav[27] utilizationEnergyCharge 197414.56787109
scalar OsgEarthNet.uav[27] utilizationEnergyOverdrawMission 0
scalar OsgEarthNet.uav[27] utilizationEnergyOverdrawMaintenance 0
scalar OsgEarthNet.uav[27] utilizationCountMissions 45
scalar OsgEarthNet.uav[27] utilizationCountManeuversMission 494
scalar OsgEarthNet.uav[27] utilizationCountManeuversMaintenance 90
scalar OsgEarthNet.uav[27] utilizationCountChargeState 45
scalar OsgEarthNet.uav[27] utilizationCountOverdrawnAfterMission 0
scalar OsgEarthNet.uav[27] utilizationCountIdleState 45
scalar OsgEarthNet.uav[27] utilizationFail 0
scalar OsgEarthNet.uav[27] simulationTime 259200
scalar OsgEarthNet.uav[28] utilizationSecMission 887.1741082606
scalar OsgEarthNet.uav[28] utilizationSecMaintenance 181.20511066264
scalar OsgEarthNet.uav[28] utilizationSecCharge 3620
scalar OsgEarthNet.uav[28] utilizationSecIdle 254511.61978108
scalar OsgEarthNet.uav[28] utilizationEnergyMission 3771.5657501221
scalar OsgEarthNet.uav[28] utilizationEnergyMaintenance 736.4842338562
scalar OsgEarthNet.uav[28] utilizationEnergyCharge 4515.3837890625
scalar OsgEarthNet.uav[28] utilizationEnergyOverdrawMission 0
scalar OsgEarthNet.uav[28] utilizationEnergyOverdrawMaintenance 0
scalar OsgEarthNet.uav[28] utilizationCountMissions 1
scalar OsgEarthNet.uav[28] utilizationCountManeuversMission 14
scalar OsgEarthNet.uav[28] utilizationCountManeuversMaintenance 2
scalar OsgEarthNet.uav[28] utilizationCountChargeState 1
scalar OsgEarthNet.uav[28] utilizationCountOverdrawnAfterMission 0
scalar OsgEarthNet.uav[28] utilizationCountIdleState 2
scalar OsgEarthNet.uav[28] utilizationFail 0
scalar OsgEarthNet.uav[28] simulationTime 259200
scalar OsgEarthNet.uav[29] utilizationSecMission 27088.754815835
scalar OsgEarthNet.uav[29] utilizationSecMaintenance 11924.507664676
scalar OsgEarthNet.uav[29] utilizationSecCharge 146643.66249283
scalar OsgEarthNet.uav[29] utilizationSecIdle 73543.074026656
scalar OsgEarthNet.uav[29] utilizationEnergyMission 125626.30221558
scalar OsgEarthNet.uav[29] utilizationEnergyMaintenance 55453.051383972
scalar OsgEarthNet.uav[29] utilizationEnergyCharge 180876.75732422
scalar OsgEarthNet.uav[29] utilizationEnergyOverdrawMission 0
scalar OsgEarthNet.uav[29] utilizationEnergyOverdrawMaintenance 0
scalar OsgEarthNet.uav[29] utilizationCountMissions 42
scalar OsgEarthNet.uav[29] utilizationCountManeuversMission 440
scalar OsgEarthNet.uav[29] utilizationCountManeuversMaintenance 84
scalar OsgEarthNet.uav[29] utilizationCountChargeState 42
scalar OsgEarthNet.uav[29] utilizationCountOverdrawnAfterMission 0
scalar OsgEarthNet.uav[29] utilizationCountIdleState 42
scalar OsgEarthNet.uav[29] utilizationFail 0
scalar OsgEarthNet.uav[29] simulationTime 259200
scalar OsgEarthNet.uav[30] utilizationSecMission 684.4732299383
scalar OsgEarthNet.uav[30] utilizationSecMaintenance 298.56834692969
scalar OsgEarthNet.uav[30] utilizationSecCharge 3760
scalar OsgEarthNet.uav[30] utilizationSecIdle 254456.95742313
scalar OsgEarthNet.uav[30] utilizationEnergyMission 3264.3786315918
scalar OsgEarthNet.uav[30] utilizationEnergyMaintenance 1473.6346664429
scalar OsgEarthNet.uav[30] utilizationEnergyCharge 4738.0112304688
scalar OsgEarthNet.uav[30] utilizationEnergyOverdrawMission 0
scalar OsgEarthNet.uav[30] utilizationEnergyOverdrawMaintenance 0
scalar OsgEarthNet.uav[30] utilizationCountMissions 1
scalar OsgEarthNet.uav[30] utilizationCountManeuversMission 11
scalar OsgEarthNet.uav[30] utilizationCountManeuversMaintenance 2
scalar OsgEarthNet.uav[30] utilizationCountChargeState 1
scalar OsgEarthNet.uav[30] utilizationCountOverdrawnAfterMission 0
scalar OsgEarthNet.uav[30] utilizationCountIdleState 2
scalar OsgEarthNet.uav[30] utilizationFail 0
scalar OsgEarthNet.uav[30] simulationTime 259200
scalar OsgEarthNet.uav[31] utilizationSecMission 29303.978385887
scalar OsgEarthNet.uav[31] utilizationSecMaintenance 12494.010820028
scalar OsgEarthNet.uav[31] utilizationSecCharge 156607.39790457
scalar OsgEarthNet.uav[31] utilizationSecIdle 60794.611889516
scalar OsgEarthNet.uav[31] utilizationEnergyMission 135679.1103096
scalar OsgEarthNet.uav[31] utilizationEnergyMaintenance 58485.8595047
scalar OsgEarthNet.uav[31] utilizationEnergyCharge 193243.78076172
scalar OsgEarthNet.uav[31] utilizationEnergyOverdrawMission 0
scalar OsgEarthNet.uav[31] utilizationEnergyOverdrawMaintenance 0
scalar OsgEarthNet.uav[31] utilizationCountMissions 45
scalar OsgEarthNet.uav[31] utilizationCountManeuversMission 463
scalar OsgEarthNet.uav[31] utilizationCountManeuversMaintenance 90
scalar OsgEarthNet.uav[31] utilizationCountChargeState 45
scalar OsgEarthNet.uav[31] utilizationCountOverdrawnAfterMission 0
scalar OsgEarthNet.uav[31] utilizationCountIdleState 45
scalar OsgEarthNet.uav[31] utilizationFail 0
scalar OsgEarthNet.uav[31] simulationTime 259200
scalar OsgEarthNet.uav[32] utilizationSecMission 750.20472747826
scalar OsgEarthNet.uav[32] utilizationSecMaintenance 218.84515192887
scalar OsgEarthNet.uav[32] utilizationSecCharge 3590
scalar OsgEarthNet.uav[32] utilizationSecIdle 254640.94912059
scalar OsgEarthNet.uav[32] utilizationEnergyMission 3452.861328125
scalar OsgEarthNet.uav[32] utilizationEnergyMaintenance 1011.4976119995
scalar OsgEarthNet.uav[32] utilizationEnergyCharge 4464.359375
scalar OsgEarthNet.uav[32] utilizationEnergyOverdrawMission 0
scalar OsgEarthNet.uav[32] utilizationEnergyOverdrawMaintenance 0
scalar OsgEarthNet.uav[32] utilizationCountMissions 1
scalar OsgEarthNet.uav[32] utilizationCountManeuversMission 11
scalar OsgEarthNet.uav[32] utilizationCountManeuversMaintenance 2
scalar OsgEarthNet.uav[32] utilizationCountChargeState 1
scalar OsgEarthNet.uav[32] utilizationCountOverdrawnAfterMission 0
scalar OsgEarthNet.uav[32] utilizationCountIdleState 2
scalar OsgEarthNet.uav[32] utilizationFail 0
scalar OsgEarthNet.uav[32] simulationTime 259200
scalar OsgEarthNet.uav[33] utilizationSecMission 179.21601502944
scalar OsgEarthNet.uav[33] utilizationSecMaintenance 354.43405905663
scalar OsgEarthNet.uav[33] utilizationSecCharge 2480
scalar OsgEarthNet.uav[33] utilizationSecIdle 256186.34892591
scalar OsgEarthNet.uav[33] utilizationEnergyMission 785.90219116211
scalar OsgEarthNet.uav[33] utilizationEnergyMaintenance 1707.2339401245
scalar OsgEarthNet.uav[33] utilizationEnergyCharge 2493.1384277344
scalar OsgEarthNet.uav[33] utilizationEnergyOverdrawMission 0
scalar OsgEarthNet.uav[33] utilizationEnergyOverdrawMaintenance 0
scalar OsgEarthNet.uav[33] utilizationCountMissions 1
scalar OsgEarthNet.uav[33] utilizationCountManeuversMission 3
scalar OsgEarthNet.uav[33] utilizationCountManeuversMaintenance 2
scalar OsgEarthNet.uav[33] utilizationCountChargeState 1
scalar OsgEarthNet.uav[33] utilizationCountOverdrawnAfterMission 0
scalar OsgEarthNet.uav[33] utilizationCountIdleState 2
scalar OsgEarthNet.uav[33] utilizationFail 0
scalar OsgEarthNet.uav[33] simulationTime 259200
scalar OsgEarthNet.uav[34] utilizationSecMission 21796.308706448
scalar OsgEarthNet.uav[34] utilizationSecMaintenance 10881.319769584
scalar OsgEarthNet.uav[34] utilizationSecCharge 120880
scalar OsgEarthNet.uav[34] utilizationSecIdle 105642.37052397
scalar OsgEarthNet.uav[34] utilizationEnergyMission 100349.54296946
scalar OsgEarthNet.uav[34] utilizationEnergyMaintenance 51137.595676422
scalar OsgEarthNet.uav[34] utilizationEnergyCharge 148978.3527832
scalar OsgEarthNet.uav[34] utilizationEnergyOverdrawMission 0
scalar OsgEarthNet.uav[34] utilizationEnergyOverdrawMaintenance 0
scalar OsgEarthNet.uav[34] utilizationCountMissions 34
scalar OsgEarthNet.uav[34] utilizationCountManeuversMission 357
scalar OsgEarthNet.uav[34] utilizationCountManeuversMaintenance 69
scalar OsgEarthNet.uav[34] utilizationCountChargeState 34
scalar OsgEarthNet.uav[34] utilizationCountOverdrawnAfterMission 0
scalar OsgEarthNet.uav[34] utilizationCountIdleState 35
scalar OsgEarthNet.uav[34] utilizationFail 0
scalar OsgEarthNet.uav[34] simulationTime 259200
scalar OsgEarthNet.uav[35] utilizationSecMission 887.1741082606
scalar OsgEarthNet.uav[35] utilizationSecMaintenance 181.20511066264
scalar OsgEarthNet.uav[35] utilizationSecCharge 3800
scalar OsgEarthNet.uav[35] utilizationSecIdle 254331.61978108
scalar OsgEarthNet.uav[35] utilizationEnergyMission 4291.919128418
scalar OsgEarthNet.uav[35] utilizationEnergyMaintenance 789.35783004761
scalar OsgEarthNet.uav[35] utilizationEnergyCharge 4789.0688476562
scalar OsgEarthNet.uav[35] utilizationEnergyOverdrawMission 0
scalar OsgEarthNet.uav[35] utilizationEnergyOverdrawMaintenance 0
scalar OsgEarthNet.uav[35] utilizationCountMissions 1
scalar OsgEarthNet.uav[35] utilizationCountManeuversMission 14
scalar OsgEarthNet.uav[35] utilizationCountManeuversMaintenance 2
scalar OsgEarthNet.uav[35] utilizationCountChargeState 1
scalar OsgEarthNet.uav[35] utilizationCountOverdrawnAfterMission 0
scalar OsgEarthNet.uav[35] utilizationCountIdleState 2
scalar OsgEarthNet.uav[35] utilizationFail 0
scalar OsgEarthNet.uav[35] simulationTime 259200
scalar OsgEarthNet.uav[36] utilizationSecMission 760.62515258028
scalar OsgEarthNet.uav[36] utilizationSecMaintenance 281.95923480269
scalar OsgEarthNet.uav[36] utilizationSecCharge 3830
scalar OsgEarthNet.uav[36] utilizationSecIdle 254327.41461262
scalar OsgEarthNet.uav[36] utilizationEnergyMission 3501.1106109619
scalar OsgEarthNet.uav[36] utilizationEnergyMaintenance 1347.0351676941
scalar OsgEarthNet.uav[36] utilizationEnergyCharge 4848.1435546875
scalar OsgEarthNet.uav[36] utilizationEnergyOverdrawMission 0
scalar OsgEarthNet.uav[36] utilizationEnergyOverdrawMaintenance 0
scalar OsgEarthNet.uav[36] utilizationCountMissions 1
scalar OsgEarthNet.uav[36] utilizationCountManeuversMission 13
scalar OsgEarthNet.uav[36] utilizationCountManeuversMaintenance 2
scalar OsgEarthNet.uav[36] utilizationCountChargeState 1
scalar OsgEarthNet.uav[36] utilizationCountOverdrawnAfterMission 0
scalar OsgEarthNet.uav[36] utilizationCountIdleState 2
scalar OsgEarthNet.uav[36] utilizationFail 0
scalar OsgEarthNet.uav[36] simulationTime 259200
scalar OsgEarthNet.uav[37] utilizationSecMission 30937.312303647
scalar OsgEarthNet.uav[37] utilizationSecMaintenance 12210.685189631
scalar OsgEarthNet.uav[37] utilizationSecCharge 160240
scalar OsgEarthNet.uav[37] utilizationSecIdle 55812.001506722
scalar OsgEarthNet.uav[37] utilizationEnergyMission 145398.17886386
scalar OsgEarthNet.uav[37] utilizationEnergyMaintenance 56940.298683167
scalar OsgEarthNet.uav[37] utilizationEnergyCharge 198121.17626953
scalar OsgEarthNet.uav[37] utilizationEnergyOverdrawMission 0
scalar OsgEarthNet.uav[37] utilizationEnergyOverdrawMaintenance 0
scalar OsgEarthNet.uav[37] utilizationCountMissions 45
scalar OsgEarthNet.uav[37] utilizationCountManeuversMission 506
scalar OsgEarthNet.uav[37] utilizationCountManeuversMaintenance 91
scalar OsgEarthNet.uav[37] utilizationCountChargeState 45
scalar OsgEarthNet.uav[37] utilizationCountOverdrawnAfterMission 0
scalar OsgEarthNet.uav[37] utilizationCountIdleState 46
scalar OsgEarthNet.uav[37] utilizationFail 0
scalar OsgEarthNet.uav[37] simulationTime 259200
scalar OsgEarthNet.uav[38] utilizationSecMission 887.1741082606
scalar OsgEarthNet.uav[38] utilizationSecMaintenance 181.20511066264
scalar OsgEarthNet.uav[38] utilizationSecCharge 3800
scalar OsgEarthNet.uav[38] utilizationSecIdle 254331.61978108
scalar OsgEarthNet.uav[38] utilizationEnergyMission 3987.8406524658
scalar OsgEarthNet.uav[38] utilizationEnergyMaintenance 874.69620895386
scalar OsgEarthNet.uav[38] utilizationEnergyCharge 4826.2109375
scalar OsgEarthNet.uav[38] utilizationEnergyOverdrawMission 0
scalar OsgEarthNet.uav[38] utilizationEnergyOverdrawMaintenance 0
scalar OsgEarthNet.uav[38] utilizationCountMissions 1
scalar OsgEarthNet.uav[38] utilizationCountManeuversMission 14
scalar OsgEarthNet.uav[38] utilizationCountManeuversMaintenance 2
scalar OsgEarthNet.uav[38] utilizationCountChargeState 1
scalar OsgEarthNet.uav[38] utilizationCountOverdrawnAfterMission 0
scalar OsgEarthNet.uav[38] utilizationCountIdleState 2
scalar OsgEarthNet.uav[38] utilizationFail 0
scalar OsgEarthNet.uav[38] simulationTime 259200
scalar OsgEarthNet.uav[39] utilizationSecMission 19158.359878746
scalar OsgEarthNet.uav[39] utilizationSecMaintenance 9318.5129191589
scalar OsgEarthNet.uav[39] utilizationSecCharge 104295.37909532
scalar OsgEarthNet.uav[39] utilizationSecIdle 126427.74710677
scalar OsgEarthNet.uav[39] utilizationEnergyMission 88804.972343445
scalar OsgEarthNet.uav[39] utilizationEnergyMaintenance 43050.000160217
scalar OsgEarthNet.uav[39] utilizationEnergyCharge 129213.2199707
scalar OsgEarthNet.uav[39] utilizationEnergyOverdrawMission 0
scalar OsgEarthNet.uav[39] utilizationEnergyOverdrawMaintenance 0
scalar OsgEarthNet.uav[39] utilizationCountMissions 30
scalar OsgEarthNet.uav[39] utilizationCountManeuversMission 319
scalar OsgEarthNet.uav[39] utilizationCountManeuversMaintenance 60
scalar OsgEarthNet.uav[39] utilizationCountChargeState 30
scalar OsgEarthNet.uav[39] utilizationCountOverdrawnAfterMission 0
scalar OsgEarthNet.uav[39] utilizationCountIdleState 30
scalar OsgEarthNet.uav[39] utilizationFail 0
scalar OsgEarthNet.uav[39] simulationTime 259200
scalar OsgEarthNet.uav[40] utilizationSecMission 545.05972348896
scalar OsgEarthNet.uav[40] utilizationSecMaintenance 427.36308650536
scalar OsgEarthNet.uav[40] utilizationSecCharge 3700
scalar OsgEarthNet.uav[40] utilizationSecIdle 254527.57619001
scalar OsgEarthNet.uav[40] utilizationEnergyMission 2792.114364624
scalar OsgEarthNet.uav[40] utilizationEnergyMaintenance 2002.1455001831
scalar OsgEarthNet.uav[40] utilizationEnergyCharge 4589.8471679688
scalar OsgEarthNet.uav[40] utilizationEnergyOverdrawMission 0
scalar OsgEarthNet.uav[40] utilizationEnergyOverdrawMaintenance 0
scalar OsgEarthNet.uav[40] utilizationCountMissions 1
scalar OsgEarthNet.uav[40] utilizationCountManeuversMission 9
scalar OsgEarthNet.uav[40] utilizationCountManeuversMaintenance 2
scalar OsgEarthNet.uav[40] utilizationCountChargeState 1
scalar OsgEarthNet.uav[40] utilizationCountOverdrawnAfterMission 0
scalar OsgEarthNet.uav[40] utilizationCountIdleState 2
scalar OsgEarthNet.uav[40] utilizationFail 0
scalar OsgEarthNet.uav[40] simulationTime 259200
scalar OsgEarthNet.uav[41] utilizationSecMission 27498.333059834
scalar OsgEarthNet.uav[41] utilizationSecMaintenance 13098.291772122
scalar OsgEarthNet.uav[41] utilizationSecCharge 150183.01174921
scalar OsgEarthNet.uav[41] utilizationSecIdle 68420.362418837
scalar OsgEarthNet.uav[41] utilizationEnergyMission 127342.74602127
scalar OsgEarthNet.uav[41] utilizationEnergyMaintenance 61556.908332825
scalar OsgEarthNet.uav[41] utilizationEnergyCharge 185958.19042969
scalar OsgEarthNet.uav[41] utilizationEnergyOverdrawMission 0
scalar OsgEarthNet.uav[41] utilizationEnergyOverdrawMaintenance 0
scalar OsgEarthNet.uav[41] utilizationCountMissions 43
scalar OsgEarthNet.uav[41] utilizationCountManeuversMission 461
scalar OsgEarthNet.uav[41] utilizationCountManeuversMaintenance 86
scalar OsgEarthNet.uav[41] utilizationCountChargeState 43
scalar OsgEarthNet.uav[41] utilizationCountOverdrawnAfterMission 0
scalar OsgEarthNet.uav[41] utilizationCountIdleState 43
scalar OsgEarthNet.uav[41] utilizationFail 0
scalar OsgEarthNet.uav[41] simulationTime 259200
scalar OsgEarthNet.uav[42] utilizationSecMission 31637.119435732
scalar OsgEarthNet.uav[42] utilizationSecMaintenance 12871.582404511
scalar OsgEarthNet.uav[42] utilizationSecCharge 164360
scalar OsgEarthNet.uav[42] utilizationSecIdle 50331.297159757
scalar OsgEarthNet.uav[42] utilizationEnergyMission 146354.67642712
scalar OsgEarthNet.uav[42] utilizationEnergyMaintenance 58840.299755096
scalar OsgEarthNet.uav[42] utilizationEnergyCharge 205055.16162109
scalar OsgEarthNet.uav[42] utilizationEnergyOverdrawMission 0
scalar OsgEarthNet.uav[42] utilizationEnergyOverdrawMaintenance 0
scalar OsgEarthNet.uav[42] utilizationCountMissions 45
scalar OsgEarthNet.uav[42] utilizationCountManeuversMission 526
scalar OsgEarthNet.uav[42] utilizationCountManeuversMaintenance 89
scalar OsgEarthNet.uav[42] utilizationCountChargeState 45
scalar OsgEarthNet.uav[42] utilizationCountOverdrawnAfterMission 0
scalar OsgEarthNet.uav[42] utilizationCountIdleState 46
scalar OsgEarthNet.uav[42] utilizationFail 0
scalar OsgEarthNet.uav[42] simulationTime 259200
scalar OsgEarthNet.uav[43] utilizationSecMission 179.21601502944
scalar OsgEarthNet.uav[43] utilizationSecMaintenance 354.43405905663
scalar OsgEarthNet.uav[43] utilizationSecCharge 2480
scalar OsgEarthNet.uav[43] utilizationSecIdle 256186.34892591
scalar OsgEarthNet.uav[43] utilizationEnergyMission 895.10437011719
scalar OsgEarthNet.uav[43] utilizationEnergyMaintenance 1648.9384994507
scalar OsgEarthNet.uav[43] utilizationEnergyCharge 2544.0471191406
scalar OsgEarthNet.uav[43] utilizationEnergyOverdrawMission 0
scalar OsgEarthNet.uav[43] utilizationEnergyOverdrawMaintenance 0
scalar OsgEarthNet.uav[43] utilizationCountMissions 1
scalar OsgEarthNet.uav[43] utilizationCountManeuversMission 3
scalar OsgEarthNet.uav[43] utilizationCountManeuversMaintenance 2
scalar OsgEarthNet.uav[43] utilizationCountChargeState 1
scalar OsgEarthNet.uav[43] utilizationCountOverdrawnAfterMission 0
scalar OsgEarthNet.uav[43] utilizationCountIdleState 2
scalar OsgEarthNet.uav[43] utilizationFail 0
scalar OsgEarthNet.uav[43] simulationTime 259200
scalar OsgEarthNet.uav[44] utilizationSecMission 7236.4103131766
scalar OsgEarthNet.uav[44] utilizationSecMaintenance 3264.4640422714
scalar OsgEarthNet.uav[44] utilizationSecCharge 39370
scalar OsgEarthNet.uav[44] utilizationSecIdle 209329.12464455
scalar OsgEarthNet.uav[44] utilizationEnergyMission 33370.096626282
scalar OsgEarthNet.uav[44] utilizationEnergyMaintenance 15282.197647095
scalar OsgEarthNet.uav[44] utilizationEnergyCharge 48643.178222656
scalar OsgEarthNet.uav[44] utilizationEnergyOverdrawMission 0
scalar OsgEarthNet.uav[44] utilizationEnergyOverdrawMaintenance 0
scalar OsgEarthNet.uav[44] utilizationCountMissions 11
scalar OsgEarthNet.uav[44] utilizationCountManeuversMission 118
scalar OsgEarthNet.uav[44] utilizationCountManeuversMaintenance 22
scalar OsgEarthNet.uav[44] utilizationCountChargeState 11
scalar OsgEarthNet.uav[44] utilizationCountOverdrawnAfterMission 0
scalar OsgEarthNet.uav[44] utilizationCountIdleState 12
scalar OsgEarthNet.uav[44] utilizationFail 0
scalar OsgEarthNet.uav[44] simulationTime 259200
scalar OsgEarthNet.uav[45] utilizationSecMission 694.00169469977
scalar OsgEarthNet.uav[45] utilizationSecMaintenance 282.18572599206
scalar OsgEarthNet.uav[45] utilizationSecCharge 3630
scalar OsgEarthNet.uav[45] utilizationSecIdle 254593.81157931
scalar OsgEarthNet.uav[45] utilizationEnergyMission 3098.6721801758
scalar OsgEarthNet.uav[45] utilizationEnergyMaintenance 1443.4672470093
scalar OsgEarthNet.uav[45] utilizationEnergyCharge 4542.1372070312
scalar OsgEarthNet.uav[45] utilizationEnergyOverdrawMission 0
scalar OsgEarthNet.uav[45] utilizationEnergyOverdrawMaintenance 0
scalar OsgEarthNet.uav[45] utilizationCountMissions 1
scalar OsgEarthNet.uav[45] utilizationCountManeuversMission 13
scalar OsgEarthNet.uav[45] utilizationCountManeuversMaintenance 2
scalar OsgEarthNet.uav[45] utilizationCountChargeState 1
scalar OsgEarthNet.uav[45] utilizationCountOverdrawnAfterMission 0
scalar OsgEarthNet.uav[45] utilizationCountIdleState 2
scalar OsgEarthNet.uav[45] utilizationFail 0
scalar OsgEarthNet.uav[45] simulationTime 259200
scalar OsgEarthNet.uav[46] utilizationSecMission 760.62515258028
scalar OsgEarthNet.uav[46] utilizationSecMaintenance 291.95923480269
scalar OsgEarthNet.uav[46] utilizationSecCharge 3700
scalar OsgEarthNet.uav[46] utilizationSecIdle 254447.41461262
scalar OsgEarthNet.uav[46] utilizationEnergyMission 3362.6517562866
scalar OsgEarthNet.uav[46] utilizationEnergyMaintenance 1282.1249008179
scalar OsgEarthNet.uav[46] utilizationEnergyCharge 4644.7797851562
scalar OsgEarthNet.uav[46] utilizationEnergyOverdrawMission 0
scalar OsgEarthNet.uav[46] utilizationEnergyOverdrawMaintenance 0
scalar OsgEarthNet.uav[46] utilizationCountMissions 1
scalar OsgEarthNet.uav[46] utilizationCountManeuversMission 12
scalar OsgEarthNet.uav[46] utilizationCountManeuversMaintenance 2
scalar OsgEarthNet.uav[46] utilizationCountChargeState 1
scalar OsgEarthNet.uav[46] utilizationCountOverdrawnAfterMission 0
scalar OsgEarthNet.uav[46] utilizationCountIdleState 2
scalar OsgEarthNet.uav[46] utilizationFail 0
scalar OsgEarthNet.uav[46] simulationTime 259200
scalar OsgEarthNet.uav[47] utilizationSecMission 758.94298494759
scalar OsgEarthNet.uav[47] utilizationSecMaintenance 928.74304847907
scalar OsgEarthNet.uav[47] utilizationSecCharge 7740
scalar OsgEarthNet.uav[47] utilizationSecIdle 249772.31296657
scalar OsgEarthNet.uav[47] utilizationEnergyMission 3601.3523101807
scalar OsgEarthNet.uav[47] utilizationEnergyMaintenance 4516.0281524658
scalar OsgEarthNet.uav[47] utilizationEnergyCharge 8117.3757324219
scalar OsgEarthNet.uav[47] utilizationEnergyOverdrawMission 0
scalar OsgEarthNet.uav[47] utilizationEnergyOverdrawMaintenance 0
scalar OsgEarthNet.uav[47] utilizationCountMissions 3
scalar OsgEarthNet.uav[47] utilizationCountManeuversMission 11
scalar OsgEarthNet.uav[47] utilizationCountManeuversMaintenance 6
scalar OsgEarthNet.uav[47] utilizationCountChargeState 3
scalar OsgEarthNet.uav[47] utilizationCountOverdrawnAfterMission 0
scalar OsgEarthNet.uav[47] utilizationCountIdleState 4
scalar OsgEarthNet.uav[47] utilizationFail 0
scalar OsgEarthNet.uav[47] simulationTime 259200
scalar OsgEarthNet.uav[48] utilizationSecMission 30555.885094931
scalar OsgEarthNet.uav[48] utilizationSecMaintenance 12898.0778063
scalar OsgEarthNet.uav[48] utilizationSecCharge 159870
scalar OsgEarthNet.uav[48] utilizationSecIdle 55876.036098769
scalar OsgEarthNet.uav[48] utilizationEnergyMission 141985.52629153
scalar OsgEarthNet.uav[48] utilizationEnergyMaintenance 59934.422119141
scalar OsgEarthNet.uav[48] utilizationEnergyCharge 199140.13256836
scalar OsgEarthNet.uav[48] utilizationEnergyOverdrawMission 0
scalar OsgEarthNet.uav[48] utilizationEnergyOverdrawMaintenance 0
scalar OsgEarthNet.uav[48] utilizationCountMissions 44
scalar OsgEarthNet.uav[48] utilizationCountManeuversMission 506
scalar OsgEarthNet.uav[48] utilizationCountManeuversMaintenance 89
scalar OsgEarthNet.uav[48] utilizationCountChargeState 44
scalar OsgEarthNet.uav[48] utilizationCountOverdrawnAfterMission 0
scalar OsgEarthNet.uav[48] utilizationCountIdleState 45
scalar OsgEarthNet.uav[48] utilizationFail 0
scalar OsgEarthNet.uav[48] simulationTime 259200
scalar OsgEarthNet.uav[49] utilizationSecMission 27252.439638455
scalar OsgEarthNet.uav[49] utilizationSecMaintenance 10972.966803866
scalar OsgEarthNet.uav[49] utilizationSecCharge 141790
scalar OsgEarthNet.uav[49] utilizationSecIdle 79184.592557679
scalar OsgEarthNet.uav[49] utilizationEnergyMission 126292.05971527
scalar OsgEarthNet.uav[49] utilizationEnergyMaintenance 51012.675354004
scalar OsgEarthNet.uav[49] utilizationEnergyCharge 176710.80810547
scalar OsgEarthNet.uav[49] utilizationEnergyOverdrawMission 0
scalar OsgEarthNet.uav[49] utilizationEnergyOverdrawMaintenance 0
scalar OsgEarthNet.uav[49] utilizationCountMissions 39
scalar OsgEarthNet.uav[49] utilizationCountManeuversMission 443
scalar OsgEarthNet.uav[49] utilizationCountManeuversMaintenance 78
scalar OsgEarthNet.uav[49] utilizationCountChargeState 39
scalar OsgEarthNet.uav[49] utilizationCountOverdrawnAfterMission 0
scalar OsgEarthNet.uav[49] utilizationCountIdleState 40
scalar OsgEarthNet.uav[49] utilizationFail 0
scalar OsgEarthNet.uav[49] simulationTime 259200
scalar OsgEarthNet.uav[50] utilizationSecMission 623.68863475643
scalar OsgEarthNet.uav[50] utilizationSecMaintenance 394.94199877579
scalar OsgEarthNet.uav[50] utilizationSecCharge 3670
scalar OsgEarthNet.uav[50] utilizationSecIdle 254511.36836647
scalar OsgEarthNet.uav[50] utilizationEnergyMission 2932.6288757324
scalar OsgEarthNet.uav[50] utilizationEnergyMaintenance 1847.010887146
scalar OsgEarthNet.uav[50] utilizationEnergyCharge 4582.271484375
scalar OsgEarthNet.uav[50] utilizationEnergyOverdrawMission 0
scalar OsgEarthNet.uav[50] utilizationEnergyOverdrawMaintenance 0
scalar OsgEarthNet.uav[50] utilizationCountMissions 1
scalar OsgEarthNet.uav[50] utilizationCountManeuversMission 10
scalar OsgEarthNet.uav[50] utilizationCountManeuversMaintenance 2
scalar OsgEarthNet.uav[50] utilizationCountChargeState 1
scalar OsgEarthNet.uav[50] utilizationCountOverdrawnAfterMission 0
scalar OsgEarthNet.uav[50] utilizationCountIdleState 2
scalar OsgEarthNet.uav[50] utilizationFail 0
scalar OsgEarthNet.uav[50] simulationTime 259200
scalar OsgEarthNet.uav[51] utilizationSecMission 30041.701070674
scalar OsgEarthNet.uav[51] utilizationSecMaintenance 12454.355157211
scalar OsgEarthNet.uav[51] utilizationSecCharge 158821.38647395
scalar OsgEarthNet.uav[51] utilizationSecIdle 57882.556298162
scalar OsgEarthNet.uav[51] utilizationEnergyMission 138625.39744186
scalar OsgEarthNet.uav[51] utilizationEnergyMaintenance 58386.97674942
scalar OsgEarthNet.uav[51] utilizationEnergyCharge 197081.921875
scalar OsgEarthNet.uav[51] utilizationEnergyOverdrawMission 0
scalar OsgEarthNet.uav[51] utilizationEnergyOverdrawMaintenance 0
scalar OsgEarthNet.uav[51] utilizationCountMissions 45
scalar OsgEarthNet.uav[51] utilizationCountManeuversMission 495
scalar OsgEarthNet.uav[51] utilizationCountManeuversMaintenance 90
scalar OsgEarthNet.uav[51] utilizationCountChargeState 45
scalar OsgEarthNet.uav[51] utilizationCountOverdrawnAfterMission 0
scalar OsgEarthNet.uav[51] utilizationCountIdleState 45
scalar OsgEarthNet.uav[51] utilizationFail 0
scalar OsgEarthNet.uav[51] simulationTime 259200
scalar OsgEarthNet.uav[52] utilizationSecMission 1444.206422178
scalar OsgEarthNet.uav[52] utilizationSecMaintenance 491.15453597363
scalar OsgEarthNet.uav[52] utilizationSecCharge 7190
scalar OsgEarthNet.uav[52] utilizationSecIdle 250074.63804185
scalar OsgEarthNet.uav[52] utilizationEnergyMission 6777.9893798828
scalar OsgEarthNet.uav[52] utilizationEnergyMaintenance 2357.7416419983
scalar OsgEarthNet.uav[52] utilizationEnergyCharge 8912.25
scalar OsgEarthNet.uav[52] utilizationEnergyOverdrawMission 0
scalar OsgEarthNet.uav[52] utilizationEnergyOverdrawMaintenance 0
scalar OsgEarthNet.uav[52] utilizationCountMissions 2
scalar OsgEarthNet.uav[52] utilizationCountManeuversMission 24
scalar OsgEarthNet.uav[52] utilizationCountManeuversMaintenance 4
scalar OsgEarthNet.uav[52] utilizationCountChargeState 2
scalar OsgEarthNet.uav[52] utilizationCountOverdrawnAfterMission 0
scalar OsgEarthNet.uav[52] utilizationCountIdleState 3
scalar OsgEarthNet.uav[52] utilizationFail 0
scalar OsgEarthNet.uav[52] simulationTime 259200
scalar OsgEarthNet.uav[53] utilizationSecMission 25803.86072525
scalar OsgEarthNet.uav[53] utilizationSecMaintenance 11911.614646636
scalar OsgEarthNet.uav[53] utilizationSecCharge 141081.13151058
scalar OsgEarthNet.uav[53] utilizationSecIdle 80403.392117534
scalar OsgEarthNet.uav[53] utilizationEnergyMission 118219.6155014
scalar OsgEarthNet.uav[53] utilizationEnergyMaintenance 55938.17924881
scalar OsgEarthNet.uav[53] utilizationEnergyCharge 173442.24072266
scalar OsgEarthNet.uav[53] utilizationEnergyOverdrawMission 0
scalar OsgEarthNet.uav[53] utilizationEnergyOverdrawMaintenance 0
scalar OsgEarthNet.uav[53] utilizationCountMissions 41
scalar OsgEarthNet.uav[53] utilizationCountManeuversMission 411
scalar OsgEarthNet.uav[53] utilizationCountManeuversMaintenance 82
scalar OsgEarthNet.uav[53] utilizationCountChargeState 41
scalar OsgEarthNet.uav[53] utilizationCountOverdrawnAfterMission 0
scalar OsgEarthNet.uav[53] utilizationCountIdleState 41
scalar OsgEarthNet.uav[53] utilizationFail 0
scalar OsgEarthNet.uav[53] simulationTime 259200
scalar OsgEarthNet.uav[54] utilizationSecMission 8062.6397908399
scalar OsgEarthNet.uav[54] utilizationSecMaintenance 4859.8866763362
scalar OsgEarthNet.uav[54] utilizationSecCharge 48930
scalar OsgEarthNet.uav[54] utilizationSecIdle 197347.47253282
scalar OsgEarthNet.uav[54] utilizationEnergyMission 37324.763710022
scalar OsgEarthNet.uav[54] utilizationEnergyMaintenance 22553.337589264
scalar OsgEarthNet.uav[54] utilizationEnergyCharge 59808.885986328
scalar OsgEarthNet.uav[54] utilizationEnergyOverdrawMission 0
scalar OsgEarthNet.uav[54] utilizationEnergyOverdrawMaintenance 0
scalar OsgEarthNet.uav[54] utilizationCountMissions 14
scalar OsgEarthNet.uav[54] utilizationCountManeuversMission 138
scalar OsgEarthNet.uav[54] utilizationCountManeuversMaintenance 28
scalar OsgEarthNet.uav[54] utilizationCountChargeState 14
scalar OsgEarthNet.uav[54] utilizationCountOverdrawnAfterMission 0
scalar OsgEarthNet.uav[54] utilizationCountIdleState 15
scalar OsgEarthNet.uav[54] utilizationFail 0
scalar OsgEarthNet.uav[54] simulationTime 259200
scalar OsgEarthNet.uav[55] utilizationSecMission 766.82734763767
scalar OsgEarthNet.uav[55] utilizationSecMaintenance 306.92101052153
scalar OsgEarthNet.uav[55] utilizationSecCharge 3880
scalar OsgEarthNet.uav[55] utilizationSecIdle 254246.25064184
scalar OsgEarthNet.uav[55] utilizationEnergyMission 3515.0530776978
scalar OsgEarthNet.uav[55] utilizationEnergyMaintenance 1439.6510238647
scalar OsgEarthNet.uav[55] utilizationEnergyCharge 4954.7006835938
scalar OsgEarthNet.uav[55] utilizationEnergyOverdrawMission 0
scalar OsgEarthNet.uav[55] utilizationEnergyOverdrawMaintenance 0
scalar OsgEarthNet.uav[55] utilizationCountMissions 1
scalar OsgEarthNet.uav[55] utilizationCountManeuversMission 14
scalar OsgEarthNet.uav[55] utilizationCountManeuversMaintenance 2
scalar OsgEarthNet.uav[55] utilizationCountChargeState 1
scalar OsgEarthNet.uav[55] utilizationCountOverdrawnAfterMission 0
scalar OsgEarthNet.uav[55] utilizationCountIdleState 2
scalar OsgEarthNet.uav[55] utilizationFail 0
scalar OsgEarthNet.uav[55] simulationTime 259200
scalar OsgEarthNet.uav[56] utilizationSecMission 760.62515258028
scalar OsgEarthNet.uav[56] utilizationSecMaintenance 291.95923480269
scalar OsgEarthNet.uav[56] utilizationSecCharge 3820
scalar OsgEarthNet.uav[56] utilizationSecIdle 254327.41461262
scalar OsgEarthNet.uav[56] utilizationEnergyMission 3468.9437866211
scalar OsgEarthNet.uav[56] utilizationEnergyMaintenance 1408.8073348999
scalar OsgEarthNet.uav[56] utilizationEnergyCharge 4877.7504882812
scalar OsgEarthNet.uav[56] utilizationEnergyOverdrawMission 0
scalar OsgEarthNet.uav[56] utilizationEnergyOverdrawMaintenance 0
scalar OsgEarthNet.uav[56] utilizationCountMissions 1
scalar OsgEarthNet.uav[56] utilizationCountManeuversMission 12
scalar OsgEarthNet.uav[56] utilizationCountManeuversMaintenance 2
scalar OsgEarthNet.uav[56] utilizationCountChargeState 1
scalar OsgEarthNet.uav[56] utilizationCountOverdrawnAfterMission 0
scalar OsgEarthNet.uav[56] utilizationCountIdleState 2
scalar OsgEarthNet.uav[56] utilizationFail 0
scalar OsgEarthNet.uav[56] simulationTime 259200
scalar OsgEarthNet.uav[57] utilizationSecMission 27880.633132524
scalar OsgEarthNet.uav[57] utilizationSecMaintenance 13212.631243825
scalar OsgEarthNet.uav[57] utilizationSecCharge 152199.41854182
scalar OsgEarthNet.uav[57] utilizationSecIdle 65907.316081831
scalar OsgEarthNet.uav[57] utilizationEnergyMission 128002.65274811
scalar OsgEarthNet.uav[57] utilizationEnergyMaintenance 61494.502864838
scalar OsgEarthNet.uav[57] utilizationEnergyCharge 187508.4609375
scalar OsgEarthNet.uav[57] utilizationEnergyOverdrawMission 0
scalar OsgEarthNet.uav[57] utilizationEnergyOverdrawMaintenance 0
scalar OsgEarthNet.uav[57] utilizationCountMissions 44
scalar OsgEarthNet.uav[57] utilizationCountManeuversMission 472
scalar OsgEarthNet.uav[57] utilizationCountManeuversMaintenance 88
scalar OsgEarthNet.uav[57] utilizationCountChargeState 44
scalar OsgEarthNet.uav[57] utilizationCountOverdrawnAfterMission 0
scalar OsgEarthNet.uav[57] utilizationCountIdleState 44
scalar OsgEarthNet.uav[57] utilizationFail 0
scalar OsgEarthNet.uav[57] simulationTime 259200
scalar OsgEarthNet.uav[58] utilizationSecMission 887.1741082606
scalar OsgEarthNet.uav[58] utilizationSecMaintenance 181.20511066264
scalar OsgEarthNet.uav[58] utilizationSecCharge 3770
scalar OsgEarthNet.uav[58] utilizationSecIdle 254361.61978108
scalar OsgEarthNet.uav[58] utilizationEnergyMission 3833.9658966065
scalar OsgEarthNet.uav[58] utilizationEnergyMaintenance 938.95212936402
scalar OsgEarthNet.uav[58] utilizationEnergyCharge 4754.78515625
scalar OsgEarthNet.uav[58] utilizationEnergyOverdrawMission 0
scalar OsgEarthNet.uav[58] utilizationEnergyOverdrawMaintenance 0
scalar OsgEarthNet.uav[58] utilizationCountMissions 1
scalar OsgEarthNet.uav[58] utilizationCountManeuversMission 14
scalar OsgEarthNet.uav[58] utilizationCountManeuversMaintenance 2
scalar OsgEarthNet.uav[58] utilizationCountChargeState 1
scalar OsgEarthNet.uav[58] utilizationCountOverdrawnAfterMission 0
scalar OsgEarthNet.uav[58] utilizationCountIdleState 2
scalar OsgEarthNet.uav[58] utilizationFail 0
scalar OsgEarthNet.uav[58] simulationTime 259200
scalar OsgEarthNet.uav[59] utilizationSecMission 760.62515258028
scalar OsgEarthNet.uav[59] utilizationSecMaintenance 291.95923480269
scalar OsgEarthNet.uav[59] utilizationSecCharge 3860
scalar OsgEarthNet.uav[59] utilizationSecIdle 254287.41461262
scalar OsgEarthNet.uav[59] utilizationEnergyMission 3421.1388092041
scalar OsgEarthNet.uav[59] utilizationEnergyMaintenance 1457.838218689
scalar OsgEarthNet.uav[59] utilizationEnergyCharge 4878.9775390625
scalar OsgEarthNet.uav[59] utilizationEnergyOverdrawMission 0
scalar OsgEarthNet.uav[59] utilizationEnergyOverdrawMaintenance 0
scalar OsgEarthNet.uav[59] utilizationCountMissions 1
scalar OsgEarthNet.uav[59] utilizationCountManeuversMission 12
scalar OsgEarthNet.uav[59] utilizationCountManeuversMaintenance 2
scalar OsgEarthNet.uav[59] utilizationCountChargeState 1
scalar OsgEarthNet.uav[59] utilizationCountOverdrawnAfterMission 0
scalar OsgEarthNet.uav[59] utilizationCountIdleState 2
scalar OsgEarthNet.uav[59] utilizationFail 0
scalar OsgEarthNet.uav[59] simulationTime 259200
scalar OsgEarthNet.uav[60] utilizationSecMission 10362.89967059
scalar OsgEarthNet.uav[60] utilizationSecMaintenance 3466.1409770938
scalar OsgEarthNet.uav[60] utilizationSecCharge 50990
scalar OsgEarthNet.uav[60] utilizationSecIdle 194380.95835232
scalar OsgEarthNet.uav[60] utilizationEnergyMission 47654.150413513
scalar OsgEarthNet.uav[60] utilizationEnergyMaintenance 16232.648014069
scalar OsgEarthNet.uav[60] utilizationEnergyCharge 63668.122802734
scalar OsgEarthNet.uav[60] utilizationEnergyOverdrawMission 0
scalar OsgEarthNet.uav[60] utilizationEnergyOverdrawMaintenance 0
scalar OsgEarthNet.uav[60] utilizationCountMissions 14
scalar OsgEarthNet.uav[60] utilizationCountManeuversMission 163
scalar OsgEarthNet.uav[60] utilizationCountManeuversMaintenance 28
scalar OsgEarthNet.uav[60] utilizationCountChargeState 14
scalar OsgEarthNet.uav[60] utilizationCountOverdrawnAfterMission 0
scalar OsgEarthNet.uav[60] utilizationCountIdleState 15
scalar OsgEarthNet.uav[60] utilizationFail 0
scalar OsgEarthNet.uav[60] simulationTime 259200
scalar OsgEarthNet.uav[61] utilizationSecMission 31765.303822969
scalar OsgEarthNet.uav[61] utilizationSecMaintenance 13260.908987908
scalar OsgEarthNet.uav[61] utilizationSecCharge 167981.78618912
scalar OsgEarthNet.uav[61] utilizationSecIdle 46192
scalar OsgEarthNet.uav[61] utilizationEnergyMission 147556.44836807
scalar OsgEarthNet.uav[61] utilizationEnergyMaintenance 61729.279087067
scalar OsgEarthNet.uav[61] utilizationEnergyCharge 208807.9152832
scalar OsgEarthNet.uav[61] utilizationEnergyOverdrawMission 0
scalar OsgEarthNet.uav[61] utilizationEnergyOverdrawMaintenance 0
scalar OsgEarthNet.uav[61] utilizationCountMissions 47
scalar OsgEarthNet.uav[61] utilizationCountManeuversMission 536
scalar OsgEarthNet.uav[61] utilizationCountManeuversMaintenance 93
scalar OsgEarthNet.uav[61] utilizationCountChargeState 47
scalar OsgEarthNet.uav[61] utilizationCountOverdrawnAfterMission 0
scalar OsgEarthNet.uav[61] utilizationCountIdleState 47
scalar OsgEarthNet.uav[61] utilizationFail 0
scalar OsgEarthNet.uav[61] simulationTime 259200
scalar OsgEarthNet.uav[62] utilizationSecMission 28557.910535366
scalar OsgEarthNet.uav[62] utilizationSecMaintenance 12616.735789426
scalar OsgEarthNet.uav[62] utilizationSecCharge 153207.90241118
scalar OsgEarthNet.uav[62] utilizationSecIdle 64817.450264031
scalar OsgEarthNet.uav[62] utilizationEnergyMission 132067.86852264
scalar OsgEarthNet.uav[62] utilizationEnergyMaintenance 58841.868011475
scalar OsgEarthNet.uav[62] utilizationEnergyCharge 189693.13623047
scalar OsgEarthNet.uav[62] utilizationEnergyOverdrawMission 0
scalar OsgEarthNet.uav[62] utilizationEnergyOverdrawMaintenance 0
scalar OsgEarthNet.uav[62] utilizationCountMissions 43
scalar OsgEarthNet.uav[62] utilizationCountManeuversMission 476
scalar OsgEarthNet.uav[62] utilizationCountManeuversMaintenance 86
scalar OsgEarthNet.uav[62] utilizationCountChargeState 43
scalar OsgEarthNet.uav[62] utilizationCountOverdrawnAfterMission 0
scalar OsgEarthNet.uav[62] utilizationCountIdleState 43
scalar OsgEarthNet.uav[62] utilizationFail 0
scalar OsgEarthNet.uav[62] simulationTime 259200
scalar OsgEarthNet.uav[63] utilizationSecMission 28888.993938972
scalar OsgEarthNet.uav[63] utilizationSecMaintenance 11529.069579041
scalar OsgEarthNet.uav[63] utilizationSecCharge 148250
scalar OsgEarthNet.uav[63] utilizationSecIdle 70531.935481987
scalar OsgEarthNet.uav[63] utilizationEnergyMission 133173.85466766
scalar OsgEarthNet.uav[63] utilizationEnergyMaintenance 51858.999004364
scalar OsgEarthNet.uav[63] utilizationEnergyCharge 184377.33325195
scalar OsgEarthNet.uav[63] utilizationEnergyOverdrawMission 0
scalar OsgEarthNet.uav[63] utilizationEnergyOverdrawMaintenance 0
scalar OsgEarthNet.uav[63] utilizationCountMissions 41
scalar OsgEarthNet.uav[63] utilizationCountManeuversMission 460
scalar OsgEarthNet.uav[63] utilizationCountManeuversMaintenance 82
scalar OsgEarthNet.uav[63] utilizationCountChargeState 41
scalar OsgEarthNet.uav[63] utilizationCountOverdrawnAfterMission 0
scalar OsgEarthNet.uav[63] utilizationCountIdleState 42
scalar OsgEarthNet.uav[63] utilizationFail 0
scalar OsgEarthNet.uav[63] simulationTime 259200
scalar OsgEarthNet.uav[64] utilizationSecMission 23520.20757702
scalar OsgEarthNet.uav[64] utilizationSecMaintenance 11248.018731957
scalar OsgEarthNet.uav[64] utilizationSecCharge 129144.36279967
scalar OsgEarthNet.uav[64] utilizationSecIdle 95287.40989135
scalar OsgEarthNet.uav[64] utilizationEnergyMission 107739.63703156
scalar OsgEarthNet.uav[64] utilizationEnergyMaintenance 52483.175113678
scalar OsgEarthNet.uav[64] utilizationEnergyCharge 158310.87084961
scalar OsgEarthNet.uav[64] utilizationEnergyOverdrawMission 0
scalar OsgEarthNet.uav[64] utilizationEnergyOverdrawMaintenance 0
scalar OsgEarthNet.uav[64] utilizationCountMissions 38
scalar OsgEarthNet.uav[64] utilizationCountManeuversMission 387
scalar OsgEarthNet.uav[64] utilizationCountManeuversMaintenance 76
scalar OsgEarthNet.uav[64] utilizationCountChargeState 38
scalar OsgEarthNet.uav[64] utilizationCountOverdrawnAfterMission 0
scalar OsgEarthNet.uav[64] utilizationCountIdleState 38
scalar OsgEarthNet.uav[64] utilizationFail 0
scalar OsgEarthNet.uav[64] simulationTime 259200
scalar OsgEarthNet.uav[65] utilizationSecMission 25447.834566808
scalar OsgEarthNet.uav[65] utilizationSecMaintenance 10535.027723439
scalar OsgEarthNet.uav[65] utilizationSecCharge 132023.45351967
scalar OsgEarthNet.uav[65] utilizationSecIdle 91193.683190079
[...]
scalar OsgEarthNet.uav[82] utilizationSecIdle 254535.06128817
scalar OsgEarthNet.uav[82] utilizationEnergyMission 3145.3069534302
scalar OsgEarthNet.uav[82] utilizationEnergyMaintenance 1536.2274284363
scalar OsgEarthNet.uav[82] utilizationEnergyCharge 4681.533203125
scalar OsgEarthNet.uav[82] utilizationEnergyOverdrawMission 0
scalar OsgEarthNet.uav[82] utilizationEnergyOverdrawMaintenance 0
scalar OsgEarthNet.uav[82] utilizationCountMissions 1
scalar OsgEarthNet.uav[82] utilizationCountManeuversMission 12
scalar OsgEarthNet.uav[82] utilizationCountManeuversMaintenance 2
scalar OsgEarthNet.uav[82] utilizationCountChargeState 1
scalar OsgEarthNet.uav[82] utilizationCountOverdrawnAfterMission 0
scalar OsgEarthNet.uav[82] utilizationCountIdleState 2
scalar OsgEarthNet.uav[82] utilizationFail 0
scalar OsgEarthNet.uav[82] simulationTime 259200
scalar OsgEarthNet.uav[83] utilizationSecMission 684.4732299383
scalar OsgEarthNet.uav[83] utilizationSecMaintenance 358.56834692969
scalar OsgEarthNet.uav[83] utilizationSecCharge 3990
scalar OsgEarthNet.uav[83] utilizationSecIdle 254166.95742313
scalar OsgEarthNet.uav[83] utilizationEnergyMission 3369.5646743774
scalar OsgEarthNet.uav[83] utilizationEnergyMaintenance 1736.290435791
scalar OsgEarthNet.uav[83] utilizationEnergyCharge 5105.8510742188
scalar OsgEarthNet.uav[83] utilizationEnergyOverdrawMission 0
scalar OsgEarthNet.uav[83] utilizationEnergyOverdrawMaintenance 0
scalar OsgEarthNet.uav[83] utilizationCountMissions 1
scalar OsgEarthNet.uav[83] utilizationCountManeuversMission 12
scalar OsgEarthNet.uav[83] utilizationCountManeuversMaintenance 2
scalar OsgEarthNet.uav[83] utilizationCountChargeState 1
scalar OsgEarthNet.uav[83] utilizationCountOverdrawnAfterMission 0
scalar OsgEarthNet.uav[83] utilizationCountIdleState 2
scalar OsgEarthNet.uav[83] utilizationFail 0
scalar OsgEarthNet.uav[83] simulationTime 259200
scalar OsgEarthNet.uav[84] utilizationSecMission 682.94783150361
scalar OsgEarthNet.uav[84] utilizationSecMaintenance 228.1606024445
scalar OsgEarthNet.uav[84] utilizationSecCharge 3450
scalar OsgEarthNet.uav[84] utilizationSecIdle 254838.89056605
scalar OsgEarthNet.uav[84] utilizationEnergyMission 3175.7163085937
scalar OsgEarthNet.uav[84] utilizationEnergyMaintenance 1035.8190841675
scalar OsgEarthNet.uav[84] utilizationEnergyCharge 4211.5361328125
scalar OsgEarthNet.uav[84] utilizationEnergyOverdrawMission 0
scalar OsgEarthNet.uav[84] utilizationEnergyOverdrawMaintenance 0
scalar OsgEarthNet.uav[84] utilizationCountMissions 1
scalar OsgEarthNet.uav[84] utilizationCountManeuversMission 12
scalar OsgEarthNet.uav[84] utilizationCountManeuversMaintenance 2
scalar OsgEarthNet.uav[84] utilizationCountChargeState 1
scalar OsgEarthNet.uav[84] utilizationCountOverdrawnAfterMission 0
scalar OsgEarthNet.uav[84] utilizationCountIdleState 2
scalar OsgEarthNet.uav[84] utilizationFail 0
scalar OsgEarthNet.uav[84] simulationTime 259200
scalar OsgEarthNet.uav[85] utilizationSecMission 18656.810381313
scalar OsgEarthNet.uav[85] utilizationSecMaintenance 8571.7741930597
scalar OsgEarthNet.uav[85] utilizationSecCharge 99735.064204806
scalar OsgEarthNet.uav[85] utilizationSecIdle 132236.35022082
scalar OsgEarthNet.uav[85] utilizationEnergyMission 87344.173927307
scalar OsgEarthNet.uav[85] utilizationEnergyMaintenance 40112.025020599
scalar OsgEarthNet.uav[85] utilizationEnergyCharge 123232.93139648
scalar OsgEarthNet.uav[85] utilizationEnergyOverdrawMission 0
scalar OsgEarthNet.uav[85] utilizationEnergyOverdrawMaintenance 0
scalar OsgEarthNet.uav[85] utilizationCountMissions 29
scalar OsgEarthNet.uav[85] utilizationCountManeuversMission 310
scalar OsgEarthNet.uav[85] utilizationCountManeuversMaintenance 58
scalar OsgEarthNet.uav[85] utilizationCountChargeState 29
scalar OsgEarthNet.uav[85] utilizationCountOverdrawnAfterMission 0
scalar OsgEarthNet.uav[85] utilizationCountIdleState 29
scalar OsgEarthNet.uav[85] utilizationFail 0
scalar OsgEarthNet.uav[85] simulationTime 259200
scalar OsgEarthNet.uav[86] utilizationSecMission 27082.25920303
scalar OsgEarthNet.uav[86] utilizationSecMaintenance 12748.273101436
scalar OsgEarthNet.uav[86] utilizationSecCharge 150880
scalar OsgEarthNet.uav[86] utilizationSecIdle 68489.466695534
scalar OsgEarthNet.uav[86] utilizationEnergyMission 125709.41162109
scalar OsgEarthNet.uav[86] utilizationEnergyMaintenance 59643.937278748
scalar OsgEarthNet.uav[86] utilizationEnergyCharge 185146.67236328
scalar OsgEarthNet.uav[86] utilizationEnergyOverdrawMission 0
scalar OsgEarthNet.uav[86] utilizationEnergyOverdrawMaintenance 0
scalar OsgEarthNet.uav[86] utilizationCountMissions 43
scalar OsgEarthNet.uav[86] utilizationCountManeuversMission 441
scalar OsgEarthNet.uav[86] utilizationCountManeuversMaintenance 86
scalar OsgEarthNet.uav[86] utilizationCountChargeState 43
scalar OsgEarthNet.uav[86] utilizationCountOverdrawnAfterMission 0
scalar OsgEarthNet.uav[86] utilizationCountIdleState 44
scalar OsgEarthNet.uav[86] utilizationFail 0
scalar OsgEarthNet.uav[86] simulationTime 259200
scalar OsgEarthNet.uav[87] utilizationSecMission 4231.008168518
scalar OsgEarthNet.uav[87] utilizationSecMaintenance 2416.6560247058
scalar OsgEarthNet.uav[87] utilizationSecCharge 25000
scalar OsgEarthNet.uav[87] utilizationSecIdle 227552.33480678
scalar OsgEarthNet.uav[87] utilizationEnergyMission 19451.10231781
scalar OsgEarthNet.uav[87] utilizationEnergyMaintenance 11541.939788818
scalar OsgEarthNet.uav[87] utilizationEnergyCharge 30993.043701172
scalar OsgEarthNet.uav[87] utilizationEnergyOverdrawMission 0
scalar OsgEarthNet.uav[87] utilizationEnergyOverdrawMaintenance 0
scalar OsgEarthNet.uav[87] utilizationCountMissions 7
scalar OsgEarthNet.uav[87] utilizationCountManeuversMission 72
scalar OsgEarthNet.uav[87] utilizationCountManeuversMaintenance 14
scalar OsgEarthNet.uav[87] utilizationCountChargeState 7
scalar OsgEarthNet.uav[87] utilizationCountOverdrawnAfterMission 0
scalar OsgEarthNet.uav[87] utilizationCountIdleState 8
scalar OsgEarthNet.uav[87] utilizationFail 0
scalar OsgEarthNet.uav[87] simulationTime 259200
scalar OsgEarthNet.uav[88] utilizationSecMission 750.20472747826
scalar OsgEarthNet.uav[88] utilizationSecMaintenance 218.84515192887
scalar OsgEarthNet.uav[88] utilizationSecCharge 3590
scalar OsgEarthNet.uav[88] utilizationSecIdle 254640.94912059
scalar OsgEarthNet.uav[88] utilizationEnergyMission 3409.1560668945
scalar OsgEarthNet.uav[88] utilizationEnergyMaintenance 1082.0715560913
scalar OsgEarthNet.uav[88] utilizationEnergyCharge 4453.611328125
scalar OsgEarthNet.uav[88] utilizationEnergyOverdrawMission 0
scalar OsgEarthNet.uav[88] utilizationEnergyOverdrawMaintenance 0
scalar OsgEarthNet.uav[88] utilizationCountMissions 1
scalar OsgEarthNet.uav[88] utilizationCountManeuversMission 11
scalar OsgEarthNet.uav[88] utilizationCountManeuversMaintenance 2
scalar OsgEarthNet.uav[88] utilizationCountChargeState 1
scalar OsgEarthNet.uav[88] utilizationCountOverdrawnAfterMission 0
scalar OsgEarthNet.uav[88] utilizationCountIdleState 2
scalar OsgEarthNet.uav[88] utilizationFail 0
scalar OsgEarthNet.uav[88] simulationTime 259200
scalar OsgEarthNet.uav[89] utilizationSecMission 28651.146549121
scalar OsgEarthNet.uav[89] utilizationSecMaintenance 12980.849695194
scalar OsgEarthNet.uav[89] utilizationSecCharge 157490
scalar OsgEarthNet.uav[89] utilizationSecIdle 60078.002755685
scalar OsgEarthNet.uav[89] utilizationEnergyMission 132420.86797333
scalar OsgEarthNet.uav[89] utilizationEnergyMaintenance 60768.328193665
scalar OsgEarthNet.uav[89] utilizationEnergyCharge 193105.59033203
scalar OsgEarthNet.uav[89] utilizationEnergyOverdrawMission 0
scalar OsgEarthNet.uav[89] utilizationEnergyOverdrawMaintenance 0
scalar OsgEarthNet.uav[89] utilizationCountMissions 45
scalar OsgEarthNet.uav[89] utilizationCountManeuversMission 474
scalar OsgEarthNet.uav[89] utilizationCountManeuversMaintenance 90
scalar OsgEarthNet.uav[89] utilizationCountChargeState 45
scalar OsgEarthNet.uav[89] utilizationCountOverdrawnAfterMission 0
scalar OsgEarthNet.uav[89] utilizationCountIdleState 46
scalar OsgEarthNet.uav[89] utilizationFail 0
scalar OsgEarthNet.uav[89] simulationTime 259200
scalar OsgEarthNet.uav[90] utilizationSecMission 750.20472747826
scalar OsgEarthNet.uav[90] utilizationSecMaintenance 261.68051383311
scalar OsgEarthNet.uav[90] utilizationSecCharge 3630
scalar OsgEarthNet.uav[90] utilizationSecIdle 254558.11375869
scalar OsgEarthNet.uav[90] utilizationEnergyMission 3403.6429290771
scalar OsgEarthNet.uav[90] utilizationEnergyMaintenance 1079.8774833679
scalar OsgEarthNet.uav[90] utilizationEnergyCharge 4483.521484375
scalar OsgEarthNet.uav[90] utilizationEnergyOverdrawMission 0
scalar OsgEarthNet.uav[90] utilizationEnergyOverdrawMaintenance 0
scalar OsgEarthNet.uav[90] utilizationCountMissions 1
scalar OsgEarthNet.uav[90] utilizationCountManeuversMission 11
scalar OsgEarthNet.uav[90] utilizationCountManeuversMaintenance 2
scalar OsgEarthNet.uav[90] utilizationCountChargeState 1
scalar OsgEarthNet.uav[90] utilizationCountOverdrawnAfterMission 0
scalar OsgEarthNet.uav[90] utilizationCountIdleState 2
scalar OsgEarthNet.uav[90] utilizationFail 0
scalar OsgEarthNet.uav[90] simulationTime 259200
scalar OsgEarthNet.uav[91] utilizationSecMission 19341.229844681
scalar OsgEarthNet.uav[91] utilizationSecMaintenance 9474.729039418
scalar OsgEarthNet.uav[91] utilizationSecCharge 108680
scalar OsgEarthNet.uav[91] utilizationSecIdle 121704.0401159
scalar OsgEarthNet.uav[91] utilizationEnergyMission 89740.205955505
scalar OsgEarthNet.uav[91] utilizationEnergyMaintenance 43387.269981384
scalar OsgEarthNet.uav[91] utilizationEnergyCharge 133039.63916016
scalar OsgEarthNet.uav[91] utilizationEnergyOverdrawMission 0
scalar OsgEarthNet.uav[91] utilizationEnergyOverdrawMaintenance 0
scalar OsgEarthNet.uav[91] utilizationCountMissions 31
scalar OsgEarthNet.uav[91] utilizationCountManeuversMission 321
scalar OsgEarthNet.uav[91] utilizationCountManeuversMaintenance 62
scalar OsgEarthNet.uav[91] utilizationCountChargeState 31
scalar OsgEarthNet.uav[91] utilizationCountOverdrawnAfterMission 0
scalar OsgEarthNet.uav[91] utilizationCountIdleState 32
scalar OsgEarthNet.uav[91] utilizationFail 0
scalar OsgEarthNet.uav[91] simulationTime 259200
scalar OsgEarthNet.uav[92] utilizationSecMission 750.20472747826
scalar OsgEarthNet.uav[92] utilizationSecMaintenance 218.84515192887
scalar OsgEarthNet.uav[92] utilizationSecCharge 3420
scalar OsgEarthNet.uav[92] utilizationSecIdle 254810.94912059
scalar OsgEarthNet.uav[92] utilizationEnergyMission 3187.6350860596
scalar OsgEarthNet.uav[92] utilizationEnergyMaintenance 899.50569915772
scalar OsgEarthNet.uav[92] utilizationEnergyCharge 4140.5654296875
scalar OsgEarthNet.uav[92] utilizationEnergyOverdrawMission 0
scalar OsgEarthNet.uav[92] utilizationEnergyOverdrawMaintenance 0
scalar OsgEarthNet.uav[92] utilizationCountMissions 1
scalar OsgEarthNet.uav[92] utilizationCountManeuversMission 11
scalar OsgEarthNet.uav[92] utilizationCountManeuversMaintenance 2
scalar OsgEarthNet.uav[92] utilizationCountChargeState 1
scalar OsgEarthNet.uav[92] utilizationCountOverdrawnAfterMission 0
scalar OsgEarthNet.uav[92] utilizationCountIdleState 2
scalar OsgEarthNet.uav[92] utilizationFail 0
scalar OsgEarthNet.uav[92] simulationTime 259200
scalar OsgEarthNet.uav[93] utilizationSecMission 1264.9904071486
scalar OsgEarthNet.uav[93] utilizationSecMaintenance 614.86098597784
scalar OsgEarthNet.uav[93] utilizationSecCharge 6908.489492643
scalar OsgEarthNet.uav[93] utilizationSecIdle 250411.65811423
scalar OsgEarthNet.uav[93] utilizationEnergyMission 6074.5319900513
scalar OsgEarthNet.uav[93] utilizationEnergyMaintenance 2968.1305770874
scalar OsgEarthNet.uav[93] utilizationEnergyCharge 8999.1796875
scalar OsgEarthNet.uav[93] utilizationEnergyOverdrawMission 0
scalar OsgEarthNet.uav[93] utilizationEnergyOverdrawMaintenance 0
scalar OsgEarthNet.uav[93] utilizationCountMissions 2
scalar OsgEarthNet.uav[93] utilizationCountManeuversMission 21
scalar OsgEarthNet.uav[93] utilizationCountManeuversMaintenance 4
scalar OsgEarthNet.uav[93] utilizationCountChargeState 2
scalar OsgEarthNet.uav[93] utilizationCountOverdrawnAfterMission 0
scalar OsgEarthNet.uav[93] utilizationCountIdleState 2
scalar OsgEarthNet.uav[93] utilizationFail 0
scalar OsgEarthNet.uav[93] simulationTime 259200
scalar OsgEarthNet.uav[94] utilizationSecMission 28838.078168031
scalar OsgEarthNet.uav[94] utilizationSecMaintenance 10908.252653981
scalar OsgEarthNet.uav[94] utilizationSecCharge 147470
scalar OsgEarthNet.uav[94] utilizationSecIdle 71983.668177988
scalar OsgEarthNet.uav[94] utilizationEnergyMission 131559.40956116
scalar OsgEarthNet.uav[94] utilizationEnergyMaintenance 50702.82411362
scalar OsgEarthNet.uav[94] utilizationEnergyCharge 182718.07861328
scalar OsgEarthNet.uav[94] utilizationEnergyOverdrawMission 0
scalar OsgEarthNet.uav[94] utilizationEnergyOverdrawMaintenance 0
scalar OsgEarthNet.uav[94] utilizationCountMissions 41
scalar OsgEarthNet.uav[94] utilizationCountManeuversMission 455
scalar OsgEarthNet.uav[94] utilizationCountManeuversMaintenance 83
scalar OsgEarthNet.uav[94] utilizationCountChargeState 41
scalar OsgEarthNet.uav[94] utilizationCountOverdrawnAfterMission 0
scalar OsgEarthNet.uav[94] utilizationCountIdleState 42
scalar OsgEarthNet.uav[94] utilizationFail 0
scalar OsgEarthNet.uav[94] simulationTime 259200
scalar OsgEarthNet.uav[95] utilizationSecMission 23252.521112256
scalar OsgEarthNet.uav[95] utilizationSecMaintenance 11528.481003687
scalar OsgEarthNet.uav[95] utilizationSecCharge 131380
scalar OsgEarthNet.uav[95] utilizationSecIdle 93038.996884057
scalar OsgEarthNet.uav[95] utilizationEnergyMission 107574.76257324
scalar OsgEarthNet.uav[95] utilizationEnergyMaintenance 53157.275257111
scalar OsgEarthNet.uav[95] utilizationEnergyCharge 160442.88574219
scalar OsgEarthNet.uav[95] utilizationEnergyOverdrawMission 0
scalar OsgEarthNet.uav[95] utilizationEnergyOverdrawMaintenance 0
scalar OsgEarthNet.uav[95] utilizationCountMissions 38
scalar OsgEarthNet.uav[95] utilizationCountManeuversMission 382
scalar OsgEarthNet.uav[95] utilizationCountManeuversMaintenance 76
scalar OsgEarthNet.uav[95] utilizationCountChargeState 38
scalar OsgEarthNet.uav[95] utilizationCountOverdrawnAfterMission 0
scalar OsgEarthNet.uav[95] utilizationCountIdleState 39
scalar OsgEarthNet.uav[95] utilizationFail 0
scalar OsgEarthNet.uav[95] simulationTime 259200
scalar OsgEarthNet.uav[96] utilizationSecMission 1510.8298800585
scalar OsgEarthNet.uav[96] utilizationSecMaintenance 448.37521274305
scalar OsgEarthNet.uav[96] utilizationSecCharge 7220
scalar OsgEarthNet.uav[96] utilizationSecIdle 250020.7939072
scalar OsgEarthNet.uav[96] utilizationEnergyMission 6719.8006286621
scalar OsgEarthNet.uav[96] utilizationEnergyMaintenance 2210.2592506409
scalar OsgEarthNet.uav[96] utilizationEnergyCharge 8906.4228515625
scalar OsgEarthNet.uav[96] utilizationEnergyOverdrawMission 0
scalar OsgEarthNet.uav[96] utilizationEnergyOverdrawMaintenance 0
scalar OsgEarthNet.uav[96] utilizationCountMissions 2
scalar OsgEarthNet.uav[96] utilizationCountManeuversMission 23
scalar OsgEarthNet.uav[96] utilizationCountManeuversMaintenance 4
scalar OsgEarthNet.uav[96] utilizationCountChargeState 2
scalar OsgEarthNet.uav[96] utilizationCountOverdrawnAfterMission 0
scalar OsgEarthNet.uav[96] utilizationCountIdleState 3
scalar OsgEarthNet.uav[96] utilizationFail 0
scalar OsgEarthNet.uav[96] simulationTime 259200
scalar OsgEarthNet.uav[97] utilizationSecMission 13591.407353474
scalar OsgEarthNet.uav[97] utilizationSecMaintenance 7789.7975455012
scalar OsgEarthNet.uav[97] utilizationSecCharge 80900
scalar OsgEarthNet.uav[97] utilizationSecIdle 156918.79410103
scalar OsgEarthNet.uav[97] utilizationEnergyMission 62965.110370636
scalar OsgEarthNet.uav[97] utilizationEnergyMaintenance 36971.393817902
scalar OsgEarthNet.uav[97] utilizationEnergyCharge 99391.737060547
scalar OsgEarthNet.uav[97] utilizationEnergyOverdrawMission 0
scalar OsgEarthNet.uav[97] utilizationEnergyOverdrawMaintenance 0
scalar OsgEarthNet.uav[97] utilizationCountMissions 23
scalar OsgEarthNet.uav[97] utilizationCountManeuversMission 232
scalar OsgEarthNet.uav[97] utilizationCountManeuversMaintenance 46
scalar OsgEarthNet.uav[97] utilizationCountChargeState 23
scalar OsgEarthNet.uav[97] utilizationCountOverdrawnAfterMission 0
scalar OsgEarthNet.uav[97] utilizationCountIdleState 24
scalar OsgEarthNet.uav[97] utilizationFail 0
scalar OsgEarthNet.uav[97] simulationTime 259200
scalar OsgEarthNet.uav[98] utilizationSecMission 5580.4125170983
scalar OsgEarthNet.uav[98] utilizationSecMaintenance 3630.2905731994
scalar OsgEarthNet.uav[98] utilizationSecCharge 34960
scalar OsgEarthNet.uav[98] utilizationSecIdle 215029.2959097
scalar OsgEarthNet.uav[98] utilizationEnergyMission 25027.343238831
scalar OsgEarthNet.uav[98] utilizationEnergyMaintenance 17116.93372345
scalar OsgEarthNet.uav[98] utilizationEnergyCharge 42792.317138672
scalar OsgEarthNet.uav[98] utilizationEnergyOverdrawMission 0
scalar OsgEarthNet.uav[98] utilizationEnergyOverdrawMaintenance 0
scalar OsgEarthNet.uav[98] utilizationCountMissions 10
scalar OsgEarthNet.uav[98] utilizationCountManeuversMission 90
scalar OsgEarthNet.uav[98] utilizationCountManeuversMaintenance 20
scalar OsgEarthNet.uav[98] utilizationCountChargeState 10
scalar OsgEarthNet.uav[98] utilizationCountOverdrawnAfterMission 0
scalar OsgEarthNet.uav[98] utilizationCountIdleState 11
scalar OsgEarthNet.uav[98] utilizationFail 0
scalar OsgEarthNet.uav[98] simulationTime 259200
scalar OsgEarthNet.uav[99] utilizationSecMission 21417.001949781
scalar OsgEarthNet.uav[99] utilizationSecMaintenance 9478.6213329026
scalar OsgEarthNet.uav[99] utilizationSecCharge 114519.73129539
scalar OsgEarthNet.uav[99] utilizationSecIdle 113784.64442192
scalar OsgEarthNet.uav[99] utilizationEnergyMission 97774.092819214
scalar OsgEarthNet.uav[99] utilizationEnergyMaintenance 44277.033046722
scalar OsgEarthNet.uav[99] utilizationEnergyCharge 141290.80639648
scalar OsgEarthNet.uav[99] utilizationEnergyOverdrawMission 0
scalar OsgEarthNet.uav[99] utilizationEnergyOverdrawMaintenance 0
scalar OsgEarthNet.uav[99] utilizationCountMissions 33
scalar OsgEarthNet.uav[99] utilizationCountManeuversMission 339
scalar OsgEarthNet.uav[99] utilizationCountManeuversMaintenance 66
scalar OsgEarthNet.uav[99] utilizationCountChargeState 33
scalar OsgEarthNet.uav[99] utilizationCountOverdrawnAfterMission 0
scalar OsgEarthNet.uav[99] utilizationCountIdleState 33
scalar OsgEarthNet.uav[99] utilizationFail 0
scalar OsgEarthNet.uav[99] simulationTime 259200
scalar OsgEarthNet.cs[0] usedPower 577092.66185278
scalar OsgEarthNet.cs[0] chargedPower 577092.66185278
scalar OsgEarthNet.cs[0] chargedMobileNodes 124
scalar OsgEarthNet.cs[0] reservations 125
scalar OsgEarthNet.cs[1] usedPower 711276.35465719
scalar OsgEarthNet.cs[1] chargedPower 711276.35465719
scalar OsgEarthNet.cs[1] chargedMobileNodes 219
scalar OsgEarthNet.cs[1] reservations 222
scalar OsgEarthNet.cs[2] usedPower 3631430.2799137
scalar OsgEarthNet.cs[2] chargedPower 3631430.2799137
scalar OsgEarthNet.cs[2] chargedMobileNodes 778
scalar OsgEarthNet.cs[2] reservations 792
scalar OsgEarthNet.cs[3] usedPower 623691.52244957
scalar OsgEarthNet.cs[3] chargedPower 623691.52244957
scalar OsgEarthNet.cs[3] chargedMobileNodes 140
scalar OsgEarthNet.cs[3] reservations 141
scalar OsgEarthNet.cs[4] usedPower 756853.49816027
scalar OsgEarthNet.cs[4] chargedPower 756853.49816027
scalar OsgEarthNet.cs[4] chargedMobileNodes 170
scalar OsgEarthNet.cs[4] reservations 172
scalar OsgEarthNet.cs[5] usedPower 805715.43090336
scalar OsgEarthNet.cs[5] chargedPower 805715.43090336
scalar OsgEarthNet.cs[5] chargedMobileNodes 171
scalar OsgEarthNet.cs[5] reservations 172
scalar OsgEarthNet.cs[6] usedPower 1414326.1269595
scalar OsgEarthNet.cs[6] chargedPower 1414326.1269595
scalar OsgEarthNet.cs[6] chargedMobileNodes 325
scalar OsgEarthNet.cs[6] reservations 331

