version 2
run Szenario_Hotel_Gabelbach-42-20180709-14:29:17-28992
attr configname Szenario_Hotel_Gabelbach
attr datetime 20180709-14:29:17
attr experiment Szenario_Hotel_Gabelbach
attr inifile omnetpp.ini
attr iterationvars "$replM=2, $biWeight=0.5"
attr iterationvarsf replM=2,biWeight=0.5-
attr measurement "$replM=2, $biWeight=0.5"
attr network OsgEarthNet
attr processid 28992
attr repetition 6
attr replication #6
attr resultdir results
attr runnumber 42
attr seedset 42
itervar biWeight 0.5
itervar replM 2
param *.osgEarthScene.scene "\"Szenario_Hotel_Gabelbach.earth\""
param *.playgroundLatitude 50.6830269
param *.playgroundLongitude 10.8538055
param *.playgroundWidth 3500m
param *.playgroundHeight 3500m
param *.numUAVs 100
param *.cs[0].posX 3537m
param *.cs[0].posY 965m
param *.cs[0].posZ 538m
param *.cs[1].posX 312m
param *.cs[1].posY 1262m
param *.cs[1].posZ 539m
param *.cs[2].posX 2185m
param *.cs[2].posY 3026m
param *.cs[2].posZ 777m
param *.cs[3].posX 10m
param *.cs[3].posY 2200m
param *.cs[3].posZ 560m
param *.cs[4].posX 750m
param *.cs[4].posY 200m
param *.cs[4].posZ 540m
param *.cs[5].posX 2450m
param *.cs[5].posY 180m
param *.cs[5].posZ 524m
param *.cs[6].posX 3140m
param *.cs[6].posY 1790m
param *.cs[6].posZ 606m
param *.numCSs 7
param *.uav[*].replacementMethod 2
param *.uav[*].weightedSumWeight 0.5
param *.*.timeStep 10s
param *.uav[*].commandPreviewCommandCount 20
param *.missionControl.missionFiles "\"missions\\\\Szenario_WB_Hotel_Gabelbach_Mission_Hotel.waypoints,missions\\\\Szenario_WB_Hotel_Gabelbach_Mission_Kickelhahn.waypoints,missions\\\\Szenario_WB_Hotel_Gabelbach_Mission_Ilmenau_Sportplatz.waypoints,missions\\\\Szenario_WB_Hotel_Gabelbach_Mission_Manebach_Mitte.waypoints,missions\\\\Szenario_WB_Hotel_Gabelbach_Mission_Manebach_Sued.waypoints\""
param *.missionControl.missionFiles "\"missions\\\\Szenario_WB_Hotel_Gabelbach_Mission_Hotel.waypoints,missions\\\\Szenario_WB_Hotel_Gabelbach_Mission_Kickelhahn.waypoints,missions\\\\Szenario_WB_Hotel_Gabelbach_Mission_Ilmenau_Sportplatz.waypoints,missions\\\\Szenario_WB_Hotel_Gabelbach_Mission_Manebach_Mitte.waypoints,missions\\\\Szenario_WB_Hotel_Gabelbach_Mission_Manebach_Sued.waypoints,missions\\\\Szenario_WB_Hotel_Gabelbach_Hover_HoheSchlaufe.waypoints,missions\\\\Szenario_WB_Hotel_Gabelbach_Hover_Kickelhahn.waypoints,missions\\\\Szenario_WB_Hotel_Gabelbach_Hover_Gabelbachskopf.waypoints,missions\\\\Szenario_WB_Hotel_Gabelbach_Hover_Dachskopf.waypoints\""
param *.uav[0].startX 3537m
param *.uav[0].startY 965m
param *.uav[0].startZ 539m
param *.uav[1].startX 312m
param *.uav[1].startY 1262m
param *.uav[1].startZ 540m
param *.uav[2].startX 2185m
param *.uav[2].startY 3026m
param *.uav[2].startZ 778m
param *.uav[3].startX 3537m
param *.uav[3].startY 965m
param *.uav[3].startZ 539m
param *.uav[4].startX 312m
param *.uav[4].startY 1262m
param *.uav[4].startZ 540m
param *.uav[5].startX 2185m
param *.uav[5].startY 3026m
param *.uav[5].startZ 778m
param *.uav[6].startX 3537m
param *.uav[6].startY 965m
param *.uav[6].startZ 539m
param *.uav[7].startX 312m
param *.uav[7].startY 1262m
param *.uav[7].startZ 540m
param *.uav[8].startX 2185m
param *.uav[8].startY 3026m
param *.uav[8].startZ 778m
param *.uav[9].startX 3537m
param *.uav[9].startY 965m
param *.uav[9].startZ 539m
param *.uav[10].startX 3537m
param *.uav[10].startY 965m
param *.uav[10].startZ 539m
param *.uav[11].startX 312m
param *.uav[11].startY 1262m
param *.uav[11].startZ 540m
param *.uav[12].startX 2185m
param *.uav[12].startY 3026m
param *.uav[12].startZ 778m
param *.uav[13].startX 3537m
param *.uav[13].startY 965m
param *.uav[13].startZ 539m
param *.uav[14].startX 312m
param *.uav[14].startY 1262m
param *.uav[14].startZ 540m
param *.uav[15].startX 2185m
param *.uav[15].startY 3026m
param *.uav[15].startZ 778m
param *.uav[16].startX 3537m
param *.uav[16].startY 965m
param *.uav[16].startZ 539m
param *.uav[17].startX 312m
param *.uav[17].startY 1262m
param *.uav[17].startZ 540m
param *.uav[18].startX 2185m
param *.uav[18].startY 3026m
param *.uav[18].startZ 778m
param *.uav[19].startX 3537m
param *.uav[19].startY 965m
param *.uav[19].startZ 539m
param *.uav[20].startX 3537m
param *.uav[20].startY 965m
param *.uav[20].startZ 539m
param *.uav[21].startX 312m
param *.uav[21].startY 1262m
param *.uav[21].startZ 540m
param *.uav[22].startX 2185m
param *.uav[22].startY 3026m
param *.uav[22].startZ 778m
param *.uav[23].startX 3537m
param *.uav[23].startY 965m
param *.uav[23].startZ 539m
param *.uav[24].startX 312m
param *.uav[24].startY 1262m
param *.uav[24].startZ 540m
param *.uav[25].startX 2185m
param *.uav[25].startY 3026m
param *.uav[25].startZ 778m
param *.uav[26].startX 3537m
param *.uav[26].startY 965m
param *.uav[26].startZ 539m
param *.uav[27].startX 312m
param *.uav[27].startY 1262m
param *.uav[27].startZ 540m
param *.uav[28].startX 2185m
param *.uav[28].startY 3026m
param *.uav[28].startZ 778m
param *.uav[29].startX 3537m
param *.uav[29].startY 965m
param *.uav[29].startZ 539m
param *.uav[30].startX 3537m
param *.uav[30].startY 965m
param *.uav[30].startZ 539m
param *.uav[31].startX 312m
param *.uav[31].startY 1262m
param *.uav[31].startZ 540m
param *.uav[32].startX 2185m
param *.uav[32].startY 3026m
param *.uav[32].startZ 778m
param *.uav[33].startX 3537m
param *.uav[33].startY 965m
param *.uav[33].startZ 539m
param *.uav[34].startX 312m
param *.uav[34].startY 1262m
param *.uav[34].startZ 540m
param *.uav[35].startX 2185m
param *.uav[35].startY 3026m
param *.uav[35].startZ 778m
param *.uav[36].startX 3537m
param *.uav[36].startY 965m
param *.uav[36].startZ 539m
param *.uav[37].startX 312m
param *.uav[37].startY 1262m
param *.uav[37].startZ 540m
param *.uav[38].startX 2185m
param *.uav[38].startY 3026m
param *.uav[38].startZ 778m
param *.uav[39].startX 3537m
param *.uav[39].startY 965m
param *.uav[39].startZ 539m
param *.uav[40].startX 3537m
param *.uav[40].startY 965m
param *.uav[40].startZ 539m
param *.uav[41].startX 312m
param *.uav[41].startY 1262m
param *.uav[41].startZ 540m
param *.uav[42].startX 2185m
param *.uav[42].startY 3026m
param *.uav[42].startZ 778m
param *.uav[43].startX 3537m
param *.uav[43].startY 965m
param *.uav[43].startZ 539m
param *.uav[44].startX 312m
param *.uav[44].startY 1262m
param *.uav[44].startZ 540m
param *.uav[45].startX 2185m
param *.uav[45].startY 3026m
param *.uav[45].startZ 778m
param *.uav[46].startX 3537m
param *.uav[46].startY 965m
param *.uav[46].startZ 539m
param *.uav[47].startX 312m
param *.uav[47].startY 1262m
param *.uav[47].startZ 540m
param *.uav[48].startX 2185m
param *.uav[48].startY 3026m
param *.uav[48].startZ 778m
param *.uav[49].startX 3537m
param *.uav[49].startY 965m
param *.uav[49].startZ 539m
param *.uav[50].startX 3537m
param *.uav[50].startY 965m
param *.uav[50].startZ 539m
param *.uav[51].startX 312m
param *.uav[51].startY 1262m
param *.uav[51].startZ 540m
param *.uav[52].startX 2185m
param *.uav[52].startY 3026m
param *.uav[52].startZ 778m
param *.uav[53].startX 3537m
param *.uav[53].startY 965m
param *.uav[53].startZ 539m
param *.uav[54].startX 312m
param *.uav[54].startY 1262m
param *.uav[54].startZ 540m
param *.uav[55].startX 2185m
param *.uav[55].startY 3026m
param *.uav[55].startZ 778m
param *.uav[56].startX 3537m
param *.uav[56].startY 965m
param *.uav[56].startZ 539m
param *.uav[57].startX 312m
param *.uav[57].startY 1262m
param *.uav[57].startZ 540m
param *.uav[58].startX 2185m
param *.uav[58].startY 3026m
param *.uav[58].startZ 778m
param *.uav[59].startX 3537m
param *.uav[59].startY 965m
param *.uav[59].startZ 539m
param *.uav[60].startX 3537m
param *.uav[60].startY 965m
param *.uav[60].startZ 539m
param *.uav[61].startX 312m
param *.uav[61].startY 1262m
param *.uav[61].startZ 540m
param *.uav[62].startX 2185m
param *.uav[62].startY 3026m
param *.uav[62].startZ 778m
param *.uav[63].startX 3537m
param *.uav[63].startY 965m
param *.uav[63].startZ 539m
param *.uav[64].startX 312m
param *.uav[64].startY 1262m
param *.uav[64].startZ 540m
param *.uav[65].startX 2185m
param *.uav[65].startY 3026m
param *.uav[65].startZ 778m
param *.uav[66].startX 3537m
param *.uav[66].startY 965m
param *.uav[66].startZ 539m
param *.uav[67].startX 312m
param *.uav[67].startY 1262m
param *.uav[67].startZ 540m
param *.uav[68].startX 2185m
param *.uav[68].startY 3026m
param *.uav[68].startZ 778m
param *.uav[69].startX 3537m
param *.uav[69].startY 965m
param *.uav[69].startZ 539m
param *.uav[70].startX 3537m
param *.uav[70].startY 965m
param *.uav[70].startZ 539m
param *.uav[71].startX 312m
param *.uav[71].startY 1262m
param *.uav[71].startZ 540m
param *.uav[72].startX 2185m
param *.uav[72].startY 3026m
param *.uav[72].startZ 778m
param *.uav[73].startX 3537m
param *.uav[73].startY 965m
param *.uav[73].startZ 539m
param *.uav[74].startX 312m
param *.uav[74].startY 1262m
param *.uav[74].startZ 540m
param *.uav[75].startX 2185m
param *.uav[75].startY 3026m
param *.uav[75].startZ 778m
param *.uav[76].startX 3537m
param *.uav[76].startY 965m
param *.uav[76].startZ 539m
param *.uav[77].startX 312m
param *.uav[77].startY 1262m
param *.uav[77].startZ 540m
param *.uav[78].startX 2185m
param *.uav[78].startY 3026m
param *.uav[78].startZ 778m
param *.uav[79].startX 3537m
param *.uav[79].startY 965m
param *.uav[79].startZ 539m
param *.uav[80].startX 3537m
param *.uav[80].startY 965m
param *.uav[80].startZ 539m
param *.uav[81].startX 312m
param *.uav[81].startY 1262m
param *.uav[81].startZ 540m
param *.uav[82].startX 2185m
param *.uav[82].startY 3026m
param *.uav[82].startZ 778m
param *.uav[83].startX 3537m
param *.uav[83].startY 965m
param *.uav[83].startZ 539m
param *.uav[84].startX 312m
param *.uav[84].startY 1262m
param *.uav[84].startZ 540m
param *.uav[85].startX 2185m
param *.uav[85].startY 3026m
param *.uav[85].startZ 778m
param *.uav[86].startX 3537m
param *.uav[86].startY 965m
param *.uav[86].startZ 539m
param *.uav[87].startX 312m
param *.uav[87].startY 1262m
param *.uav[87].startZ 540m
param *.uav[88].startX 2185m
param *.uav[88].startY 3026m
param *.uav[88].startZ 778m
param *.uav[89].startX 3537m
param *.uav[89].startY 965m
param *.uav[89].startZ 539m
param *.uav[90].startX 3537m
param *.uav[90].startY 965m
param *.uav[90].startZ 539m
param *.uav[91].startX 312m
param *.uav[91].startY 1262m
param *.uav[91].startZ 540m
param *.uav[92].startX 2185m
param *.uav[92].startY 3026m
param *.uav[92].startZ 778m
param *.uav[93].startX 3537m
param *.uav[93].startY 965m
param *.uav[93].startZ 539m
param *.uav[94].startX 312m
param *.uav[94].startY 1262m
param *.uav[94].startZ 540m
param *.uav[95].startX 2185m
param *.uav[95].startY 3026m
param *.uav[95].startZ 778m
param *.uav[96].startX 3537m
param *.uav[96].startY 965m
param *.uav[96].startZ 539m
param *.uav[97].startX 312m
param *.uav[97].startY 1262m
param *.uav[97].startZ 540m
param *.uav[98].startX 2185m
param *.uav[98].startY 3026m
param *.uav[98].startZ 778m
param *.uav[99].startX 3537m
param *.uav[99].startY 965m
param *.uav[99].startZ 539m
param *.osgEarthScene.scene "\"boston.earth\""
param *.playgroundLatitude 42.3558
param *.playgroundLongitude -71.0677
param *.playgroundWidth 400m
param *.playgroundHeight 200m
param *.channelController.connectionColor "\"#0000FF40\""
param *.channelController.showConnections false
param *.uav[*].modelURL "\"quadrocopter.small.obj.15.scale.0,0,90.rot\""
param *.uav[*].labelColor "\"#FF7C00CC\""
param *.uav[*].label2Color "\"#FF7C00EE\""
param *.uav[*].batteryCapacity 5200mAh
param *.uav[*].batteryRemaining uav[index].batteryCapacity
param *.uav[*].predictionQuantile 0.95
param *.uav[*].replacementMethod 2
param *.uav[*].weightedSumWeight 0.5
param *.cs[*].modelURL "\"chargingstation_v1.osgt.2.scale.0,0,0.rot.0,0,-15e-1.trans\""
param *.cs[*].spotsWaiting 999
param *.cs[*].spotsCharging 999
param *.cs[*].chargeEffectivenessPercentage 100
param *.cs[*].nonLinearPhaseStartPercentage 85
param *.cs[*].chargeCurrent 6.0A
param *.cs[*].prioritizeFastCharge true
param *.missionControl.replacementSearchMethod 0
param *.*.timeStep 9s

scalar OsgEarthNet.uav[0] utilizationSecMission 836.77707522227
scalar OsgEarthNet.uav[0] utilizationSecMaintenance 217.0347828456
scalar OsgEarthNet.uav[0] utilizationSecCharge 3780
scalar OsgEarthNet.uav[0] utilizationSecIdle 254366.18714193
scalar OsgEarthNet.uav[0] utilizationEnergyMission 3786.5549621582
scalar OsgEarthNet.uav[0] utilizationEnergyMaintenance 991.63618087769
scalar OsgEarthNet.uav[0] utilizationEnergyCharge 4778.1884765625
scalar OsgEarthNet.uav[0] utilizationEnergyOverdrawMission 0
scalar OsgEarthNet.uav[0] utilizationEnergyOverdrawMaintenance 0
scalar OsgEarthNet.uav[0] utilizationCountMissions 1
scalar OsgEarthNet.uav[0] utilizationCountManeuversMission 13
scalar OsgEarthNet.uav[0] utilizationCountManeuversMaintenance 2
scalar OsgEarthNet.uav[0] utilizationCountChargeState 1
scalar OsgEarthNet.uav[0] utilizationCountOverdrawnAfterMission 0
scalar OsgEarthNet.uav[0] utilizationCountIdleState 2
scalar OsgEarthNet.uav[0] utilizationFail 0
scalar OsgEarthNet.uav[0] simulationTime 259200
scalar OsgEarthNet.uav[1] utilizationSecMission 28533.004118915
scalar OsgEarthNet.uav[1] utilizationSecMaintenance 15520.865167612
scalar OsgEarthNet.uav[1] utilizationSecCharge 160691.51782396
scalar OsgEarthNet.uav[1] utilizationSecIdle 54454.611889516
scalar OsgEarthNet.uav[1] utilizationEnergyMission 131963.70275879
scalar OsgEarthNet.uav[1] utilizationEnergyMaintenance 71721.466632843
scalar OsgEarthNet.uav[1] utilizationEnergyCharge 199620.91111755
scalar OsgEarthNet.uav[1] utilizationEnergyOverdrawMission 0
scalar OsgEarthNet.uav[1] utilizationEnergyOverdrawMaintenance 0
scalar OsgEarthNet.uav[1] utilizationCountMissions 45
scalar OsgEarthNet.uav[1] utilizationCountManeuversMission 473
scalar OsgEarthNet.uav[1] utilizationCountManeuversMaintenance 90
scalar OsgEarthNet.uav[1] utilizationCountChargeState 45
scalar OsgEarthNet.uav[1] utilizationCountOverdrawnAfterMission 0
scalar OsgEarthNet.uav[1] utilizationCountIdleState 45
scalar OsgEarthNet.uav[1] utilizationFail 0
scalar OsgEarthNet.uav[1] simulationTime 259200
scalar OsgEarthNet.uav[2] utilizationSecMission 10235.417119326
scalar OsgEarthNet.uav[2] utilizationSecMaintenance 5469.0745342272
scalar OsgEarthNet.uav[2] utilizationSecCharge 58620
scalar OsgEarthNet.uav[2] utilizationSecIdle 184875.50734645
scalar OsgEarthNet.uav[2] utilizationEnergyMission 47541.250705719
scalar OsgEarthNet.uav[2] utilizationEnergyMaintenance 25275.57856369
scalar OsgEarthNet.uav[2] utilizationEnergyCharge 73072.219726562
scalar OsgEarthNet.uav[2] utilizationEnergyOverdrawMission 0
scalar OsgEarthNet.uav[2] utilizationEnergyOverdrawMaintenance 0
scalar OsgEarthNet.uav[2] utilizationCountMissions 16
scalar OsgEarthNet.uav[2] utilizationCountManeuversMission 181
scalar OsgEarthNet.uav[2] utilizationCountManeuversMaintenance 32
scalar OsgEarthNet.uav[2] utilizationCountChargeState 16
scalar OsgEarthNet.uav[2] utilizationCountOverdrawnAfterMission 0
scalar OsgEarthNet.uav[2] utilizationCountIdleState 17
scalar OsgEarthNet.uav[2] utilizationFail 0
scalar OsgEarthNet.uav[2] simulationTime 259200
scalar OsgEarthNet.uav[3] utilizationSecMission 760.62515258028
scalar OsgEarthNet.uav[3] utilizationSecMaintenance 291.95923480269
scalar OsgEarthNet.uav[3] utilizationSecCharge 3700
scalar OsgEarthNet.uav[3] utilizationSecIdle 254447.41461262
scalar OsgEarthNet.uav[3] utilizationEnergyMission 3141.2851028442
scalar OsgEarthNet.uav[3] utilizationEnergyMaintenance 1496.5306015015
scalar OsgEarthNet.uav[3] utilizationEnergyCharge 4637.8168945312
scalar OsgEarthNet.uav[3] utilizationEnergyOverdrawMission 0
scalar OsgEarthNet.uav[3] utilizationEnergyOverdrawMaintenance 0
scalar OsgEarthNet.uav[3] utilizationCountMissions 1
scalar OsgEarthNet.uav[3] utilizationCountManeuversMission 12
scalar OsgEarthNet.uav[3] utilizationCountManeuversMaintenance 2
scalar OsgEarthNet.uav[3] utilizationCountChargeState 1
scalar OsgEarthNet.uav[3] utilizationCountOverdrawnAfterMission 0
scalar OsgEarthNet.uav[3] utilizationCountIdleState 2
scalar OsgEarthNet.uav[3] utilizationFail 0
scalar OsgEarthNet.uav[3] simulationTime 259200
scalar OsgEarthNet.uav[4] utilizationSecMission 581.2023559588
scalar OsgEarthNet.uav[4] utilizationSecMaintenance 387.12609113476
scalar OsgEarthNet.uav[4] utilizationSecCharge 3860
scalar OsgEarthNet.uav[4] utilizationSecIdle 254371.67055291
scalar OsgEarthNet.uav[4] utilizationEnergyMission 2916.8871307373
scalar OsgEarthNet.uav[4] utilizationEnergyMaintenance 1953.8612785339
scalar OsgEarthNet.uav[4] utilizationEnergyCharge 4870.7534179688
scalar OsgEarthNet.uav[4] utilizationEnergyOverdrawMission 0
scalar OsgEarthNet.uav[4] utilizationEnergyOverdrawMaintenance 0
scalar OsgEarthNet.uav[4] utilizationCountMissions 1
scalar OsgEarthNet.uav[4] utilizationCountManeuversMission 8
scalar OsgEarthNet.uav[4] utilizationCountManeuversMaintenance 2
scalar OsgEarthNet.uav[4] utilizationCountChargeState 1
scalar OsgEarthNet.uav[4] utilizationCountOverdrawnAfterMission 0
scalar OsgEarthNet.uav[4] utilizationCountIdleState 2
scalar OsgEarthNet.uav[4] utilizationFail 0
scalar OsgEarthNet.uav[4] simulationTime 259200
scalar OsgEarthNet.uav[5] utilizationSecMission 887.1741082606
scalar OsgEarthNet.uav[5] utilizationSecMaintenance 148.2728194454
scalar OsgEarthNet.uav[5] utilizationSecCharge 3730
scalar OsgEarthNet.uav[5] utilizationSecIdle 254434.55207229
scalar OsgEarthNet.uav[5] utilizationEnergyMission 4033.1446685791
scalar OsgEarthNet.uav[5] utilizationEnergyMaintenance 724.38686370849
scalar OsgEarthNet.uav[5] utilizationEnergyCharge 4692.5986328125
scalar OsgEarthNet.uav[5] utilizationEnergyOverdrawMission 0
scalar OsgEarthNet.uav[5] utilizationEnergyOverdrawMaintenance 0
scalar OsgEarthNet.uav[5] utilizationCountMissions 1
scalar OsgEarthNet.uav[5] utilizationCountManeuversMission 14
scalar OsgEarthNet.uav[5] utilizationCountManeuversMaintenance 2
scalar OsgEarthNet.uav[5] utilizationCountChargeState 1
scalar OsgEarthNet.uav[5] utilizationCountOverdrawnAfterMission 0
scalar OsgEarthNet.uav[5] utilizationCountIdleState 2
scalar OsgEarthNet.uav[5] utilizationFail 0
scalar OsgEarthNet.uav[5] simulationTime 259200
scalar OsgEarthNet.uav[6] utilizationSecMission 760.62515258028
scalar OsgEarthNet.uav[6] utilizationSecMaintenance 291.95923480269
scalar OsgEarthNet.uav[6] utilizationSecCharge 3810
scalar OsgEarthNet.uav[6] utilizationSecIdle 254337.41461262
scalar OsgEarthNet.uav[6] utilizationEnergyMission 3389.7854156494
scalar OsgEarthNet.uav[6] utilizationEnergyMaintenance 1416.4554367065
scalar OsgEarthNet.uav[6] utilizationEnergyCharge 4806.2387695312
scalar OsgEarthNet.uav[6] utilizationEnergyOverdrawMission 0
scalar OsgEarthNet.uav[6] utilizationEnergyOverdrawMaintenance 0
scalar OsgEarthNet.uav[6] utilizationCountMissions 1
scalar OsgEarthNet.uav[6] utilizationCountManeuversMission 12
scalar OsgEarthNet.uav[6] utilizationCountManeuversMaintenance 2
scalar OsgEarthNet.uav[6] utilizationCountChargeState 1
scalar OsgEarthNet.uav[6] utilizationCountOverdrawnAfterMission 0
scalar OsgEarthNet.uav[6] utilizationCountIdleState 2
scalar OsgEarthNet.uav[6] utilizationFail 0
scalar OsgEarthNet.uav[6] simulationTime 259200
scalar OsgEarthNet.uav[7] utilizationSecMission 28585.835777382
scalar OsgEarthNet.uav[7] utilizationSecMaintenance 12173.903482325
scalar OsgEarthNet.uav[7] utilizationSecCharge 148778.17249595
scalar OsgEarthNet.uav[7] utilizationSecIdle 69662.087244346
scalar OsgEarthNet.uav[7] utilizationEnergyMission 131918.35627747
scalar OsgEarthNet.uav[7] utilizationEnergyMaintenance 57792.586055756
scalar OsgEarthNet.uav[7] utilizationEnergyCharge 186278.31152344
scalar OsgEarthNet.uav[7] utilizationEnergyOverdrawMission 0
scalar OsgEarthNet.uav[7] utilizationEnergyOverdrawMaintenance 0
scalar OsgEarthNet.uav[7] utilizationCountMissions 41
scalar OsgEarthNet.uav[7] utilizationCountManeuversMission 456
scalar OsgEarthNet.uav[7] utilizationCountManeuversMaintenance 82
scalar OsgEarthNet.uav[7] utilizationCountChargeState 41
scalar OsgEarthNet.uav[7] utilizationCountOverdrawnAfterMission 0
scalar OsgEarthNet.uav[7] utilizationCountIdleState 41
scalar OsgEarthNet.uav[7] utilizationFail 0
scalar OsgEarthNet.uav[7] simulationTime 259200
scalar OsgEarthNet.uav[8] utilizationSecMission 887.1741082606
scalar OsgEarthNet.uav[8] utilizationSecMaintenance 148.2728194454
scalar OsgEarthNet.uav[8] utilizationSecCharge 3750
scalar OsgEarthNet.uav[8] utilizationSecIdle 254414.55207229
scalar OsgEarthNet.uav[8] utilizationEnergyMission 4000.5995330811
scalar OsgEarthNet.uav[8] utilizationEnergyMaintenance 724.92559051513
scalar OsgEarthNet.uav[8] utilizationEnergyCharge 4680.0922851562
scalar OsgEarthNet.uav[8] utilizationEnergyOverdrawMission 0
scalar OsgEarthNet.uav[8] utilizationEnergyOverdrawMaintenance 0
scalar OsgEarthNet.uav[8] utilizationCountMissions 1
scalar OsgEarthNet.uav[8] utilizationCountManeuversMission 14
scalar OsgEarthNet.uav[8] utilizationCountManeuversMaintenance 2
scalar OsgEarthNet.uav[8] utilizationCountChargeState 1
scalar OsgEarthNet.uav[8] utilizationCountOverdrawnAfterMission 0
scalar OsgEarthNet.uav[8] utilizationCountIdleState 2
scalar OsgEarthNet.uav[8] utilizationFail 0
scalar OsgEarthNet.uav[8] simulationTime 259200
scalar OsgEarthNet.uav[9] utilizationSecMission 702.6942798579
scalar OsgEarthNet.uav[9] utilizationSecMaintenance 282.29565405678
scalar OsgEarthNet.uav[9] utilizationSecCharge 3700
scalar OsgEarthNet.uav[9] utilizationSecIdle 254515.00906609
scalar OsgEarthNet.uav[9] utilizationEnergyMission 3332.8283538818
scalar OsgEarthNet.uav[9] utilizationEnergyMaintenance 1253.9147758484
scalar OsgEarthNet.uav[9] utilizationEnergyCharge 4586.7412109375
scalar OsgEarthNet.uav[9] utilizationEnergyOverdrawMission 0
scalar OsgEarthNet.uav[9] utilizationEnergyOverdrawMaintenance 0
scalar OsgEarthNet.uav[9] utilizationCountMissions 1
scalar OsgEarthNet.uav[9] utilizationCountManeuversMission 10
scalar OsgEarthNet.uav[9] utilizationCountManeuversMaintenance 2
scalar OsgEarthNet.uav[9] utilizationCountChargeState 1
scalar OsgEarthNet.uav[9] utilizationCountOverdrawnAfterMission 0
scalar OsgEarthNet.uav[9] utilizationCountIdleState 2
scalar OsgEarthNet.uav[9] utilizationFail 0
scalar OsgEarthNet.uav[9] simulationTime 259200
scalar OsgEarthNet.uav[10] utilizationSecMission 684.4732299383
scalar OsgEarthNet.uav[10] utilizationSecMaintenance 298.56834692969
scalar OsgEarthNet.uav[10] utilizationSecCharge 3700
scalar OsgEarthNet.uav[10] utilizationSecIdle 254516.95742313
scalar OsgEarthNet.uav[10] utilizationEnergyMission 3188.8378677368
scalar OsgEarthNet.uav[10] utilizationEnergyMaintenance 1462.5855636597
scalar OsgEarthNet.uav[10] utilizationEnergyCharge 4651.421875
scalar OsgEarthNet.uav[10] utilizationEnergyOverdrawMission 0
scalar OsgEarthNet.uav[10] utilizationEnergyOverdrawMaintenance 0
scalar OsgEarthNet.uav[10] utilizationCountMissions 1
scalar OsgEarthNet.uav[10] utilizationCountManeuversMission 11
scalar OsgEarthNet.uav[10] utilizationCountManeuversMaintenance 2
scalar OsgEarthNet.uav[10] utilizationCountChargeState 1
scalar OsgEarthNet.uav[10] utilizationCountOverdrawnAfterMission 0
scalar OsgEarthNet.uav[10] utilizationCountIdleState 2
scalar OsgEarthNet.uav[10] utilizationFail 0
scalar OsgEarthNet.uav[10] simulationTime 259200
scalar OsgEarthNet.uav[11] utilizationSecMission 19936.07988598
scalar OsgEarthNet.uav[11] utilizationSecMaintenance 9575.6011828603
scalar OsgEarthNet.uav[11] utilizationSecCharge 108529.53351464
scalar OsgEarthNet.uav[11] utilizationSecIdle 121158.78441652
scalar OsgEarthNet.uav[11] utilizationEnergyMission 92731.608520508
scalar OsgEarthNet.uav[11] utilizationEnergyMaintenance 44615.451118469
scalar OsgEarthNet.uav[11] utilizationEnergyCharge 136038.61572266
scalar OsgEarthNet.uav[11] utilizationEnergyOverdrawMission 0
scalar OsgEarthNet.uav[11] utilizationEnergyOverdrawMaintenance 0
scalar OsgEarthNet.uav[11] utilizationCountMissions 30
scalar OsgEarthNet.uav[11] utilizationCountManeuversMission 329
scalar OsgEarthNet.uav[11] utilizationCountManeuversMaintenance 60
scalar OsgEarthNet.uav[11] utilizationCountChargeState 30
scalar OsgEarthNet.uav[11] utilizationCountOverdrawnAfterMission 0
scalar OsgEarthNet.uav[11] utilizationCountIdleState 30
scalar OsgEarthNet.uav[11] utilizationFail 0
scalar OsgEarthNet.uav[11] simulationTime 259200
scalar OsgEarthNet.uav[12] utilizationSecMission 887.1741082606
scalar OsgEarthNet.uav[12] utilizationSecMaintenance 148.2728194454
scalar OsgEarthNet.uav[12] utilizationSecCharge 3760
scalar OsgEarthNet.uav[12] utilizationSecIdle 254404.55207229
scalar OsgEarthNet.uav[12] utilizationEnergyMission 3975.4222869873
scalar OsgEarthNet.uav[12] utilizationEnergyMaintenance 606.52573394775
scalar OsgEarthNet.uav[12] utilizationEnergyCharge 4724.1181640625
scalar OsgEarthNet.uav[12] utilizationEnergyOverdrawMission 0
scalar OsgEarthNet.uav[12] utilizationEnergyOverdrawMaintenance 0
scalar OsgEarthNet.uav[12] utilizationCountMissions 1
scalar OsgEarthNet.uav[12] utilizationCountManeuversMission 14
scalar OsgEarthNet.uav[12] utilizationCountManeuversMaintenance 2
scalar OsgEarthNet.uav[12] utilizationCountChargeState 1
scalar OsgEarthNet.uav[12] utilizationCountOverdrawnAfterMission 0
scalar OsgEarthNet.uav[12] utilizationCountIdleState 2
scalar OsgEarthNet.uav[12] utilizationFail 0
scalar OsgEarthNet.uav[12] simulationTime 259200
scalar OsgEarthNet.uav[13] utilizationSecMission 26995.923969077
scalar OsgEarthNet.uav[13] utilizationSecMaintenance 13634.387689657
scalar OsgEarthNet.uav[13] utilizationSecCharge 149106.29520654
scalar OsgEarthNet.uav[13] utilizationSecIdle 69463.392134723
scalar OsgEarthNet.uav[13] utilizationEnergyMission 125213.84041595
scalar OsgEarthNet.uav[13] utilizationEnergyMaintenance 62720.765556335
scalar OsgEarthNet.uav[13] utilizationEnergyCharge 186910.40429688
scalar OsgEarthNet.uav[13] utilizationEnergyOverdrawMission 0
scalar OsgEarthNet.uav[13] utilizationEnergyOverdrawMaintenance 0
scalar OsgEarthNet.uav[13] utilizationCountMissions 41
scalar OsgEarthNet.uav[13] utilizationCountManeuversMission 438
scalar OsgEarthNet.uav[13] utilizationCountManeuversMaintenance 82
scalar OsgEarthNet.uav[13] utilizationCountChargeState 41
scalar OsgEarthNet.uav[13] utilizationCountOverdrawnAfterMission 0
scalar OsgEarthNet.uav[13] utilizationCountIdleState 41
scalar OsgEarthNet.uav[13] utilizationFail 0
scalar OsgEarthNet.uav[13] simulationTime 259200
scalar OsgEarthNet.uav[14] utilizationSecMission 29337.382313012
scalar OsgEarthNet.uav[14] utilizationSecMaintenance 10606.254414822
scalar OsgEarthNet.uav[14] utilizationSecCharge 148003.58866249
scalar OsgEarthNet.uav[14] utilizationSecIdle 71252.773609681
scalar OsgEarthNet.uav[14] utilizationEnergyMission 134855.40269852
scalar OsgEarthNet.uav[14] utilizationEnergyMaintenance 49882.759902954
scalar OsgEarthNet.uav[14] utilizationEnergyCharge 185184.3515625
scalar OsgEarthNet.uav[14] utilizationEnergyOverdrawMission 0
scalar OsgEarthNet.uav[14] utilizationEnergyOverdrawMaintenance 0
scalar OsgEarthNet.uav[14] utilizationCountMissions 40
scalar OsgEarthNet.uav[14] utilizationCountManeuversMission 479
scalar OsgEarthNet.uav[14] utilizationCountManeuversMaintenance 80
scalar OsgEarthNet.uav[14] utilizationCountChargeState 40
scalar OsgEarthNet.uav[14] utilizationCountOverdrawnAfterMission 0
scalar OsgEarthNet.uav[14] utilizationCountIdleState 40
scalar OsgEarthNet.uav[14] utilizationFail 0
scalar OsgEarthNet.uav[14] simulationTime 259200
scalar OsgEarthNet.uav[15] utilizationSecMission 31377.778549129
scalar OsgEarthNet.uav[15] utilizationSecMaintenance 12890.87289665
scalar OsgEarthNet.uav[15] utilizationSecCharge 162319.34755422
scalar OsgEarthNet.uav[15] utilizationSecIdle 52612
scalar OsgEarthNet.uav[15] utilizationEnergyMission 146346.23035144
scalar OsgEarthNet.uav[15] utilizationEnergyMaintenance 60413.660705566
scalar OsgEarthNet.uav[15] utilizationEnergyCharge 204504.98242188
scalar OsgEarthNet.uav[15] utilizationEnergyOverdrawMission 0
scalar OsgEarthNet.uav[15] utilizationEnergyOverdrawMaintenance 0
scalar OsgEarthNet.uav[15] utilizationCountMissions 44
scalar OsgEarthNet.uav[15] utilizationCountManeuversMission 520
scalar OsgEarthNet.uav[15] utilizationCountManeuversMaintenance 87
scalar OsgEarthNet.uav[15] utilizationCountChargeState 44
scalar OsgEarthNet.uav[15] utilizationCountOverdrawnAfterMission 0
scalar OsgEarthNet.uav[15] utilizationCountIdleState 44
scalar OsgEarthNet.uav[15] utilizationFail 0
scalar OsgEarthNet.uav[15] simulationTime 259200
scalar OsgEarthNet.uav[16] utilizationSecMission 702.6942798579
scalar OsgEarthNet.uav[16] utilizationSecMaintenance 282.29565405678
scalar OsgEarthNet.uav[16] utilizationSecCharge 3740
scalar OsgEarthNet.uav[16] utilizationSecIdle 254475.00906609
scalar OsgEarthNet.uav[16] utilizationEnergyMission 3248.8463134766
scalar OsgEarthNet.uav[16] utilizationEnergyMaintenance 1416.3799247742
scalar OsgEarthNet.uav[16] utilizationEnergyCharge 4665.2255859375
scalar OsgEarthNet.uav[16] utilizationEnergyOverdrawMission 0
scalar OsgEarthNet.uav[16] utilizationEnergyOverdrawMaintenance 0
scalar OsgEarthNet.uav[16] utilizationCountMissions 1
scalar OsgEarthNet.uav[16] utilizationCountManeuversMission 10
scalar OsgEarthNet.uav[16] utilizationCountManeuversMaintenance 2
scalar OsgEarthNet.uav[16] utilizationCountChargeState 1
scalar OsgEarthNet.uav[16] utilizationCountOverdrawnAfterMission 0
scalar OsgEarthNet.uav[16] utilizationCountIdleState 2
scalar OsgEarthNet.uav[16] utilizationFail 0
scalar OsgEarthNet.uav[16] simulationTime 259200
scalar OsgEarthNet.uav[17] utilizationSecMission 29927.09635231
scalar OsgEarthNet.uav[17] utilizationSecMaintenance 11745.752974139
scalar OsgEarthNet.uav[17] utilizationSecCharge 152450
scalar OsgEarthNet.uav[17] utilizationSecIdle 65077.149673551
scalar OsgEarthNet.uav[17] utilizationEnergyMission 137969.59766994
scalar OsgEarthNet.uav[17] utilizationEnergyMaintenance 55420.292259216
scalar OsgEarthNet.uav[17] utilizationEnergyCharge 190746.38916016
scalar OsgEarthNet.uav[17] utilizationEnergyOverdrawMission 0
scalar OsgEarthNet.uav[17] utilizationEnergyOverdrawMaintenance 0
scalar OsgEarthNet.uav[17] utilizationCountMissions 41
scalar OsgEarthNet.uav[17] utilizationCountManeuversMission 467
scalar OsgEarthNet.uav[17] utilizationCountManeuversMaintenance 83
scalar OsgEarthNet.uav[17] utilizationCountChargeState 41
scalar OsgEarthNet.uav[17] utilizationCountOverdrawnAfterMission 0
scalar OsgEarthNet.uav[17] utilizationCountIdleState 42
scalar OsgEarthNet.uav[17] utilizationFail 0
scalar OsgEarthNet.uav[17] simulationTime 259200
scalar OsgEarthNet.uav[18] utilizationSecMission 694.00169469977
scalar OsgEarthNet.uav[18] utilizationSecMaintenance 338.49695459722
scalar OsgEarthNet.uav[18] utilizationSecCharge 3680
scalar OsgEarthNet.uav[18] utilizationSecIdle 254487.5003507
scalar OsgEarthNet.uav[18] utilizationEnergyMission 3064.3619689941
scalar OsgEarthNet.uav[18] utilizationEnergyMaintenance 1533.7959709167
scalar OsgEarthNet.uav[18] utilizationEnergyCharge 4598.1552734375
scalar OsgEarthNet.uav[18] utilizationEnergyOverdrawMission 0
scalar OsgEarthNet.uav[18] utilizationEnergyOverdrawMaintenance 0
scalar OsgEarthNet.uav[18] utilizationCountMissions 1
scalar OsgEarthNet.uav[18] utilizationCountManeuversMission 13
scalar OsgEarthNet.uav[18] utilizationCountManeuversMaintenance 2
scalar OsgEarthNet.uav[18] utilizationCountChargeState 1
scalar OsgEarthNet.uav[18] utilizationCountOverdrawnAfterMission 0
scalar OsgEarthNet.uav[18] utilizationCountIdleState 2
scalar OsgEarthNet.uav[18] utilizationFail 0
scalar OsgEarthNet.uav[18] simulationTime 259200
scalar OsgEarthNet.uav[19] utilizationSecMission 836.77707522227
scalar OsgEarthNet.uav[19] utilizationSecMaintenance 217.0347828456
scalar OsgEarthNet.uav[19] utilizationSecCharge 3770
scalar OsgEarthNet.uav[19] utilizationSecIdle 254376.18714193
scalar OsgEarthNet.uav[19] utilizationEnergyMission 3755.4059295654
scalar OsgEarthNet.uav[19] utilizationEnergyMaintenance 1027.4908866882
scalar OsgEarthNet.uav[19] utilizationEnergyCharge 4782.8959960938
scalar OsgEarthNet.uav[19] utilizationEnergyOverdrawMission 0
scalar OsgEarthNet.uav[19] utilizationEnergyOverdrawMaintenance 0
scalar OsgEarthNet.uav[19] utilizationCountMissions 1
scalar OsgEarthNet.uav[19] utilizationCountManeuversMission 13
scalar OsgEarthNet.uav[19] utilizationCountManeuversMaintenance 2
scalar OsgEarthNet.uav[19] utilizationCountChargeState 1
scalar OsgEarthNet.uav[19] utilizationCountOverdrawnAfterMission 0
scalar OsgEarthNet.uav[19] utilizationCountIdleState 2
scalar OsgEarthNet.uav[19] utilizationFail 0
scalar OsgEarthNet.uav[19] simulationTime 259200
scalar OsgEarthNet.uav[20] utilizationSecMission 750.20472747826
scalar OsgEarthNet.uav[20] utilizationSecMaintenance 335.16822070369
scalar OsgEarthNet.uav[20] utilizationSecCharge 3830
scalar OsgEarthNet.uav[20] utilizationSecIdle 254284.62605182
scalar OsgEarthNet.uav[20] utilizationEnergyMission 3307.600692749
scalar OsgEarthNet.uav[20] utilizationEnergyMaintenance 1528.1340446472
scalar OsgEarthNet.uav[20] utilizationEnergyCharge 4835.734375
scalar OsgEarthNet.uav[20] utilizationEnergyOverdrawMission 0
scalar OsgEarthNet.uav[20] utilizationEnergyOverdrawMaintenance 0
scalar OsgEarthNet.uav[20] utilizationCountMissions 1
scalar OsgEarthNet.uav[20] utilizationCountManeuversMission 11
scalar OsgEarthNet.uav[20] utilizationCountManeuversMaintenance 2
scalar OsgEarthNet.uav[20] utilizationCountChargeState 1
scalar OsgEarthNet.uav[20] utilizationCountOverdrawnAfterMission 0
scalar OsgEarthNet.uav[20] utilizationCountIdleState 2
scalar OsgEarthNet.uav[20] utilizationFail 0
scalar OsgEarthNet.uav[20] simulationTime 259200
scalar OsgEarthNet.uav[21] utilizationSecMission 27535.360486502
scalar OsgEarthNet.uav[21] utilizationSecMaintenance 12227.862202107
scalar OsgEarthNet.uav[21] utilizationSecCharge 146070
scalar OsgEarthNet.uav[21] utilizationSecIdle 73366.776311391
scalar OsgEarthNet.uav[21] utilizationEnergyMission 128907.33575787
scalar OsgEarthNet.uav[21] utilizationEnergyMaintenance 58596.28421402
scalar OsgEarthNet.uav[21] utilizationEnergyCharge 183533.88916016
scalar OsgEarthNet.uav[21] utilizationEnergyOverdrawMission 0
scalar OsgEarthNet.uav[21] utilizationEnergyOverdrawMaintenance 0
scalar OsgEarthNet.uav[21] utilizationCountMissions 39
scalar OsgEarthNet.uav[21] utilizationCountManeuversMission 447
scalar OsgEarthNet.uav[21] utilizationCountManeuversMaintenance 79
scalar OsgEarthNet.uav[21] utilizationCountChargeState 39
scalar OsgEarthNet.uav[21] utilizationCountOverdrawnAfterMission 0
scalar OsgEarthNet.uav[21] utilizationCountIdleState 40
scalar OsgEarthNet.uav[21] utilizationFail 0
scalar OsgEarthNet.uav[21] simulationTime 259200
scalar OsgEarthNet.uav[22] utilizationSecMission 13950.360759662
scalar OsgEarthNet.uav[22] utilizationSecMaintenance 7914.4769977649
scalar OsgEarthNet.uav[22] utilizationSecCharge 80850
scalar OsgEarthNet.uav[22] utilizationSecIdle 156485.16124257
scalar OsgEarthNet.uav[22] utilizationEnergyMission 65344.811050415
scalar OsgEarthNet.uav[22] utilizationEnergyMaintenance 36111.623390198
scalar OsgEarthNet.uav[22] utilizationEnergyCharge 100923.90209961
scalar OsgEarthNet.uav[22] utilizationEnergyOverdrawMission 0
scalar OsgEarthNet.uav[22] utilizationEnergyOverdrawMaintenance 0
scalar OsgEarthNet.uav[22] utilizationCountMissions 22
scalar OsgEarthNet.uav[22] utilizationCountManeuversMission 230
scalar OsgEarthNet.uav[22] utilizationCountManeuversMaintenance 44
scalar OsgEarthNet.uav[22] utilizationCountChargeState 22
scalar OsgEarthNet.uav[22] utilizationCountOverdrawnAfterMission 0
scalar OsgEarthNet.uav[22] utilizationCountIdleState 23
scalar OsgEarthNet.uav[22] utilizationFail 0
scalar OsgEarthNet.uav[22] simulationTime 259200
scalar OsgEarthNet.uav[23] utilizationSecMission 760.62515258028
scalar OsgEarthNet.uav[23] utilizationSecMaintenance 291.95923480269
scalar OsgEarthNet.uav[23] utilizationSecCharge 3890
scalar OsgEarthNet.uav[23] utilizationSecIdle 254257.41461262
scalar OsgEarthNet.uav[23] utilizationEnergyMission 3385.1407241821
scalar OsgEarthNet.uav[23] utilizationEnergyMaintenance 1587.4015731812
scalar OsgEarthNet.uav[23] utilizationEnergyCharge 4972.5473632812
scalar OsgEarthNet.uav[23] utilizationEnergyOverdrawMission 0
scalar OsgEarthNet.uav[23] utilizationEnergyOverdrawMaintenance 0
scalar OsgEarthNet.uav[23] utilizationCountMissions 1
scalar OsgEarthNet.uav[23] utilizationCountManeuversMission 12
scalar OsgEarthNet.uav[23] utilizationCountManeuversMaintenance 2
scalar OsgEarthNet.uav[23] utilizationCountChargeState 1
scalar OsgEarthNet.uav[23] utilizationCountOverdrawnAfterMission 0
scalar OsgEarthNet.uav[23] utilizationCountIdleState 2
scalar OsgEarthNet.uav[23] utilizationFail 0
scalar OsgEarthNet.uav[23] simulationTime 259200
scalar OsgEarthNet.uav[24] utilizationSecMission 27319.550340906
scalar OsgEarthNet.uav[24] utilizationSecMaintenance 12869.669645994
scalar OsgEarthNet.uav[24] utilizationSecCharge 147330
scalar OsgEarthNet.uav[24] utilizationSecIdle 71680.779013101
scalar OsgEarthNet.uav[24] utilizationEnergyMission 127904.52896558
scalar OsgEarthNet.uav[24] utilizationEnergyMaintenance 60054.497444153
scalar OsgEarthNet.uav[24] utilizationEnergyCharge 183858.25805664
scalar OsgEarthNet.uav[24] utilizationEnergyOverdrawMission 0
scalar OsgEarthNet.uav[24] utilizationEnergyOverdrawMaintenance 0
scalar OsgEarthNet.uav[24] utilizationCountMissions 40
scalar OsgEarthNet.uav[24] utilizationCountManeuversMission 458
scalar OsgEarthNet.uav[24] utilizationCountManeuversMaintenance 81
scalar OsgEarthNet.uav[24] utilizationCountChargeState 40
scalar OsgEarthNet.uav[24] utilizationCountOverdrawnAfterMission 0
scalar OsgEarthNet.uav[24] utilizationCountIdleState 41
scalar OsgEarthNet.uav[24] utilizationFail 0
scalar OsgEarthNet.uav[24] simulationTime 259200
scalar OsgEarthNet.uav[25] utilizationSecMission 750.20472747826
scalar OsgEarthNet.uav[25] utilizationSecMaintenance 300.8347882699
scalar OsgEarthNet.uav[25] utilizationSecCharge 3870
scalar OsgEarthNet.uav[25] utilizationSecIdle 254278.95948425
scalar OsgEarthNet.uav[25] utilizationEnergyMission 3639.7284698486
scalar OsgEarthNet.uav[25] utilizationEnergyMaintenance 1310.1980705261
scalar OsgEarthNet.uav[25] utilizationEnergyCharge 4949.9287109375
scalar OsgEarthNet.uav[25] utilizationEnergyOverdrawMission 0
scalar OsgEarthNet.uav[25] utilizationEnergyOverdrawMaintenance 0
scalar OsgEarthNet.uav[25] utilizationCountMissions 1
scalar OsgEarthNet.uav[25] utilizationCountManeuversMission 11
scalar OsgEarthNet.uav[25] utilizationCountManeuversMaintenance 2
scalar OsgEarthNet.uav[25] utilizationCountChargeState 1
scalar OsgEarthNet.uav[25] utilizationCountOverdrawnAfterMission 0
scalar OsgEarthNet.uav[25] utilizationCountIdleState 2
scalar OsgEarthNet.uav[25] utilizationFail 0
scalar OsgEarthNet.uav[25] simulationTime 259200
scalar OsgEarthNet.uav[26] utilizationSecMission 760.62515258028
scalar OsgEarthNet.uav[26] utilizationSecMaintenance 291.95923480269
scalar OsgEarthNet.uav[26] utilizationSecCharge 3720
scalar OsgEarthNet.uav[26] utilizationSecIdle 254427.41461262
scalar OsgEarthNet.uav[26] utilizationEnergyMission 3228.7721176148
scalar OsgEarthNet.uav[26] utilizationEnergyMaintenance 1373.339012146
scalar OsgEarthNet.uav[26] utilizationEnergyCharge 4602.107421875
scalar OsgEarthNet.uav[26] utilizationEnergyOverdrawMission 0
scalar OsgEarthNet.uav[26] utilizationEnergyOverdrawMaintenance 0
scalar OsgEarthNet.uav[26] utilizationCountMissions 1
scalar OsgEarthNet.uav[26] utilizationCountManeuversMission 12
scalar OsgEarthNet.uav[26] utilizationCountManeuversMaintenance 2
scalar OsgEarthNet.uav[26] utilizationCountChargeState 1
scalar OsgEarthNet.uav[26] utilizationCountOverdrawnAfterMission 0
scalar OsgEarthNet.uav[26] utilizationCountIdleState 2
scalar OsgEarthNet.uav[26] utilizationFail 0
scalar OsgEarthNet.uav[26] simulationTime 259200
scalar OsgEarthNet.uav[27] utilizationSecMission 26779.513837231
scalar OsgEarthNet.uav[27] utilizationSecMaintenance 13491.223482051
scalar OsgEarthNet.uav[27] utilizationSecCharge 148230
scalar OsgEarthNet.uav[27] utilizationSecIdle 70699.261680717
scalar OsgEarthNet.uav[27] utilizationEnergyMission 123674.88187624
scalar OsgEarthNet.uav[27] utilizationEnergyMaintenance 63657.634395599
scalar OsgEarthNet.uav[27] utilizationEnergyCharge 185606.95678711
scalar OsgEarthNet.uav[27] utilizationEnergyOverdrawMission 0
scalar OsgEarthNet.uav[27] utilizationEnergyOverdrawMaintenance 0
scalar OsgEarthNet.uav[27] utilizationCountMissions 40
scalar OsgEarthNet.uav[27] utilizationCountManeuversMission 439
scalar OsgEarthNet.uav[27] utilizationCountManeuversMaintenance 81
scalar OsgEarthNet.uav[27] utilizationCountChargeState 40
scalar OsgEarthNet.uav[27] utilizationCountOverdrawnAfterMission 0
scalar OsgEarthNet.uav[27] utilizationCountIdleState 41
scalar OsgEarthNet.uav[27] utilizationFail 0
scalar OsgEarthNet.uav[27] simulationTime 259200
scalar OsgEarthNet.uav[28] utilizationSecMission 28760.236041088
scalar OsgEarthNet.uav[28] utilizationSecMaintenance 14207.641221666
scalar OsgEarthNet.uav[28] utilizationSecCharge 157740
scalar OsgEarthNet.uav[28] utilizationSecIdle 58492.121737246
scalar OsgEarthNet.uav[28] utilizationEnergyMission 134273.34570577
scalar OsgEarthNet.uav[28] utilizationEnergyMaintenance 65987.7891922
scalar OsgEarthNet.uav[28] utilizationEnergyCharge 198425.34057617
scalar OsgEarthNet.uav[28] utilizationEnergyOverdrawMission 0
scalar OsgEarthNet.uav[28] utilizationEnergyOverdrawMaintenance 0
scalar OsgEarthNet.uav[28] utilizationCountMissions 42
scalar OsgEarthNet.uav[28] utilizationCountManeuversMission 469
scalar OsgEarthNet.uav[28] utilizationCountManeuversMaintenance 85
scalar OsgEarthNet.uav[28] utilizationCountChargeState 42
scalar OsgEarthNet.uav[28] utilizationCountOverdrawnAfterMission 0
scalar OsgEarthNet.uav[28] utilizationCountIdleState 43
scalar OsgEarthNet.uav[28] utilizationFail 0
scalar OsgEarthNet.uav[28] simulationTime 259200
scalar OsgEarthNet.uav[29] utilizationSecMission 684.4732299383
scalar OsgEarthNet.uav[29] utilizationSecMaintenance 298.56834692969
scalar OsgEarthNet.uav[29] utilizationSecCharge 3800
scalar OsgEarthNet.uav[29] utilizationSecIdle 254416.95742313
scalar OsgEarthNet.uav[29] utilizationEnergyMission 3289.3248291016
scalar OsgEarthNet.uav[29] utilizationEnergyMaintenance 1465.6086654663
scalar OsgEarthNet.uav[29] utilizationEnergyCharge 4754.9365234375
scalar OsgEarthNet.uav[29] utilizationEnergyOverdrawMission 0
scalar OsgEarthNet.uav[29] utilizationEnergyOverdrawMaintenance 0
scalar OsgEarthNet.uav[29] utilizationCountMissions 1
scalar OsgEarthNet.uav[29] utilizationCountManeuversMission 11
scalar OsgEarthNet.uav[29] utilizationCountManeuversMaintenance 2
scalar OsgEarthNet.uav[29] utilizationCountChargeState 1
scalar OsgEarthNet.uav[29] utilizationCountOverdrawnAfterMission 0
scalar OsgEarthNet.uav[29] utilizationCountIdleState 2
scalar OsgEarthNet.uav[29] utilizationFail 0
scalar OsgEarthNet.uav[29] simulationTime 259200
scalar OsgEarthNet.uav[30] utilizationSecMission 29952.152288977
scalar OsgEarthNet.uav[30] utilizationSecMaintenance 12160.108536713
scalar OsgEarthNet.uav[30] utilizationSecCharge 153334.97219178
scalar OsgEarthNet.uav[30] utilizationSecIdle 63752.765982528
scalar OsgEarthNet.uav[30] utilizationEnergyMission 138532.13013458
scalar OsgEarthNet.uav[30] utilizationEnergyMaintenance 56832.861194611
scalar OsgEarthNet.uav[30] utilizationEnergyCharge 192386.97851562
scalar OsgEarthNet.uav[30] utilizationEnergyOverdrawMission 0
scalar OsgEarthNet.uav[30] utilizationEnergyOverdrawMaintenance 0
scalar OsgEarthNet.uav[30] utilizationCountMissions 42
scalar OsgEarthNet.uav[30] utilizationCountManeuversMission 484
scalar OsgEarthNet.uav[30] utilizationCountManeuversMaintenance 84
scalar OsgEarthNet.uav[30] utilizationCountChargeState 42
scalar OsgEarthNet.uav[30] utilizationCountOverdrawnAfterMission 0
scalar OsgEarthNet.uav[30] utilizationCountIdleState 42
scalar OsgEarthNet.uav[30] utilizationFail 0
scalar OsgEarthNet.uav[30] simulationTime 259200
scalar OsgEarthNet.uav[31] utilizationSecMission 28544.58477786
scalar OsgEarthNet.uav[31] utilizationSecMaintenance 13708.325569179
scalar OsgEarthNet.uav[31] utilizationSecCharge 155345.92915755
scalar OsgEarthNet.uav[31] utilizationSecIdle 61601.15949541
scalar OsgEarthNet.uav[31] utilizationEnergyMission 132090.9648819
scalar OsgEarthNet.uav[31] utilizationEnergyMaintenance 64665.987148285
scalar OsgEarthNet.uav[31] utilizationEnergyCharge 195729.05712891
scalar OsgEarthNet.uav[31] utilizationEnergyOverdrawMission 0
scalar OsgEarthNet.uav[31] utilizationEnergyOverdrawMaintenance 0
scalar OsgEarthNet.uav[31] utilizationCountMissions 42
scalar OsgEarthNet.uav[31] utilizationCountManeuversMission 454
scalar OsgEarthNet.uav[31] utilizationCountManeuversMaintenance 84
scalar OsgEarthNet.uav[31] utilizationCountChargeState 42
scalar OsgEarthNet.uav[31] utilizationCountOverdrawnAfterMission 0
scalar OsgEarthNet.uav[31] utilizationCountIdleState 42
scalar OsgEarthNet.uav[31] utilizationFail 0
scalar OsgEarthNet.uav[31] simulationTime 259200
scalar OsgEarthNet.uav[32] utilizationSecMission 766.82734763767
scalar OsgEarthNet.uav[32] utilizationSecMaintenance 306.92101052153
scalar OsgEarthNet.uav[32] utilizationSecCharge 3820
scalar OsgEarthNet.uav[32] utilizationSecIdle 254306.25064184
scalar OsgEarthNet.uav[32] utilizationEnergyMission 3265.411819458
scalar OsgEarthNet.uav[32] utilizationEnergyMaintenance 1570.0965194702
scalar OsgEarthNet.uav[32] utilizationEnergyCharge 4835.509765625
scalar OsgEarthNet.uav[32] utilizationEnergyOverdrawMission 0
scalar OsgEarthNet.uav[32] utilizationEnergyOverdrawMaintenance 0
scalar OsgEarthNet.uav[32] utilizationCountMissions 1
scalar OsgEarthNet.uav[32] utilizationCountManeuversMission 14
scalar OsgEarthNet.uav[32] utilizationCountManeuversMaintenance 2
scalar OsgEarthNet.uav[32] utilizationCountChargeState 1
scalar OsgEarthNet.uav[32] utilizationCountOverdrawnAfterMission 0
scalar OsgEarthNet.uav[32] utilizationCountIdleState 2
scalar OsgEarthNet.uav[32] utilizationFail 0
scalar OsgEarthNet.uav[32] simulationTime 259200
scalar OsgEarthNet.uav[33] utilizationSecMission 836.77707522227
scalar OsgEarthNet.uav[33] utilizationSecMaintenance 217.0347828456
scalar OsgEarthNet.uav[33] utilizationSecCharge 3880
scalar OsgEarthNet.uav[33] utilizationSecIdle 254266.18714193
scalar OsgEarthNet.uav[33] utilizationEnergyMission 3887.2836303711
scalar OsgEarthNet.uav[33] utilizationEnergyMaintenance 1009.8057670593
scalar OsgEarthNet.uav[33] utilizationEnergyCharge 4897.0908203125
scalar OsgEarthNet.uav[33] utilizationEnergyOverdrawMission 0
scalar OsgEarthNet.uav[33] utilizationEnergyOverdrawMaintenance 0
scalar OsgEarthNet.uav[33] utilizationCountMissions 1
scalar OsgEarthNet.uav[33] utilizationCountManeuversMission 13
scalar OsgEarthNet.uav[33] utilizationCountManeuversMaintenance 2
scalar OsgEarthNet.uav[33] utilizationCountChargeState 1
scalar OsgEarthNet.uav[33] utilizationCountOverdrawnAfterMission 0
scalar OsgEarthNet.uav[33] utilizationCountIdleState 2
scalar OsgEarthNet.uav[33] utilizationFail 0
scalar OsgEarthNet.uav[33] simulationTime 259200
scalar OsgEarthNet.uav[34] utilizationSecMission 28872.973555403
scalar OsgEarthNet.uav[34] utilizationSecMaintenance 12691.839854199
scalar OsgEarthNet.uav[34] utilizationSecCharge 152096.41468243
scalar OsgEarthNet.uav[34] utilizationSecIdle 65538.770907971
scalar OsgEarthNet.uav[34] utilizationEnergyMission 135043.33581924
scalar OsgEarthNet.uav[34] utilizationEnergyMaintenance 60391.359489441
scalar OsgEarthNet.uav[34] utilizationEnergyCharge 190192.57019043
scalar OsgEarthNet.uav[34] utilizationEnergyOverdrawMission 0
scalar OsgEarthNet.uav[34] utilizationEnergyOverdrawMaintenance 0
scalar OsgEarthNet.uav[34] utilizationCountMissions 42
scalar OsgEarthNet.uav[34] utilizationCountManeuversMission 483
scalar OsgEarthNet.uav[34] utilizationCountManeuversMaintenance 84
scalar OsgEarthNet.uav[34] utilizationCountChargeState 42
scalar OsgEarthNet.uav[34] utilizationCountOverdrawnAfterMission 0
scalar OsgEarthNet.uav[34] utilizationCountIdleState 42
scalar OsgEarthNet.uav[34] utilizationFail 0
scalar OsgEarthNet.uav[34] simulationTime 259200
scalar OsgEarthNet.uav[35] utilizationSecMission 694.00169469977
scalar OsgEarthNet.uav[35] utilizationSecMaintenance 282.18572599206
scalar OsgEarthNet.uav[35] utilizationSecCharge 3690
scalar OsgEarthNet.uav[35] utilizationSecIdle 254533.81157931
scalar OsgEarthNet.uav[35] utilizationEnergyMission 3310.2110519409
scalar OsgEarthNet.uav[35] utilizationEnergyMaintenance 1292.5782089233
scalar OsgEarthNet.uav[35] utilizationEnergyCharge 4602.7880859375
scalar OsgEarthNet.uav[35] utilizationEnergyOverdrawMission 0
scalar OsgEarthNet.uav[35] utilizationEnergyOverdrawMaintenance 0
scalar OsgEarthNet.uav[35] utilizationCountMissions 1
scalar OsgEarthNet.uav[35] utilizationCountManeuversMission 13
scalar OsgEarthNet.uav[35] utilizationCountManeuversMaintenance 2
scalar OsgEarthNet.uav[35] utilizationCountChargeState 1
scalar OsgEarthNet.uav[35] utilizationCountOverdrawnAfterMission 0
scalar OsgEarthNet.uav[35] utilizationCountIdleState 2
scalar OsgEarthNet.uav[35] utilizationFail 0
scalar OsgEarthNet.uav[35] simulationTime 259200
scalar OsgEarthNet.uav[36] utilizationSecMission 760.62515258028
scalar OsgEarthNet.uav[36] utilizationSecMaintenance 291.95923480269
scalar OsgEarthNet.uav[36] utilizationSecCharge 3870
scalar OsgEarthNet.uav[36] utilizationSecIdle 254277.41461262
scalar OsgEarthNet.uav[36] utilizationEnergyMission 3437.1060333252
scalar OsgEarthNet.uav[36] utilizationEnergyMaintenance 1474.1127548218
scalar OsgEarthNet.uav[36] utilizationEnergyCharge 4911.2197265625
scalar OsgEarthNet.uav[36] utilizationEnergyOverdrawMission 0
scalar OsgEarthNet.uav[36] utilizationEnergyOverdrawMaintenance 0
scalar OsgEarthNet.uav[36] utilizationCountMissions 1
scalar OsgEarthNet.uav[36] utilizationCountManeuversMission 12
scalar OsgEarthNet.uav[36] utilizationCountManeuversMaintenance 2
scalar OsgEarthNet.uav[36] utilizationCountChargeState 1
scalar OsgEarthNet.uav[36] utilizationCountOverdrawnAfterMission 0
scalar OsgEarthNet.uav[36] utilizationCountIdleState 2
scalar OsgEarthNet.uav[36] utilizationFail 0
scalar OsgEarthNet.uav[36] simulationTime 259200
scalar OsgEarthNet.uav[37] utilizationSecMission 26685.002075949
scalar OsgEarthNet.uav[37] utilizationSecMaintenance 12478.241924802
scalar OsgEarthNet.uav[37] utilizationSecCharge 144570
scalar OsgEarthNet.uav[37] utilizationSecIdle 75466.75499925
scalar OsgEarthNet.uav[37] utilizationEnergyMission 122907.8914032
scalar OsgEarthNet.uav[37] utilizationEnergyMaintenance 59058.818345585
scalar OsgEarthNet.uav[37] utilizationEnergyCharge 180970.46142578
scalar OsgEarthNet.uav[37] utilizationEnergyOverdrawMission 0
scalar OsgEarthNet.uav[37] utilizationEnergyOverdrawMaintenance 0
scalar OsgEarthNet.uav[37] utilizationCountMissions 39
scalar OsgEarthNet.uav[37] utilizationCountManeuversMission 446
scalar OsgEarthNet.uav[37] utilizationCountManeuversMaintenance 79
scalar OsgEarthNet.uav[37] utilizationCountChargeState 39
scalar OsgEarthNet.uav[37] utilizationCountOverdrawnAfterMission 0
scalar OsgEarthNet.uav[37] utilizationCountIdleState 40
scalar OsgEarthNet.uav[37] utilizationFail 0
scalar OsgEarthNet.uav[37] simulationTime 259200
scalar OsgEarthNet.uav[38] utilizationSecMission 694.00169469977
scalar OsgEarthNet.uav[38] utilizationSecMaintenance 282.18572599206
scalar OsgEarthNet.uav[38] utilizationSecCharge 3620
scalar OsgEarthNet.uav[38] utilizationSecIdle 254603.81157931
scalar OsgEarthNet.uav[38] utilizationEnergyMission 3256.2634658813
scalar OsgEarthNet.uav[38] utilizationEnergyMaintenance 1257.9578475952
scalar OsgEarthNet.uav[38] utilizationEnergyCharge 4463.6040039062
scalar OsgEarthNet.uav[38] utilizationEnergyOverdrawMission 0
scalar OsgEarthNet.uav[38] utilizationEnergyOverdrawMaintenance 0
scalar OsgEarthNet.uav[38] utilizationCountMissions 1
scalar OsgEarthNet.uav[38] utilizationCountManeuversMission 13
scalar OsgEarthNet.uav[38] utilizationCountManeuversMaintenance 2
scalar OsgEarthNet.uav[38] utilizationCountChargeState 1
scalar OsgEarthNet.uav[38] utilizationCountOverdrawnAfterMission 0
scalar OsgEarthNet.uav[38] utilizationCountIdleState 2
scalar OsgEarthNet.uav[38] utilizationFail 0
scalar OsgEarthNet.uav[38] simulationTime 259200
scalar OsgEarthNet.uav[39] utilizationSecMission 760.62515258028
scalar OsgEarthNet.uav[39] utilizationSecMaintenance 291.95923480269
scalar OsgEarthNet.uav[39] utilizationSecCharge 3810
scalar OsgEarthNet.uav[39] utilizationSecIdle 254337.41461262
scalar OsgEarthNet.uav[39] utilizationEnergyMission 3491.5998840332
scalar OsgEarthNet.uav[39] utilizationEnergyMaintenance 1292.8388900757
scalar OsgEarthNet.uav[39] utilizationEnergyCharge 4784.4423828125
scalar OsgEarthNet.uav[39] utilizationEnergyOverdrawMission 0
scalar OsgEarthNet.uav[39] utilizationEnergyOverdrawMaintenance 0
scalar OsgEarthNet.uav[39] utilizationCountMissions 1
scalar OsgEarthNet.uav[39] utilizationCountManeuversMission 12
scalar OsgEarthNet.uav[39] utilizationCountManeuversMaintenance 2
scalar OsgEarthNet.uav[39] utilizationCountChargeState 1
scalar OsgEarthNet.uav[39] utilizationCountOverdrawnAfterMission 0
scalar OsgEarthNet.uav[39] utilizationCountIdleState 2
scalar OsgEarthNet.uav[39] utilizationFail 0
scalar OsgEarthNet.uav[39] simulationTime 259200
scalar OsgEarthNet.uav[40] utilizationSecMission 606.44898061421
scalar OsgEarthNet.uav[40] utilizationSecMaintenance 429.43253153929
scalar OsgEarthNet.uav[40] utilizationSecCharge 3970
scalar OsgEarthNet.uav[40] utilizationSecIdle 254194.11748785
scalar OsgEarthNet.uav[40] utilizationEnergyMission 3028.9497070313
scalar OsgEarthNet.uav[40] utilizationEnergyMaintenance 2017.295539856
scalar OsgEarthNet.uav[40] utilizationEnergyCharge 5046.248046875
scalar OsgEarthNet.uav[40] utilizationEnergyOverdrawMission 0
scalar OsgEarthNet.uav[40] utilizationEnergyOverdrawMaintenance 0
scalar OsgEarthNet.uav[40] utilizationCountMissions 1
scalar OsgEarthNet.uav[40] utilizationCountManeuversMission 9
scalar OsgEarthNet.uav[40] utilizationCountManeuversMaintenance 2
scalar OsgEarthNet.uav[40] utilizationCountChargeState 1
scalar OsgEarthNet.uav[40] utilizationCountOverdrawnAfterMission 0
scalar OsgEarthNet.uav[40] utilizationCountIdleState 2
scalar OsgEarthNet.uav[40] utilizationFail 0
scalar OsgEarthNet.uav[40] simulationTime 259200
scalar OsgEarthNet.uav[41] utilizationSecMission 27441.420734029
scalar OsgEarthNet.uav[41] utilizationSecMaintenance 14262.614832222
scalar OsgEarthNet.uav[41] utilizationSecCharge 151815.94510777
scalar OsgEarthNet.uav[41] utilizationSecIdle 65680.018325975
scalar OsgEarthNet.uav[41] utilizationEnergyMission 126284.13779068
scalar OsgEarthNet.uav[41] utilizationEnergyMaintenance 67553.581058502
scalar OsgEarthNet.uav[41] utilizationEnergyCharge 189803.5824585
scalar OsgEarthNet.uav[41] utilizationEnergyOverdrawMission 0
scalar OsgEarthNet.uav[41] utilizationEnergyOverdrawMaintenance 0
scalar OsgEarthNet.uav[41] utilizationCountMissions 42
scalar OsgEarthNet.uav[41] utilizationCountManeuversMission 443
scalar OsgEarthNet.uav[41] utilizationCountManeuversMaintenance 84
scalar OsgEarthNet.uav[41] utilizationCountChargeState 42
scalar OsgEarthNet.uav[41] utilizationCountOverdrawnAfterMission 0
scalar OsgEarthNet.uav[41] utilizationCountIdleState 42
scalar OsgEarthNet.uav[41] utilizationFail 0
scalar OsgEarthNet.uav[41] simulationTime 259200
scalar OsgEarthNet.uav[42] utilizationSecMission 4396.3709502541
scalar OsgEarthNet.uav[42] utilizationSecMaintenance 1452.1357914766
scalar OsgEarthNet.uav[42] utilizationSecCharge 21910
scalar OsgEarthNet.uav[42] utilizationSecIdle 231441.49225827
scalar OsgEarthNet.uav[42] utilizationEnergyMission 20420.159484863
scalar OsgEarthNet.uav[42] utilizationEnergyMaintenance 6866.9279251099
scalar OsgEarthNet.uav[42] utilizationEnergyCharge 27305.432128906
scalar OsgEarthNet.uav[42] utilizationEnergyOverdrawMission 0
scalar OsgEarthNet.uav[42] utilizationEnergyOverdrawMaintenance 0
scalar OsgEarthNet.uav[42] utilizationCountMissions 6
scalar OsgEarthNet.uav[42] utilizationCountManeuversMission 66
scalar OsgEarthNet.uav[42] utilizationCountManeuversMaintenance 12
scalar OsgEarthNet.uav[42] utilizationCountChargeState 6
scalar OsgEarthNet.uav[42] utilizationCountOverdrawnAfterMission 0
scalar OsgEarthNet.uav[42] utilizationCountIdleState 7
scalar OsgEarthNet.uav[42] utilizationFail 0
scalar OsgEarthNet.uav[42] simulationTime 259200
scalar OsgEarthNet.uav[43] utilizationSecMission 670.50650402609
scalar OsgEarthNet.uav[43] utilizationSecMaintenance 362.30145289341
scalar OsgEarthNet.uav[43] utilizationSecCharge 3890
scalar OsgEarthNet.uav[43] utilizationSecIdle 254277.19104308
scalar OsgEarthNet.uav[43] utilizationEnergyMission 3262.1473236084
scalar OsgEarthNet.uav[43] utilizationEnergyMaintenance 1713.0879020691
scalar OsgEarthNet.uav[43] utilizationEnergyCharge 4975.232421875
scalar OsgEarthNet.uav[43] utilizationEnergyOverdrawMission 0
scalar OsgEarthNet.uav[43] utilizationEnergyOverdrawMaintenance 0
scalar OsgEarthNet.uav[43] utilizationCountMissions 1
scalar OsgEarthNet.uav[43] utilizationCountManeuversMission 10
scalar OsgEarthNet.uav[43] utilizationCountManeuversMaintenance 2
scalar OsgEarthNet.uav[43] utilizationCountChargeState 1
scalar OsgEarthNet.uav[43] utilizationCountOverdrawnAfterMission 0
scalar OsgEarthNet.uav[43] utilizationCountIdleState 2
scalar OsgEarthNet.uav[43] utilizationFail 0
scalar OsgEarthNet.uav[43] simulationTime 259200
scalar OsgEarthNet.uav[44] utilizationSecMission 31536.8705183
scalar OsgEarthNet.uav[44] utilizationSecMaintenance 12787.837243056
scalar OsgEarthNet.uav[44] utilizationSecCharge 166030
scalar OsgEarthNet.uav[44] utilizationSecIdle 48845.291238644
scalar OsgEarthNet.uav[44] utilizationEnergyMission 146459.63645935
scalar OsgEarthNet.uav[44] utilizationEnergyMaintenance 60920.493740082
scalar OsgEarthNet.uav[44] utilizationEnergyCharge 207486.55175781
scalar OsgEarthNet.uav[44] utilizationEnergyOverdrawMission 0
scalar OsgEarthNet.uav[44] utilizationEnergyOverdrawMaintenance 0
scalar OsgEarthNet.uav[44] utilizationCountMissions 45
scalar OsgEarthNet.uav[44] utilizationCountManeuversMission 505
scalar OsgEarthNet.uav[44] utilizationCountManeuversMaintenance 89
scalar OsgEarthNet.uav[44] utilizationCountChargeState 45
scalar OsgEarthNet.uav[44] utilizationCountOverdrawnAfterMission 0
scalar OsgEarthNet.uav[44] utilizationCountIdleState 46
scalar OsgEarthNet.uav[44] utilizationFail 0
scalar OsgEarthNet.uav[44] simulationTime 259200
scalar OsgEarthNet.uav[45] utilizationSecMission 750.20472747826
scalar OsgEarthNet.uav[45] utilizationSecMaintenance 300.8347882699
scalar OsgEarthNet.uav[45] utilizationSecCharge 3850
scalar OsgEarthNet.uav[45] utilizationSecIdle 254298.95948425
scalar OsgEarthNet.uav[45] utilizationEnergyMission 3579.4039459229
scalar OsgEarthNet.uav[45] utilizationEnergyMaintenance 1331.0641593933
scalar OsgEarthNet.uav[45] utilizationEnergyCharge 4910.4643554688
scalar OsgEarthNet.uav[45] utilizationEnergyOverdrawMission 0
scalar OsgEarthNet.uav[45] utilizationEnergyOverdrawMaintenance 0
scalar OsgEarthNet.uav[45] utilizationCountMissions 1
scalar OsgEarthNet.uav[45] utilizationCountManeuversMission 11
scalar OsgEarthNet.uav[45] utilizationCountManeuversMaintenance 2
scalar OsgEarthNet.uav[45] utilizationCountChargeState 1
scalar OsgEarthNet.uav[45] utilizationCountOverdrawnAfterMission 0
scalar OsgEarthNet.uav[45] utilizationCountIdleState 2
scalar OsgEarthNet.uav[45] utilizationFail 0
scalar OsgEarthNet.uav[45] simulationTime 259200
scalar OsgEarthNet.uav[46] utilizationSecMission 26305.312684173
scalar OsgEarthNet.uav[46] utilizationSecMaintenance 12002.39689158
scalar OsgEarthNet.uav[46] utilizationSecCharge 138630.46768479
scalar OsgEarthNet.uav[46] utilizationSecIdle 82261.821739457
scalar OsgEarthNet.uav[46] utilizationEnergyMission 122328.15280151
scalar OsgEarthNet.uav[46] utilizationEnergyMaintenance 55031.462200165
scalar OsgEarthNet.uav[46] utilizationEnergyCharge 174121.99755859
scalar OsgEarthNet.uav[46] utilizationEnergyOverdrawMission 0
scalar OsgEarthNet.uav[46] utilizationEnergyOverdrawMaintenance 36.420997619629
scalar OsgEarthNet.uav[46] utilizationCountMissions 38
scalar OsgEarthNet.uav[46] utilizationCountManeuversMission 434
scalar OsgEarthNet.uav[46] utilizationCountManeuversMaintenance 76
scalar OsgEarthNet.uav[46] utilizationCountChargeState 38
scalar OsgEarthNet.uav[46] utilizationCountOverdrawnAfterMission 1
scalar OsgEarthNet.uav[46] utilizationCountIdleState 38
scalar OsgEarthNet.uav[46] utilizationFail 0
scalar OsgEarthNet.uav[46] simulationTime 259200
scalar OsgEarthNet.uav[47] utilizationSecMission 28665.658487877
scalar OsgEarthNet.uav[47] utilizationSecMaintenance 13013.713289519
scalar OsgEarthNet.uav[47] utilizationSecCharge 155193.31211486
scalar OsgEarthNet.uav[47] utilizationSecIdle 62327.315107746
scalar OsgEarthNet.uav[47] utilizationEnergyMission 134176.88244629
scalar OsgEarthNet.uav[47] utilizationEnergyMaintenance 61648.846927643
scalar OsgEarthNet.uav[47] utilizationEnergyCharge 195371.21923828
scalar OsgEarthNet.uav[47] utilizationEnergyOverdrawMission 0
scalar OsgEarthNet.uav[47] utilizationEnergyOverdrawMaintenance 0
scalar OsgEarthNet.uav[47] utilizationCountMissions 42
scalar OsgEarthNet.uav[47] utilizationCountManeuversMission 469
scalar OsgEarthNet.uav[47] utilizationCountManeuversMaintenance 84
scalar OsgEarthNet.uav[47] utilizationCountChargeState 42
scalar OsgEarthNet.uav[47] utilizationCountOverdrawnAfterMission 0
scalar OsgEarthNet.uav[47] utilizationCountIdleState 42
scalar OsgEarthNet.uav[47] utilizationFail 0
scalar OsgEarthNet.uav[47] simulationTime 259200
scalar OsgEarthNet.uav[48] utilizationSecMission 28359.983105957
scalar OsgEarthNet.uav[48] utilizationSecMaintenance 11281.969789001
scalar OsgEarthNet.uav[48] utilizationSecCharge 147550
scalar OsgEarthNet.uav[48] utilizationSecIdle 72008.046105042
scalar OsgEarthNet.uav[48] utilizationEnergyMission 131884.20152664
scalar OsgEarthNet.uav[48] utilizationEnergyMaintenance 52681.115856171
scalar OsgEarthNet.uav[48] utilizationEnergyCharge 183939.54101562
scalar OsgEarthNet.uav[48] utilizationEnergyOverdrawMission 0
scalar OsgEarthNet.uav[48] utilizationEnergyOverdrawMaintenance 0
scalar OsgEarthNet.uav[48] utilizationCountMissions 40
scalar OsgEarthNet.uav[48] utilizationCountManeuversMission 452
scalar OsgEarthNet.uav[48] utilizationCountManeuversMaintenance 80
scalar OsgEarthNet.uav[48] utilizationCountChargeState 40
scalar OsgEarthNet.uav[48] utilizationCountOverdrawnAfterMission 0
scalar OsgEarthNet.uav[48] utilizationCountIdleState 41
scalar OsgEarthNet.uav[48] utilizationFail 0
scalar OsgEarthNet.uav[48] simulationTime 259200
scalar OsgEarthNet.uav[49] utilizationSecMission 836.77707522227
scalar OsgEarthNet.uav[49] utilizationSecMaintenance 217.0347828456
scalar OsgEarthNet.uav[49] utilizationSecCharge 3920
scalar OsgEarthNet.uav[49] utilizationSecIdle 254226.18714193
scalar OsgEarthNet.uav[49] utilizationEnergyMission 3881.911895752
scalar OsgEarthNet.uav[49] utilizationEnergyMaintenance 1141.4928092957
scalar OsgEarthNet.uav[49] utilizationEnergyCharge 5023.4018554688
scalar OsgEarthNet.uav[49] utilizationEnergyOverdrawMission 0
scalar OsgEarthNet.uav[49] utilizationEnergyOverdrawMaintenance 0
scalar OsgEarthNet.uav[49] utilizationCountMissions 1
scalar OsgEarthNet.uav[49] utilizationCountManeuversMission 13
scalar OsgEarthNet.uav[49] utilizationCountManeuversMaintenance 2
scalar OsgEarthNet.uav[49] utilizationCountChargeState 1
scalar OsgEarthNet.uav[49] utilizationCountOverdrawnAfterMission 0
scalar OsgEarthNet.uav[49] utilizationCountIdleState 2
scalar OsgEarthNet.uav[49] utilizationFail 0
scalar OsgEarthNet.uav[49] simulationTime 259200
scalar OsgEarthNet.uav[50] utilizationSecMission 26855.362190502
scalar OsgEarthNet.uav[50] utilizationSecMaintenance 15060.020550832
scalar OsgEarthNet.uav[50] utilizationSecCharge 156601.36393709
scalar OsgEarthNet.uav[50] utilizationSecIdle 60683.252321579
scalar OsgEarthNet.uav[50] utilizationEnergyMission 123717.61733627
scalar OsgEarthNet.uav[50] utilizationEnergyMaintenance 71525.149612427
scalar OsgEarthNet.uav[50] utilizationEnergyCharge 195082.40698242
scalar OsgEarthNet.uav[50] utilizationEnergyOverdrawMission 0
scalar OsgEarthNet.uav[50] utilizationEnergyOverdrawMaintenance 0
scalar OsgEarthNet.uav[50] utilizationCountMissions 43
scalar OsgEarthNet.uav[50] utilizationCountManeuversMission 451
scalar OsgEarthNet.uav[50] utilizationCountManeuversMaintenance 86
scalar OsgEarthNet.uav[50] utilizationCountChargeState 43
scalar OsgEarthNet.uav[50] utilizationCountOverdrawnAfterMission 0
scalar OsgEarthNet.uav[50] utilizationCountIdleState 43
scalar OsgEarthNet.uav[50] utilizationFail 0
scalar OsgEarthNet.uav[50] simulationTime 259200
scalar OsgEarthNet.uav[51] utilizationSecMission 29778.275362252
scalar OsgEarthNet.uav[51] utilizationSecMaintenance 14214.946649786
scalar OsgEarthNet.uav[51] utilizationSecCharge 162690
scalar OsgEarthNet.uav[51] utilizationSecIdle 52516.776987962
scalar OsgEarthNet.uav[51] utilizationEnergyMission 137663.65923691
scalar OsgEarthNet.uav[51] utilizationEnergyMaintenance 66599.282142639
scalar OsgEarthNet.uav[51] utilizationEnergyCharge 203628.23632812
scalar OsgEarthNet.uav[51] utilizationEnergyOverdrawMission 0
scalar OsgEarthNet.uav[51] utilizationEnergyOverdrawMaintenance 0
scalar OsgEarthNet.uav[51] utilizationCountMissions 44
scalar OsgEarthNet.uav[51] utilizationCountManeuversMission 504
scalar OsgEarthNet.uav[51] utilizationCountManeuversMaintenance 88
scalar OsgEarthNet.uav[51] utilizationCountChargeState 44
scalar OsgEarthNet.uav[51] utilizationCountOverdrawnAfterMission 0
scalar OsgEarthNet.uav[51] utilizationCountIdleState 45
scalar OsgEarthNet.uav[51] utilizationFail 0
scalar OsgEarthNet.uav[51] simulationTime 259200
scalar OsgEarthNet.uav[52] utilizationSecMission 5869.9110975844
scalar OsgEarthNet.uav[52] utilizationSecMaintenance 2217.031820382
scalar OsgEarthNet.uav[52] utilizationSecCharge 29780
scalar OsgEarthNet.uav[52] utilizationSecIdle 221333.05608203
scalar OsgEarthNet.uav[52] utilizationEnergyMission 26662.114517212
scalar OsgEarthNet.uav[52] utilizationEnergyMaintenance 10397.59431076
scalar OsgEarthNet.uav[52] utilizationEnergyCharge 37329.121582031
scalar OsgEarthNet.uav[52] utilizationEnergyOverdrawMission 0
scalar OsgEarthNet.uav[52] utilizationEnergyOverdrawMaintenance 0
scalar OsgEarthNet.uav[52] utilizationCountMissions 8
scalar OsgEarthNet.uav[52] utilizationCountManeuversMission 92
scalar OsgEarthNet.uav[52] utilizationCountManeuversMaintenance 16
scalar OsgEarthNet.uav[52] utilizationCountChargeState 8
scalar OsgEarthNet.uav[52] utilizationCountOverdrawnAfterMission 0
scalar OsgEarthNet.uav[52] utilizationCountIdleState 9
scalar OsgEarthNet.uav[52] utilizationFail 0
scalar OsgEarthNet.uav[52] simulationTime 259200
scalar OsgEarthNet.uav[53] utilizationSecMission 31358.993184833
scalar OsgEarthNet.uav[53] utilizationSecMaintenance 13019.005815167
scalar OsgEarthNet.uav[53] utilizationSecCharge 164460
scalar OsgEarthNet.uav[53] utilizationSecIdle 50362
scalar OsgEarthNet.uav[53] utilizationEnergyMission 145234.0923233
scalar OsgEarthNet.uav[53] utilizationEnergyMaintenance 60669.248249835
scalar OsgEarthNet.uav[53] utilizationEnergyCharge 205918.21557617
scalar OsgEarthNet.uav[53] utilizationEnergyOverdrawMission 0
scalar OsgEarthNet.uav[53] utilizationEnergyOverdrawMaintenance 0
scalar OsgEarthNet.uav[53] utilizationCountMissions 44
scalar OsgEarthNet.uav[53] utilizationCountManeuversMission 499
scalar OsgEarthNet.uav[53] utilizationCountManeuversMaintenance 88
scalar OsgEarthNet.uav[53] utilizationCountChargeState 44
scalar OsgEarthNet.uav[53] utilizationCountOverdrawnAfterMission 0
scalar OsgEarthNet.uav[53] utilizationCountIdleState 45
scalar OsgEarthNet.uav[53] utilizationFail 0
scalar OsgEarthNet.uav[53] simulationTime 259200
scalar OsgEarthNet.uav[54] utilizationSecMission 29534.109591592
scalar OsgEarthNet.uav[54] utilizationSecMaintenance 12626.830392529
scalar OsgEarthNet.uav[54] utilizationSecCharge 155644.29080962
scalar OsgEarthNet.uav[54] utilizationSecIdle 61394.768206261
scalar OsgEarthNet.uav[54] utilizationEnergyMission 137595.66674805
scalar OsgEarthNet.uav[54] utilizationEnergyMaintenance 59903.972568512
scalar OsgEarthNet.uav[54] utilizationEnergyCharge 194460.28588867
scalar OsgEarthNet.uav[54] utilizationEnergyOverdrawMission 0
scalar OsgEarthNet.uav[54] utilizationEnergyOverdrawMaintenance 0
scalar OsgEarthNet.uav[54] utilizationCountMissions 43
scalar OsgEarthNet.uav[54] utilizationCountManeuversMission 477
scalar OsgEarthNet.uav[54] utilizationCountManeuversMaintenance 86
scalar OsgEarthNet.uav[54] utilizationCountChargeState 43
scalar OsgEarthNet.uav[54] utilizationCountOverdrawnAfterMission 0
scalar OsgEarthNet.uav[54] utilizationCountIdleState 43
scalar OsgEarthNet.uav[54] utilizationFail 0
scalar OsgEarthNet.uav[54] simulationTime 259200
scalar OsgEarthNet.uav[55] utilizationSecMission 24511.835885692
scalar OsgEarthNet.uav[55] utilizationSecMaintenance 9982.3509671774
scalar OsgEarthNet.uav[55] utilizationSecCharge 129200
scalar OsgEarthNet.uav[55] utilizationSecIdle 95505.812147131
scalar OsgEarthNet.uav[55] utilizationEnergyMission 114682.01610565
scalar OsgEarthNet.uav[55] utilizationEnergyMaintenance 46770.524494171
scalar OsgEarthNet.uav[55] utilizationEnergyCharge 161281.84375
scalar OsgEarthNet.uav[55] utilizationEnergyOverdrawMission 0
scalar OsgEarthNet.uav[55] utilizationEnergyOverdrawMaintenance 0
scalar OsgEarthNet.uav[55] utilizationCountMissions 35
scalar OsgEarthNet.uav[55] utilizationCountManeuversMission 398
scalar OsgEarthNet.uav[55] utilizationCountManeuversMaintenance 70
scalar OsgEarthNet.uav[55] utilizationCountChargeState 35
scalar OsgEarthNet.uav[55] utilizationCountOverdrawnAfterMission 0
scalar OsgEarthNet.uav[55] utilizationCountIdleState 36
scalar OsgEarthNet.uav[55] utilizationFail 0
scalar OsgEarthNet.uav[55] simulationTime 259200
scalar OsgEarthNet.uav[56] utilizationSecMission 684.4732299383
scalar OsgEarthNet.uav[56] utilizationSecMaintenance 298.56834692969
scalar OsgEarthNet.uav[56] utilizationSecCharge 3780
scalar OsgEarthNet.uav[56] utilizationSecIdle 254436.95742313
scalar OsgEarthNet.uav[56] utilizationEnergyMission 3242.1834793091
scalar OsgEarthNet.uav[56] utilizationEnergyMaintenance 1507.2519760132
scalar OsgEarthNet.uav[56] utilizationEnergyCharge 4749.4375
scalar OsgEarthNet.uav[56] utilizationEnergyOverdrawMission 0
scalar OsgEarthNet.uav[56] utilizationEnergyOverdrawMaintenance 0
scalar OsgEarthNet.uav[56] utilizationCountMissions 1
scalar OsgEarthNet.uav[56] utilizationCountManeuversMission 11
scalar OsgEarthNet.uav[56] utilizationCountManeuversMaintenance 2
scalar OsgEarthNet.uav[56] utilizationCountChargeState 1
scalar OsgEarthNet.uav[56] utilizationCountOverdrawnAfterMission 0
scalar OsgEarthNet.uav[56] utilizationCountIdleState 2
scalar OsgEarthNet.uav[56] utilizationFail 0
scalar OsgEarthNet.uav[56] simulationTime 259200
scalar OsgEarthNet.uav[57] utilizationSecMission 655.55330183502
scalar OsgEarthNet.uav[57] utilizationSecMaintenance 334.5505930207
scalar OsgEarthNet.uav[57] utilizationSecCharge 3750
scalar OsgEarthNet.uav[57] utilizationSecIdle 254459.89510514
scalar OsgEarthNet.uav[57] utilizationEnergyMission 2942.4920501709
scalar OsgEarthNet.uav[57] utilizationEnergyMaintenance 1730.3819694519
scalar OsgEarthNet.uav[57] utilizationEnergyCharge 4672.8706054688
scalar OsgEarthNet.uav[57] utilizationEnergyOverdrawMission 0
scalar OsgEarthNet.uav[57] utilizationEnergyOverdrawMaintenance 0
scalar OsgEarthNet.uav[57] utilizationCountMissions 1
scalar OsgEarthNet.uav[57] utilizationCountManeuversMission 10
scalar OsgEarthNet.uav[57] utilizationCountManeuversMaintenance 2
scalar OsgEarthNet.uav[57] utilizationCountChargeState 1
scalar OsgEarthNet.uav[57] utilizationCountOverdrawnAfterMission 0
scalar OsgEarthNet.uav[57] utilizationCountIdleState 2
scalar OsgEarthNet.uav[57] utilizationFail 0
scalar OsgEarthNet.uav[57] simulationTime 259200
scalar OsgEarthNet.uav[58] utilizationSecMission 887.1741082606
scalar OsgEarthNet.uav[58] utilizationSecMaintenance 148.2728194454
scalar OsgEarthNet.uav[58] utilizationSecCharge 3830
scalar OsgEarthNet.uav[58] utilizationSecIdle 254334.55207229
scalar OsgEarthNet.uav[58] utilizationEnergyMission 4303.4600524902
scalar OsgEarthNet.uav[58] utilizationEnergyMaintenance 679.53615570068
scalar OsgEarthNet.uav[58] utilizationEnergyCharge 4856.2143554688
scalar OsgEarthNet.uav[58] utilizationEnergyOverdrawMission 0
scalar OsgEarthNet.uav[58] utilizationEnergyOverdrawMaintenance 0
scalar OsgEarthNet.uav[58] utilizationCountMissions 1
scalar OsgEarthNet.uav[58] utilizationCountManeuversMission 14
scalar OsgEarthNet.uav[58] utilizationCountManeuversMaintenance 2
scalar OsgEarthNet.uav[58] utilizationCountChargeState 1
scalar OsgEarthNet.uav[58] utilizationCountOverdrawnAfterMission 0
scalar OsgEarthNet.uav[58] utilizationCountIdleState 2
scalar OsgEarthNet.uav[58] utilizationFail 0
scalar OsgEarthNet.uav[58] simulationTime 259200
scalar OsgEarthNet.uav[59] utilizationSecMission 684.4732299383
scalar OsgEarthNet.uav[59] utilizationSecMaintenance 298.56834692969
scalar OsgEarthNet.uav[59] utilizationSecCharge 3820
scalar OsgEarthNet.uav[59] utilizationSecIdle 254396.95742313
scalar OsgEarthNet.uav[59] utilizationEnergyMission 3322.0940246582
scalar OsgEarthNet.uav[59] utilizationEnergyMaintenance 1475.3133773804
scalar OsgEarthNet.uav[59] utilizationEnergyCharge 4797.408203125
scalar OsgEarthNet.uav[59] utilizationEnergyOverdrawMission 0
scalar OsgEarthNet.uav[59] utilizationEnergyOverdrawMaintenance 0
scalar OsgEarthNet.uav[59] utilizationCountMissions 1
scalar OsgEarthNet.uav[59] utilizationCountManeuversMission 11
scalar OsgEarthNet.uav[59] utilizationCountManeuversMaintenance 2
scalar OsgEarthNet.uav[59] utilizationCountChargeState 1
scalar OsgEarthNet.uav[59] utilizationCountOverdrawnAfterMission 0
scalar OsgEarthNet.uav[59] utilizationCountIdleState 2
scalar OsgEarthNet.uav[59] utilizationFail 0
scalar OsgEarthNet.uav[59] simulationTime 259200
scalar OsgEarthNet.uav[60] utilizationSecMission 28457.857279393
scalar OsgEarthNet.uav[60] utilizationSecMaintenance 13072.683038923
scalar OsgEarthNet.uav[60] utilizationSecCharge 154906.83252089
scalar OsgEarthNet.uav[60] utilizationSecIdle 62762.626160789
scalar OsgEarthNet.uav[60] utilizationEnergyMission 131255.88452911
scalar OsgEarthNet.uav[60] utilizationEnergyMaintenance 61543.2423172
scalar OsgEarthNet.uav[60] utilizationEnergyCharge 193624.88818359
scalar OsgEarthNet.uav[60] utilizationEnergyOverdrawMission 0
scalar OsgEarthNet.uav[60] utilizationEnergyOverdrawMaintenance 0
scalar OsgEarthNet.uav[60] utilizationCountMissions 42
scalar OsgEarthNet.uav[60] utilizationCountManeuversMission 476
scalar OsgEarthNet.uav[60] utilizationCountManeuversMaintenance 84
scalar OsgEarthNet.uav[60] utilizationCountChargeState 42
scalar OsgEarthNet.uav[60] utilizationCountOverdrawnAfterMission 0
scalar OsgEarthNet.uav[60] utilizationCountIdleState 42
scalar OsgEarthNet.uav[60] utilizationFail 0
scalar OsgEarthNet.uav[60] simulationTime 259200
scalar OsgEarthNet.uav[61] utilizationSecMission 20604.288855716
scalar OsgEarthNet.uav[61] utilizationSecMaintenance 10583.638367788
scalar OsgEarthNet.uav[61] utilizationSecCharge 115040
scalar OsgEarthNet.uav[61] utilizationSecIdle 112972.0717765
scalar OsgEarthNet.uav[61] utilizationEnergyMission 94988.840827942
scalar OsgEarthNet.uav[61] utilizationEnergyMaintenance 49363.323352814
scalar OsgEarthNet.uav[61] utilizationEnergyCharge 143661.55029297
scalar OsgEarthNet.uav[61] utilizationEnergyOverdrawMission 0
scalar OsgEarthNet.uav[61] utilizationEnergyOverdrawMaintenance 0
scalar OsgEarthNet.uav[61] utilizationCountMissions 31
scalar OsgEarthNet.uav[61] utilizationCountManeuversMission 342
scalar OsgEarthNet.uav[61] utilizationCountManeuversMaintenance 62
scalar OsgEarthNet.uav[61] utilizationCountChargeState 31
scalar OsgEarthNet.uav[61] utilizationCountOverdrawnAfterMission 0
scalar OsgEarthNet.uav[61] utilizationCountIdleState 32
scalar OsgEarthNet.uav[61] utilizationFail 0
scalar OsgEarthNet.uav[61] simulationTime 259200
scalar OsgEarthNet.uav[62] utilizationSecMission 24972.734693489
scalar OsgEarthNet.uav[62] utilizationSecMaintenance 11273.433037366
scalar OsgEarthNet.uav[62] utilizationSecCharge 131821.09233967
scalar OsgEarthNet.uav[62] utilizationSecIdle 91132.738929478
scalar OsgEarthNet.uav[62] utilizationEnergyMission 115304.62538147
scalar OsgEarthNet.uav[62] utilizationEnergyMaintenance 52376.425598145
scalar OsgEarthNet.uav[62] utilizationEnergyCharge 166063.94921875
scalar OsgEarthNet.uav[62] utilizationEnergyOverdrawMission 0
scalar OsgEarthNet.uav[62] utilizationEnergyOverdrawMaintenance 0
scalar OsgEarthNet.uav[62] utilizationCountMissions 36
scalar OsgEarthNet.uav[62] utilizationCountManeuversMission 401
scalar OsgEarthNet.uav[62] utilizationCountManeuversMaintenance 72
scalar OsgEarthNet.uav[62] utilizationCountChargeState 36
scalar OsgEarthNet.uav[62] utilizationCountOverdrawnAfterMission 0
scalar OsgEarthNet.uav[62] utilizationCountIdleState 36
scalar OsgEarthNet.uav[62] utilizationFail 0
scalar OsgEarthNet.uav[62] simulationTime 259200
scalar OsgEarthNet.uav[63] utilizationSecMission 684.4732299383
scalar OsgEarthNet.uav[63] utilizationSecMaintenance 298.56834692969
scalar OsgEarthNet.uav[63] utilizationSecCharge 3880
scalar OsgEarthNet.uav[63] utilizationSecIdle 254336.95742313
scalar OsgEarthNet.uav[63] utilizationEnergyMission 3390.5391693115
scalar OsgEarthNet.uav[63] utilizationEnergyMaintenance 1537.5504989624
scalar OsgEarthNet.uav[63] utilizationEnergyCharge 4928.0888671875
scalar OsgEarthNet.uav[63] utilizationEnergyOverdrawMission 0
scalar OsgEarthNet.uav[63] utilizationEnergyOverdrawMaintenance 0
scalar OsgEarthNet.uav[63] utilizationCountMissions 1
scalar OsgEarthNet.uav[63] utilizationCountManeuversMission 11
scalar OsgEarthNet.uav[63] utilizationCountManeuversMaintenance 2
scalar OsgEarthNet.uav[63] utilizationCountChargeState 1
scalar OsgEarthNet.uav[63] utilizationCountOverdrawnAfterMission 0
scalar OsgEarthNet.uav[63] utilizationCountIdleState 2
scalar OsgEarthNet.uav[63] utilizationFail 0
scalar OsgEarthNet.uav[63] simulationTime 259200
scalar OsgEarthNet.uav[64] utilizationSecMission 29180.61017074
scalar OsgEarthNet.uav[64] utilizationSecMaintenance 13180.757046887
scalar OsgEarthNet.uav[64] utilizationSecCharge 157860.17550519
scalar OsgEarthNet.uav[64] utilizationSecIdle 58978.456277181
scalar OsgEarthNet.uav[64] utilizationEnergyMission 134875.83119965
scalar OsgEarthNet.uav[64] utilizationEnergyMaintenance 61986.468799591
scalar OsgEarthNet.uav[64] utilizationEnergyCharge 197028.73193359
scalar OsgEarthNet.uav[64] utilizationEnergyOverdrawMission 0
scalar OsgEarthNet.uav[64] utilizationEnergyOverdrawMaintenance 0
scalar OsgEarthNet.uav[64] utilizationCountMissions 43
scalar OsgEarthNet.uav[64] utilizationCountManeuversMission 477
scalar OsgEarthNet.uav[64] utilizationCountManeuversMaintenance 86
scalar OsgEarthNet.uav[64] utilizationCountChargeState 43
scalar OsgEarthNet.uav[64] utilizationCountOverdrawnAfterMission 0
scalar OsgEarthNet.uav[64] utilizationCountIdleState 43
scalar OsgEarthNet.uav[64] utilizationFail 0
scalar OsgEarthNet.uav[64] simulationTime 259200
scalar OsgEarthNet.uav[65] utilizationSecMission 19933.463328821
scalar OsgEarthNet.uav[65] utilizationSecMaintenance 7919.8390531141
scalar OsgEarthNet.uav[65] utilizationSecCharge 103740
scalar OsgEarthNet.uav[65] utilizationSecIdle 127606.69661807
[...]
scalar OsgEarthNet.uav[82] utilizationSecIdle 68739.175110411
scalar OsgEarthNet.uav[82] utilizationEnergyMission 128515.54701996
scalar OsgEarthNet.uav[82] utilizationEnergyMaintenance 59571.509471893
scalar OsgEarthNet.uav[82] utilizationEnergyCharge 187078.56787109
scalar OsgEarthNet.uav[82] utilizationEnergyOverdrawMission 0
scalar OsgEarthNet.uav[82] utilizationEnergyOverdrawMaintenance 0
scalar OsgEarthNet.uav[82] utilizationCountMissions 41
scalar OsgEarthNet.uav[82] utilizationCountManeuversMission 446
scalar OsgEarthNet.uav[82] utilizationCountManeuversMaintenance 82
scalar OsgEarthNet.uav[82] utilizationCountChargeState 41
scalar OsgEarthNet.uav[82] utilizationCountOverdrawnAfterMission 0
scalar OsgEarthNet.uav[82] utilizationCountIdleState 41
scalar OsgEarthNet.uav[82] utilizationFail 0
scalar OsgEarthNet.uav[82] simulationTime 259200
scalar OsgEarthNet.uav[83] utilizationSecMission 836.77707522227
scalar OsgEarthNet.uav[83] utilizationSecMaintenance 217.0347828456
scalar OsgEarthNet.uav[83] utilizationSecCharge 3780
scalar OsgEarthNet.uav[83] utilizationSecIdle 254366.18714193
scalar OsgEarthNet.uav[83] utilizationEnergyMission 3575.518371582
scalar OsgEarthNet.uav[83] utilizationEnergyMaintenance 1142.7490959167
scalar OsgEarthNet.uav[83] utilizationEnergyCharge 4718.2700195312
scalar OsgEarthNet.uav[83] utilizationEnergyOverdrawMission 0
scalar OsgEarthNet.uav[83] utilizationEnergyOverdrawMaintenance 0
scalar OsgEarthNet.uav[83] utilizationCountMissions 1
scalar OsgEarthNet.uav[83] utilizationCountManeuversMission 13
scalar OsgEarthNet.uav[83] utilizationCountManeuversMaintenance 2
scalar OsgEarthNet.uav[83] utilizationCountChargeState 1
scalar OsgEarthNet.uav[83] utilizationCountOverdrawnAfterMission 0
scalar OsgEarthNet.uav[83] utilizationCountIdleState 2
scalar OsgEarthNet.uav[83] utilizationFail 0
scalar OsgEarthNet.uav[83] simulationTime 259200
scalar OsgEarthNet.uav[84] utilizationSecMission 25959.20374189
scalar OsgEarthNet.uav[84] utilizationSecMaintenance 11911.481783257
scalar OsgEarthNet.uav[84] utilizationSecCharge 141080
scalar OsgEarthNet.uav[84] utilizationSecIdle 80249.313474853
scalar OsgEarthNet.uav[84] utilizationEnergyMission 120615.88354492
scalar OsgEarthNet.uav[84] utilizationEnergyMaintenance 56531.836235046
scalar OsgEarthNet.uav[84] utilizationEnergyCharge 176665.80957031
scalar OsgEarthNet.uav[84] utilizationEnergyOverdrawMission 0
scalar OsgEarthNet.uav[84] utilizationEnergyOverdrawMaintenance 0
scalar OsgEarthNet.uav[84] utilizationCountMissions 38
scalar OsgEarthNet.uav[84] utilizationCountManeuversMission 425
scalar OsgEarthNet.uav[84] utilizationCountManeuversMaintenance 76
scalar OsgEarthNet.uav[84] utilizationCountChargeState 38
scalar OsgEarthNet.uav[84] utilizationCountOverdrawnAfterMission 0
scalar OsgEarthNet.uav[84] utilizationCountIdleState 39
scalar OsgEarthNet.uav[84] utilizationFail 0
scalar OsgEarthNet.uav[84] simulationTime 259200
scalar OsgEarthNet.uav[85] utilizationSecMission 694.00169469977
scalar OsgEarthNet.uav[85] utilizationSecMaintenance 282.18572599206
scalar OsgEarthNet.uav[85] utilizationSecCharge 3850
scalar OsgEarthNet.uav[85] utilizationSecIdle 254373.81157931
scalar OsgEarthNet.uav[85] utilizationEnergyMission 3454.8506164551
scalar OsgEarthNet.uav[85] utilizationEnergyMaintenance 1401.6642684937
scalar OsgEarthNet.uav[85] utilizationEnergyCharge 4856.5166015625
scalar OsgEarthNet.uav[85] utilizationEnergyOverdrawMission 0
scalar OsgEarthNet.uav[85] utilizationEnergyOverdrawMaintenance 0
scalar OsgEarthNet.uav[85] utilizationCountMissions 1
scalar OsgEarthNet.uav[85] utilizationCountManeuversMission 13
scalar OsgEarthNet.uav[85] utilizationCountManeuversMaintenance 2
scalar OsgEarthNet.uav[85] utilizationCountChargeState 1
scalar OsgEarthNet.uav[85] utilizationCountOverdrawnAfterMission 0
scalar OsgEarthNet.uav[85] utilizationCountIdleState 2
scalar OsgEarthNet.uav[85] utilizationFail 0
scalar OsgEarthNet.uav[85] simulationTime 259200
scalar OsgEarthNet.uav[86] utilizationSecMission 19899.58597863
scalar OsgEarthNet.uav[86] utilizationSecMaintenance 8474.1505779277
scalar OsgEarthNet.uav[86] utilizationSecCharge 102230
scalar OsgEarthNet.uav[86] utilizationSecIdle 128596.26244344
scalar OsgEarthNet.uav[86] utilizationEnergyMission 90963.736175537
scalar OsgEarthNet.uav[86] utilizationEnergyMaintenance 39851.314937215
scalar OsgEarthNet.uav[86] utilizationEnergyCharge 126999.59716797
scalar OsgEarthNet.uav[86] utilizationEnergyOverdrawMission 0
scalar OsgEarthNet.uav[86] utilizationEnergyOverdrawMaintenance 0
scalar OsgEarthNet.uav[86] utilizationCountMissions 29
scalar OsgEarthNet.uav[86] utilizationCountManeuversMission 324
scalar OsgEarthNet.uav[86] utilizationCountManeuversMaintenance 58
scalar OsgEarthNet.uav[86] utilizationCountChargeState 28
scalar OsgEarthNet.uav[86] utilizationCountOverdrawnAfterMission 0
scalar OsgEarthNet.uav[86] utilizationCountIdleState 29
scalar OsgEarthNet.uav[86] utilizationFail 0
scalar OsgEarthNet.uav[86] simulationTime 259200
scalar OsgEarthNet.uav[87] utilizationSecMission 15309.042055937
scalar OsgEarthNet.uav[87] utilizationSecMaintenance 6908.2215946271
scalar OsgEarthNet.uav[87] utilizationSecCharge 83370
scalar OsgEarthNet.uav[87] utilizationSecIdle 153612.73534944
scalar OsgEarthNet.uav[87] utilizationEnergyMission 69990.899162292
scalar OsgEarthNet.uav[87] utilizationEnergyMaintenance 33324.198551178
scalar OsgEarthNet.uav[87] utilizationEnergyCharge 103372.49975586
scalar OsgEarthNet.uav[87] utilizationEnergyOverdrawMission 0
scalar OsgEarthNet.uav[87] utilizationEnergyOverdrawMaintenance 0
scalar OsgEarthNet.uav[87] utilizationCountMissions 23
scalar OsgEarthNet.uav[87] utilizationCountManeuversMission 255
scalar OsgEarthNet.uav[87] utilizationCountManeuversMaintenance 46
scalar OsgEarthNet.uav[87] utilizationCountChargeState 23
scalar OsgEarthNet.uav[87] utilizationCountOverdrawnAfterMission 0
scalar OsgEarthNet.uav[87] utilizationCountIdleState 24
scalar OsgEarthNet.uav[87] utilizationFail 0
scalar OsgEarthNet.uav[87] simulationTime 259200
scalar OsgEarthNet.uav[88] utilizationSecMission 24906.939551377
scalar OsgEarthNet.uav[88] utilizationSecMaintenance 12670.115825078
scalar OsgEarthNet.uav[88] utilizationSecCharge 138751.49066483
scalar OsgEarthNet.uav[88] utilizationSecIdle 82871.452958717
scalar OsgEarthNet.uav[88] utilizationEnergyMission 114573.62543488
scalar OsgEarthNet.uav[88] utilizationEnergyMaintenance 59826.98166275
scalar OsgEarthNet.uav[88] utilizationEnergyCharge 174090.13061523
scalar OsgEarthNet.uav[88] utilizationEnergyOverdrawMission 0
scalar OsgEarthNet.uav[88] utilizationEnergyOverdrawMaintenance 0
scalar OsgEarthNet.uav[88] utilizationCountMissions 38
scalar OsgEarthNet.uav[88] utilizationCountManeuversMission 415
scalar OsgEarthNet.uav[88] utilizationCountManeuversMaintenance 76
scalar OsgEarthNet.uav[88] utilizationCountChargeState 38
scalar OsgEarthNet.uav[88] utilizationCountOverdrawnAfterMission 0
scalar OsgEarthNet.uav[88] utilizationCountIdleState 38
scalar OsgEarthNet.uav[88] utilizationFail 0
scalar OsgEarthNet.uav[88] simulationTime 259200
scalar OsgEarthNet.uav[89] utilizationSecMission 750.20472747826
scalar OsgEarthNet.uav[89] utilizationSecMaintenance 335.16822070369
scalar OsgEarthNet.uav[89] utilizationSecCharge 3900
scalar OsgEarthNet.uav[89] utilizationSecIdle 254214.62605182
scalar OsgEarthNet.uav[89] utilizationEnergyMission 3342.7486419678
scalar OsgEarthNet.uav[89] utilizationEnergyMaintenance 1631.1938591003
scalar OsgEarthNet.uav[89] utilizationEnergyCharge 4973.9384765625
scalar OsgEarthNet.uav[89] utilizationEnergyOverdrawMission 0
scalar OsgEarthNet.uav[89] utilizationEnergyOverdrawMaintenance 0
scalar OsgEarthNet.uav[89] utilizationCountMissions 1
scalar OsgEarthNet.uav[89] utilizationCountManeuversMission 11
scalar OsgEarthNet.uav[89] utilizationCountManeuversMaintenance 2
scalar OsgEarthNet.uav[89] utilizationCountChargeState 1
scalar OsgEarthNet.uav[89] utilizationCountOverdrawnAfterMission 0
scalar OsgEarthNet.uav[89] utilizationCountIdleState 2
scalar OsgEarthNet.uav[89] utilizationFail 0
scalar OsgEarthNet.uav[89] simulationTime 259200
scalar OsgEarthNet.uav[90] utilizationSecMission 623.68863475643
scalar OsgEarthNet.uav[90] utilizationSecMaintenance 394.94199877579
scalar OsgEarthNet.uav[90] utilizationSecCharge 3760
scalar OsgEarthNet.uav[90] utilizationSecIdle 254421.36836647
scalar OsgEarthNet.uav[90] utilizationEnergyMission 2642.0591583252
scalar OsgEarthNet.uav[90] utilizationEnergyMaintenance 1897.9705734253
scalar OsgEarthNet.uav[90] utilizationEnergyCharge 4700.1088867188
scalar OsgEarthNet.uav[90] utilizationEnergyOverdrawMission 0
scalar OsgEarthNet.uav[90] utilizationEnergyOverdrawMaintenance 0
scalar OsgEarthNet.uav[90] utilizationCountMissions 1
scalar OsgEarthNet.uav[90] utilizationCountManeuversMission 10
scalar OsgEarthNet.uav[90] utilizationCountManeuversMaintenance 2
scalar OsgEarthNet.uav[90] utilizationCountChargeState 1
scalar OsgEarthNet.uav[90] utilizationCountOverdrawnAfterMission 0
scalar OsgEarthNet.uav[90] utilizationCountIdleState 2
scalar OsgEarthNet.uav[90] utilizationFail 0
scalar OsgEarthNet.uav[90] simulationTime 259200
scalar OsgEarthNet.uav[91] utilizationSecMission 528.55000878666
scalar OsgEarthNet.uav[91] utilizationSecMaintenance 478.92797493542
scalar OsgEarthNet.uav[91] utilizationSecCharge 3490
scalar OsgEarthNet.uav[91] utilizationSecIdle 254702.52101628
scalar OsgEarthNet.uav[91] utilizationEnergyMission 2074.2074737549
scalar OsgEarthNet.uav[91] utilizationEnergyMaintenance 2169.3899154663
scalar OsgEarthNet.uav[91] utilizationEnergyCharge 4243.595703125
scalar OsgEarthNet.uav[91] utilizationEnergyOverdrawMission 0
scalar OsgEarthNet.uav[91] utilizationEnergyOverdrawMaintenance 0
scalar OsgEarthNet.uav[91] utilizationCountMissions 1
scalar OsgEarthNet.uav[91] utilizationCountManeuversMission 10
scalar OsgEarthNet.uav[91] utilizationCountManeuversMaintenance 2
scalar OsgEarthNet.uav[91] utilizationCountChargeState 1
scalar OsgEarthNet.uav[91] utilizationCountOverdrawnAfterMission 0
scalar OsgEarthNet.uav[91] utilizationCountIdleState 2
scalar OsgEarthNet.uav[91] utilizationFail 0
scalar OsgEarthNet.uav[91] simulationTime 259200
scalar OsgEarthNet.uav[92] utilizationSecMission 31256.009537962
scalar OsgEarthNet.uav[92] utilizationSecMaintenance 11613.562362782
scalar OsgEarthNet.uav[92] utilizationSecCharge 155572.97683522
scalar OsgEarthNet.uav[92] utilizationSecIdle 60757.450264031
scalar OsgEarthNet.uav[92] utilizationEnergyMission 143827.32145309
scalar OsgEarthNet.uav[92] utilizationEnergyMaintenance 54363.848770142
scalar OsgEarthNet.uav[92] utilizationEnergyCharge 194850.39587402
scalar OsgEarthNet.uav[92] utilizationEnergyOverdrawMission 0
scalar OsgEarthNet.uav[92] utilizationEnergyOverdrawMaintenance 0
scalar OsgEarthNet.uav[92] utilizationCountMissions 43
scalar OsgEarthNet.uav[92] utilizationCountManeuversMission 518
scalar OsgEarthNet.uav[92] utilizationCountManeuversMaintenance 86
scalar OsgEarthNet.uav[92] utilizationCountChargeState 43
scalar OsgEarthNet.uav[92] utilizationCountOverdrawnAfterMission 0
scalar OsgEarthNet.uav[92] utilizationCountIdleState 43
scalar OsgEarthNet.uav[92] utilizationFail 0
scalar OsgEarthNet.uav[92] simulationTime 259200
scalar OsgEarthNet.uav[93] utilizationSecMission 1445.0983825186
scalar OsgEarthNet.uav[93] utilizationSecMaintenance 486.81533472578
scalar OsgEarthNet.uav[93] utilizationSecCharge 7280
scalar OsgEarthNet.uav[93] utilizationSecIdle 249988.08528276
scalar OsgEarthNet.uav[93] utilizationEnergyMission 6616.7880401611
scalar OsgEarthNet.uav[93] utilizationEnergyMaintenance 2428.1203651428
scalar OsgEarthNet.uav[93] utilizationEnergyCharge 9044.9111328125
scalar OsgEarthNet.uav[93] utilizationEnergyOverdrawMission 0
scalar OsgEarthNet.uav[93] utilizationEnergyOverdrawMaintenance 0
scalar OsgEarthNet.uav[93] utilizationCountMissions 2
scalar OsgEarthNet.uav[93] utilizationCountManeuversMission 23
scalar OsgEarthNet.uav[93] utilizationCountManeuversMaintenance 4
scalar OsgEarthNet.uav[93] utilizationCountChargeState 2
scalar OsgEarthNet.uav[93] utilizationCountOverdrawnAfterMission 0
scalar OsgEarthNet.uav[93] utilizationCountIdleState 3
scalar OsgEarthNet.uav[93] utilizationFail 0
scalar OsgEarthNet.uav[93] simulationTime 259200
scalar OsgEarthNet.uav[94] utilizationSecMission 28364.787894005
scalar OsgEarthNet.uav[94] utilizationSecMaintenance 11838.32721942
scalar OsgEarthNet.uav[94] utilizationSecCharge 148832.11959039
scalar OsgEarthNet.uav[94] utilizationSecIdle 70164.764296182
scalar OsgEarthNet.uav[94] utilizationEnergyMission 131175.5841217
scalar OsgEarthNet.uav[94] utilizationEnergyMaintenance 55660.59948349
scalar OsgEarthNet.uav[94] utilizationEnergyCharge 187478.0625
scalar OsgEarthNet.uav[94] utilizationEnergyOverdrawMission 0
scalar OsgEarthNet.uav[94] utilizationEnergyOverdrawMaintenance 0
scalar OsgEarthNet.uav[94] utilizationCountMissions 40
scalar OsgEarthNet.uav[94] utilizationCountManeuversMission 468
scalar OsgEarthNet.uav[94] utilizationCountManeuversMaintenance 80
scalar OsgEarthNet.uav[94] utilizationCountChargeState 40
scalar OsgEarthNet.uav[94] utilizationCountOverdrawnAfterMission 0
scalar OsgEarthNet.uav[94] utilizationCountIdleState 40
scalar OsgEarthNet.uav[94] utilizationFail 0
scalar OsgEarthNet.uav[94] simulationTime 259200
scalar OsgEarthNet.uav[95] utilizationSecMission 30006.879652067
scalar OsgEarthNet.uav[95] utilizationSecMaintenance 14638.033003343
scalar OsgEarthNet.uav[95] utilizationSecCharge 165260
scalar OsgEarthNet.uav[95] utilizationSecIdle 49295.08634459
scalar OsgEarthNet.uav[95] utilizationEnergyMission 137911.03450766
scalar OsgEarthNet.uav[95] utilizationEnergyMaintenance 68767.601451874
scalar OsgEarthNet.uav[95] utilizationEnergyCharge 206133.8515625
scalar OsgEarthNet.uav[95] utilizationEnergyOverdrawMission 0
scalar OsgEarthNet.uav[95] utilizationEnergyOverdrawMaintenance 0
scalar OsgEarthNet.uav[95] utilizationCountMissions 45
scalar OsgEarthNet.uav[95] utilizationCountManeuversMission 509
scalar OsgEarthNet.uav[95] utilizationCountManeuversMaintenance 89
scalar OsgEarthNet.uav[95] utilizationCountChargeState 45
scalar OsgEarthNet.uav[95] utilizationCountOverdrawnAfterMission 0
scalar OsgEarthNet.uav[95] utilizationCountIdleState 46
scalar OsgEarthNet.uav[95] utilizationFail 0
scalar OsgEarthNet.uav[95] simulationTime 259200
scalar OsgEarthNet.uav[96] utilizationSecMission 2261.0346075368
scalar OsgEarthNet.uav[96] utilizationSecMaintenance 692.42614454947
scalar OsgEarthNet.uav[96] utilizationSecCharge 11060
scalar OsgEarthNet.uav[96] utilizationSecIdle 245186.53824791
scalar OsgEarthNet.uav[96] utilizationEnergyMission 10386.722846985
scalar OsgEarthNet.uav[96] utilizationEnergyMaintenance 3395.8494911194
scalar OsgEarthNet.uav[96] utilizationEnergyCharge 13782.575195312
scalar OsgEarthNet.uav[96] utilizationEnergyOverdrawMission 0
scalar OsgEarthNet.uav[96] utilizationEnergyOverdrawMaintenance 0
scalar OsgEarthNet.uav[96] utilizationCountMissions 3
scalar OsgEarthNet.uav[96] utilizationCountManeuversMission 34
scalar OsgEarthNet.uav[96] utilizationCountManeuversMaintenance 6
scalar OsgEarthNet.uav[96] utilizationCountChargeState 3
scalar OsgEarthNet.uav[96] utilizationCountOverdrawnAfterMission 0
scalar OsgEarthNet.uav[96] utilizationCountIdleState 4
scalar OsgEarthNet.uav[96] utilizationFail 0
scalar OsgEarthNet.uav[96] simulationTime 259200
scalar OsgEarthNet.uav[97] utilizationSecMission 4910.3982446967
scalar OsgEarthNet.uav[97] utilizationSecMaintenance 2719.4376515273
scalar OsgEarthNet.uav[97] utilizationSecCharge 28733.222825079
scalar OsgEarthNet.uav[97] utilizationSecIdle 222836.9402787
scalar OsgEarthNet.uav[97] utilizationEnergyMission 22750.244377136
scalar OsgEarthNet.uav[97] utilizationEnergyMaintenance 12842.132701874
scalar OsgEarthNet.uav[97] utilizationEnergyCharge 35599.092529297
scalar OsgEarthNet.uav[97] utilizationEnergyOverdrawMission 0
scalar OsgEarthNet.uav[97] utilizationEnergyOverdrawMaintenance 0
scalar OsgEarthNet.uav[97] utilizationCountMissions 8
scalar OsgEarthNet.uav[97] utilizationCountManeuversMission 81
scalar OsgEarthNet.uav[97] utilizationCountManeuversMaintenance 16
scalar OsgEarthNet.uav[97] utilizationCountChargeState 8
scalar OsgEarthNet.uav[97] utilizationCountOverdrawnAfterMission 0
scalar OsgEarthNet.uav[97] utilizationCountIdleState 8
scalar OsgEarthNet.uav[97] utilizationFail 0
scalar OsgEarthNet.uav[97] simulationTime 259200
scalar OsgEarthNet.uav[98] utilizationSecMission 31022.020491673
scalar OsgEarthNet.uav[98] utilizationSecMaintenance 13103.638618368
scalar OsgEarthNet.uav[98] utilizationSecCharge 162900
scalar OsgEarthNet.uav[98] utilizationSecIdle 52174.339889959
scalar OsgEarthNet.uav[98] utilizationEnergyMission 142950.13008118
scalar OsgEarthNet.uav[98] utilizationEnergyMaintenance 61324.393218994
scalar OsgEarthNet.uav[98] utilizationEnergyCharge 203523.81689453
scalar OsgEarthNet.uav[98] utilizationEnergyOverdrawMission 0
scalar OsgEarthNet.uav[98] utilizationEnergyOverdrawMaintenance 0
scalar OsgEarthNet.uav[98] utilizationCountMissions 44
scalar OsgEarthNet.uav[98] utilizationCountManeuversMission 500
scalar OsgEarthNet.uav[98] utilizationCountManeuversMaintenance 88
scalar OsgEarthNet.uav[98] utilizationCountChargeState 44
scalar OsgEarthNet.uav[98] utilizationCountOverdrawnAfterMission 0
scalar OsgEarthNet.uav[98] utilizationCountIdleState 45
scalar OsgEarthNet.uav[98] utilizationFail 0
scalar OsgEarthNet.uav[98] simulationTime 259200
scalar OsgEarthNet.uav[99] utilizationSecMission 9900.3173490091
scalar OsgEarthNet.uav[99] utilizationSecMaintenance 6300.4195782678
scalar OsgEarthNet.uav[99] utilizationSecCharge 60410
scalar OsgEarthNet.uav[99] utilizationSecIdle 182589.26207272
scalar OsgEarthNet.uav[99] utilizationEnergyMission 46406.734207153
scalar OsgEarthNet.uav[99] utilizationEnergyMaintenance 29457.485443115
scalar OsgEarthNet.uav[99] utilizationEnergyCharge 75896.80078125
scalar OsgEarthNet.uav[99] utilizationEnergyOverdrawMission 0
scalar OsgEarthNet.uav[99] utilizationEnergyOverdrawMaintenance 0
scalar OsgEarthNet.uav[99] utilizationCountMissions 16
scalar OsgEarthNet.uav[99] utilizationCountManeuversMission 163
scalar OsgEarthNet.uav[99] utilizationCountManeuversMaintenance 32
scalar OsgEarthNet.uav[99] utilizationCountChargeState 16
scalar OsgEarthNet.uav[99] utilizationCountOverdrawnAfterMission 0
scalar OsgEarthNet.uav[99] utilizationCountIdleState 17
scalar OsgEarthNet.uav[99] utilizationFail 0
scalar OsgEarthNet.uav[99] simulationTime 259200
scalar OsgEarthNet.cs[0] usedPower 492877.72199529
scalar OsgEarthNet.cs[0] chargedPower 492877.72199529
scalar OsgEarthNet.cs[0] chargedMobileNodes 105
scalar OsgEarthNet.cs[0] reservations 105
scalar OsgEarthNet.cs[1] usedPower 1071066.394352
scalar OsgEarthNet.cs[1] chargedPower 1071066.394352
scalar OsgEarthNet.cs[1] chargedMobileNodes 228
scalar OsgEarthNet.cs[1] reservations 231
scalar OsgEarthNet.cs[2] usedPower 2721825.6344481
scalar OsgEarthNet.cs[2] chargedPower 2721825.6344481
scalar OsgEarthNet.cs[2] chargedMobileNodes 572
scalar OsgEarthNet.cs[2] reservations 583
scalar OsgEarthNet.cs[3] usedPower 581582.39244874
scalar OsgEarthNet.cs[3] chargedPower 581582.39244874
scalar OsgEarthNet.cs[3] chargedMobileNodes 132
scalar OsgEarthNet.cs[3] reservations 132
scalar OsgEarthNet.cs[4] usedPower 731388.77806357
scalar OsgEarthNet.cs[4] chargedPower 731388.77806357
scalar OsgEarthNet.cs[4] chargedMobileNodes 161
scalar OsgEarthNet.cs[4] reservations 162
scalar OsgEarthNet.cs[5] usedPower 496196.35695139
scalar OsgEarthNet.cs[5] chargedPower 496196.35695139
scalar OsgEarthNet.cs[5] chargedMobileNodes 100
scalar OsgEarthNet.cs[5] reservations 105
scalar OsgEarthNet.cs[6] usedPower 2525062.4066566
scalar OsgEarthNet.cs[6] chargedPower 2525062.4066566
scalar OsgEarthNet.cs[6] chargedMobileNodes 547
scalar OsgEarthNet.cs[6] reservations 555

