version 2
run Szenario_Hotel_Gabelbach-24-20180709-19:12:02-39972
attr configname Szenario_Hotel_Gabelbach
attr datetime 20180709-19:12:02
attr experiment Szenario_Hotel_Gabelbach
attr inifile omnetpp.ini
attr iterationvars "$replM=2, $biWeight=0.8"
attr iterationvarsf replM=2,biWeight=0.8-
attr measurement "$replM=2, $biWeight=0.8"
attr network OsgEarthNet
attr processid 39972
attr repetition 0
attr replication #0
attr resultdir results
attr runnumber 24
attr seedset 24
itervar biWeight 0.8
itervar replM 2
param *.osgEarthScene.scene "\"Szenario_Hotel_Gabelbach.earth\""
param *.playgroundLatitude 50.6830269
param *.playgroundLongitude 10.8538055
param *.playgroundWidth 3500m
param *.playgroundHeight 3500m
param *.numUAVs 100
param *.cs[0].posX 3537m
param *.cs[0].posY 965m
param *.cs[0].posZ 538m
param *.cs[1].posX 312m
param *.cs[1].posY 1262m
param *.cs[1].posZ 539m
param *.cs[2].posX 2185m
param *.cs[2].posY 3026m
param *.cs[2].posZ 777m
param *.cs[3].posX 10m
param *.cs[3].posY 2200m
param *.cs[3].posZ 560m
param *.cs[4].posX 750m
param *.cs[4].posY 200m
param *.cs[4].posZ 540m
param *.cs[5].posX 2450m
param *.cs[5].posY 180m
param *.cs[5].posZ 524m
param *.cs[6].posX 3140m
param *.cs[6].posY 1790m
param *.cs[6].posZ 606m
param *.numCSs 7
param *.uav[*].replacementMethod 2
param *.uav[*].weightedSumWeight 0.8
param *.*.timeStep 10s
param *.uav[*].commandPreviewCommandCount 20
param *.missionControl.missionFiles "\"missions\\\\Szenario_WB_Hotel_Gabelbach_Mission_Hotel.waypoints,missions\\\\Szenario_WB_Hotel_Gabelbach_Mission_Kickelhahn.waypoints,missions\\\\Szenario_WB_Hotel_Gabelbach_Mission_Ilmenau_Sportplatz.waypoints,missions\\\\Szenario_WB_Hotel_Gabelbach_Mission_Manebach_Mitte.waypoints,missions\\\\Szenario_WB_Hotel_Gabelbach_Mission_Manebach_Sued.waypoints\""
param *.missionControl.missionFiles "\"missions\\\\Szenario_WB_Hotel_Gabelbach_Mission_Hotel.waypoints,missions\\\\Szenario_WB_Hotel_Gabelbach_Mission_Kickelhahn.waypoints,missions\\\\Szenario_WB_Hotel_Gabelbach_Mission_Ilmenau_Sportplatz.waypoints,missions\\\\Szenario_WB_Hotel_Gabelbach_Mission_Manebach_Mitte.waypoints,missions\\\\Szenario_WB_Hotel_Gabelbach_Mission_Manebach_Sued.waypoints,missions\\\\Szenario_WB_Hotel_Gabelbach_Hover_HoheSchlaufe.waypoints,missions\\\\Szenario_WB_Hotel_Gabelbach_Hover_Kickelhahn.waypoints,missions\\\\Szenario_WB_Hotel_Gabelbach_Hover_Gabelbachskopf.waypoints,missions\\\\Szenario_WB_Hotel_Gabelbach_Hover_Dachskopf.waypoints\""
param *.uav[0].startX 3537m
param *.uav[0].startY 965m
param *.uav[0].startZ 539m
param *.uav[1].startX 312m
param *.uav[1].startY 1262m
param *.uav[1].startZ 540m
param *.uav[2].startX 2185m
param *.uav[2].startY 3026m
param *.uav[2].startZ 778m
param *.uav[3].startX 3537m
param *.uav[3].startY 965m
param *.uav[3].startZ 539m
param *.uav[4].startX 312m
param *.uav[4].startY 1262m
param *.uav[4].startZ 540m
param *.uav[5].startX 2185m
param *.uav[5].startY 3026m
param *.uav[5].startZ 778m
param *.uav[6].startX 3537m
param *.uav[6].startY 965m
param *.uav[6].startZ 539m
param *.uav[7].startX 312m
param *.uav[7].startY 1262m
param *.uav[7].startZ 540m
param *.uav[8].startX 2185m
param *.uav[8].startY 3026m
param *.uav[8].startZ 778m
param *.uav[9].startX 3537m
param *.uav[9].startY 965m
param *.uav[9].startZ 539m
param *.uav[10].startX 3537m
param *.uav[10].startY 965m
param *.uav[10].startZ 539m
param *.uav[11].startX 312m
param *.uav[11].startY 1262m
param *.uav[11].startZ 540m
param *.uav[12].startX 2185m
param *.uav[12].startY 3026m
param *.uav[12].startZ 778m
param *.uav[13].startX 3537m
param *.uav[13].startY 965m
param *.uav[13].startZ 539m
param *.uav[14].startX 312m
param *.uav[14].startY 1262m
param *.uav[14].startZ 540m
param *.uav[15].startX 2185m
param *.uav[15].startY 3026m
param *.uav[15].startZ 778m
param *.uav[16].startX 3537m
param *.uav[16].startY 965m
param *.uav[16].startZ 539m
param *.uav[17].startX 312m
param *.uav[17].startY 1262m
param *.uav[17].startZ 540m
param *.uav[18].startX 2185m
param *.uav[18].startY 3026m
param *.uav[18].startZ 778m
param *.uav[19].startX 3537m
param *.uav[19].startY 965m
param *.uav[19].startZ 539m
param *.uav[20].startX 3537m
param *.uav[20].startY 965m
param *.uav[20].startZ 539m
param *.uav[21].startX 312m
param *.uav[21].startY 1262m
param *.uav[21].startZ 540m
param *.uav[22].startX 2185m
param *.uav[22].startY 3026m
param *.uav[22].startZ 778m
param *.uav[23].startX 3537m
param *.uav[23].startY 965m
param *.uav[23].startZ 539m
param *.uav[24].startX 312m
param *.uav[24].startY 1262m
param *.uav[24].startZ 540m
param *.uav[25].startX 2185m
param *.uav[25].startY 3026m
param *.uav[25].startZ 778m
param *.uav[26].startX 3537m
param *.uav[26].startY 965m
param *.uav[26].startZ 539m
param *.uav[27].startX 312m
param *.uav[27].startY 1262m
param *.uav[27].startZ 540m
param *.uav[28].startX 2185m
param *.uav[28].startY 3026m
param *.uav[28].startZ 778m
param *.uav[29].startX 3537m
param *.uav[29].startY 965m
param *.uav[29].startZ 539m
param *.uav[30].startX 3537m
param *.uav[30].startY 965m
param *.uav[30].startZ 539m
param *.uav[31].startX 312m
param *.uav[31].startY 1262m
param *.uav[31].startZ 540m
param *.uav[32].startX 2185m
param *.uav[32].startY 3026m
param *.uav[32].startZ 778m
param *.uav[33].startX 3537m
param *.uav[33].startY 965m
param *.uav[33].startZ 539m
param *.uav[34].startX 312m
param *.uav[34].startY 1262m
param *.uav[34].startZ 540m
param *.uav[35].startX 2185m
param *.uav[35].startY 3026m
param *.uav[35].startZ 778m
param *.uav[36].startX 3537m
param *.uav[36].startY 965m
param *.uav[36].startZ 539m
param *.uav[37].startX 312m
param *.uav[37].startY 1262m
param *.uav[37].startZ 540m
param *.uav[38].startX 2185m
param *.uav[38].startY 3026m
param *.uav[38].startZ 778m
param *.uav[39].startX 3537m
param *.uav[39].startY 965m
param *.uav[39].startZ 539m
param *.uav[40].startX 3537m
param *.uav[40].startY 965m
param *.uav[40].startZ 539m
param *.uav[41].startX 312m
param *.uav[41].startY 1262m
param *.uav[41].startZ 540m
param *.uav[42].startX 2185m
param *.uav[42].startY 3026m
param *.uav[42].startZ 778m
param *.uav[43].startX 3537m
param *.uav[43].startY 965m
param *.uav[43].startZ 539m
param *.uav[44].startX 312m
param *.uav[44].startY 1262m
param *.uav[44].startZ 540m
param *.uav[45].startX 2185m
param *.uav[45].startY 3026m
param *.uav[45].startZ 778m
param *.uav[46].startX 3537m
param *.uav[46].startY 965m
param *.uav[46].startZ 539m
param *.uav[47].startX 312m
param *.uav[47].startY 1262m
param *.uav[47].startZ 540m
param *.uav[48].startX 2185m
param *.uav[48].startY 3026m
param *.uav[48].startZ 778m
param *.uav[49].startX 3537m
param *.uav[49].startY 965m
param *.uav[49].startZ 539m
param *.uav[50].startX 3537m
param *.uav[50].startY 965m
param *.uav[50].startZ 539m
param *.uav[51].startX 312m
param *.uav[51].startY 1262m
param *.uav[51].startZ 540m
param *.uav[52].startX 2185m
param *.uav[52].startY 3026m
param *.uav[52].startZ 778m
param *.uav[53].startX 3537m
param *.uav[53].startY 965m
param *.uav[53].startZ 539m
param *.uav[54].startX 312m
param *.uav[54].startY 1262m
param *.uav[54].startZ 540m
param *.uav[55].startX 2185m
param *.uav[55].startY 3026m
param *.uav[55].startZ 778m
param *.uav[56].startX 3537m
param *.uav[56].startY 965m
param *.uav[56].startZ 539m
param *.uav[57].startX 312m
param *.uav[57].startY 1262m
param *.uav[57].startZ 540m
param *.uav[58].startX 2185m
param *.uav[58].startY 3026m
param *.uav[58].startZ 778m
param *.uav[59].startX 3537m
param *.uav[59].startY 965m
param *.uav[59].startZ 539m
param *.uav[60].startX 3537m
param *.uav[60].startY 965m
param *.uav[60].startZ 539m
param *.uav[61].startX 312m
param *.uav[61].startY 1262m
param *.uav[61].startZ 540m
param *.uav[62].startX 2185m
param *.uav[62].startY 3026m
param *.uav[62].startZ 778m
param *.uav[63].startX 3537m
param *.uav[63].startY 965m
param *.uav[63].startZ 539m
param *.uav[64].startX 312m
param *.uav[64].startY 1262m
param *.uav[64].startZ 540m
param *.uav[65].startX 2185m
param *.uav[65].startY 3026m
param *.uav[65].startZ 778m
param *.uav[66].startX 3537m
param *.uav[66].startY 965m
param *.uav[66].startZ 539m
param *.uav[67].startX 312m
param *.uav[67].startY 1262m
param *.uav[67].startZ 540m
param *.uav[68].startX 2185m
param *.uav[68].startY 3026m
param *.uav[68].startZ 778m
param *.uav[69].startX 3537m
param *.uav[69].startY 965m
param *.uav[69].startZ 539m
param *.uav[70].startX 3537m
param *.uav[70].startY 965m
param *.uav[70].startZ 539m
param *.uav[71].startX 312m
param *.uav[71].startY 1262m
param *.uav[71].startZ 540m
param *.uav[72].startX 2185m
param *.uav[72].startY 3026m
param *.uav[72].startZ 778m
param *.uav[73].startX 3537m
param *.uav[73].startY 965m
param *.uav[73].startZ 539m
param *.uav[74].startX 312m
param *.uav[74].startY 1262m
param *.uav[74].startZ 540m
param *.uav[75].startX 2185m
param *.uav[75].startY 3026m
param *.uav[75].startZ 778m
param *.uav[76].startX 3537m
param *.uav[76].startY 965m
param *.uav[76].startZ 539m
param *.uav[77].startX 312m
param *.uav[77].startY 1262m
param *.uav[77].startZ 540m
param *.uav[78].startX 2185m
param *.uav[78].startY 3026m
param *.uav[78].startZ 778m
param *.uav[79].startX 3537m
param *.uav[79].startY 965m
param *.uav[79].startZ 539m
param *.uav[80].startX 3537m
param *.uav[80].startY 965m
param *.uav[80].startZ 539m
param *.uav[81].startX 312m
param *.uav[81].startY 1262m
param *.uav[81].startZ 540m
param *.uav[82].startX 2185m
param *.uav[82].startY 3026m
param *.uav[82].startZ 778m
param *.uav[83].startX 3537m
param *.uav[83].startY 965m
param *.uav[83].startZ 539m
param *.uav[84].startX 312m
param *.uav[84].startY 1262m
param *.uav[84].startZ 540m
param *.uav[85].startX 2185m
param *.uav[85].startY 3026m
param *.uav[85].startZ 778m
param *.uav[86].startX 3537m
param *.uav[86].startY 965m
param *.uav[86].startZ 539m
param *.uav[87].startX 312m
param *.uav[87].startY 1262m
param *.uav[87].startZ 540m
param *.uav[88].startX 2185m
param *.uav[88].startY 3026m
param *.uav[88].startZ 778m
param *.uav[89].startX 3537m
param *.uav[89].startY 965m
param *.uav[89].startZ 539m
param *.uav[90].startX 3537m
param *.uav[90].startY 965m
param *.uav[90].startZ 539m
param *.uav[91].startX 312m
param *.uav[91].startY 1262m
param *.uav[91].startZ 540m
param *.uav[92].startX 2185m
param *.uav[92].startY 3026m
param *.uav[92].startZ 778m
param *.uav[93].startX 3537m
param *.uav[93].startY 965m
param *.uav[93].startZ 539m
param *.uav[94].startX 312m
param *.uav[94].startY 1262m
param *.uav[94].startZ 540m
param *.uav[95].startX 2185m
param *.uav[95].startY 3026m
param *.uav[95].startZ 778m
param *.uav[96].startX 3537m
param *.uav[96].startY 965m
param *.uav[96].startZ 539m
param *.uav[97].startX 312m
param *.uav[97].startY 1262m
param *.uav[97].startZ 540m
param *.uav[98].startX 2185m
param *.uav[98].startY 3026m
param *.uav[98].startZ 778m
param *.uav[99].startX 3537m
param *.uav[99].startY 965m
param *.uav[99].startZ 539m
param *.osgEarthScene.scene "\"boston.earth\""
param *.playgroundLatitude 42.3558
param *.playgroundLongitude -71.0677
param *.playgroundWidth 400m
param *.playgroundHeight 200m
param *.channelController.connectionColor "\"#0000FF40\""
param *.channelController.showConnections false
param *.uav[*].modelURL "\"quadrocopter.small.obj.15.scale.0,0,90.rot\""
param *.uav[*].labelColor "\"#FF7C00CC\""
param *.uav[*].label2Color "\"#FF7C00EE\""
param *.uav[*].batteryCapacity 5200mAh
param *.uav[*].batteryRemaining uav[index].batteryCapacity
param *.uav[*].predictionQuantile 0.95
param *.uav[*].replacementMethod 2
param *.uav[*].weightedSumWeight 0.5
param *.cs[*].modelURL "\"chargingstation_v1.osgt.2.scale.0,0,0.rot.0,0,-15e-1.trans\""
param *.cs[*].spotsWaiting 999
param *.cs[*].spotsCharging 999
param *.cs[*].chargeEffectivenessPercentage 100
param *.cs[*].nonLinearPhaseStartPercentage 85
param *.cs[*].chargeCurrent 6.0A
param *.cs[*].prioritizeFastCharge true
param *.missionControl.replacementSearchMethod 0
param *.*.timeStep 9s

scalar OsgEarthNet.uav[0] utilizationSecMission 760.62515258028
scalar OsgEarthNet.uav[0] utilizationSecMaintenance 223.6438949726
scalar OsgEarthNet.uav[0] utilizationSecCharge 3800
scalar OsgEarthNet.uav[0] utilizationSecIdle 254415.72995245
scalar OsgEarthNet.uav[0] utilizationEnergyMission 3743.1739501953
scalar OsgEarthNet.uav[0] utilizationEnergyMaintenance 1069.8300895691
scalar OsgEarthNet.uav[0] utilizationEnergyCharge 4813.0043945312
scalar OsgEarthNet.uav[0] utilizationEnergyOverdrawMission 0
scalar OsgEarthNet.uav[0] utilizationEnergyOverdrawMaintenance 0
scalar OsgEarthNet.uav[0] utilizationCountMissions 1
scalar OsgEarthNet.uav[0] utilizationCountManeuversMission 12
scalar OsgEarthNet.uav[0] utilizationCountManeuversMaintenance 2
scalar OsgEarthNet.uav[0] utilizationCountChargeState 1
scalar OsgEarthNet.uav[0] utilizationCountOverdrawnAfterMission 0
scalar OsgEarthNet.uav[0] utilizationCountIdleState 2
scalar OsgEarthNet.uav[0] utilizationFail 0
scalar OsgEarthNet.uav[0] simulationTime 259200
scalar OsgEarthNet.uav[1] utilizationSecMission 27429.588525187
scalar OsgEarthNet.uav[1] utilizationSecMaintenance 11724.974142494
scalar OsgEarthNet.uav[1] utilizationSecCharge 144094.91151415
scalar OsgEarthNet.uav[1] utilizationSecIdle 75950.524818166
scalar OsgEarthNet.uav[1] utilizationEnergyMission 127667.16246033
scalar OsgEarthNet.uav[1] utilizationEnergyMaintenance 55696.159091949
scalar OsgEarthNet.uav[1] utilizationEnergyCharge 181876.18652344
scalar OsgEarthNet.uav[1] utilizationEnergyOverdrawMission 0
scalar OsgEarthNet.uav[1] utilizationEnergyOverdrawMaintenance 0
scalar OsgEarthNet.uav[1] utilizationCountMissions 39
scalar OsgEarthNet.uav[1] utilizationCountManeuversMission 447
scalar OsgEarthNet.uav[1] utilizationCountManeuversMaintenance 78
scalar OsgEarthNet.uav[1] utilizationCountChargeState 39
scalar OsgEarthNet.uav[1] utilizationCountOverdrawnAfterMission 0
scalar OsgEarthNet.uav[1] utilizationCountIdleState 39
scalar OsgEarthNet.uav[1] utilizationFail 0
scalar OsgEarthNet.uav[1] simulationTime 259200
scalar OsgEarthNet.uav[2] utilizationSecMission 621.17604176187
scalar OsgEarthNet.uav[2] utilizationSecMaintenance 313.76167006775
scalar OsgEarthNet.uav[2] utilizationSecCharge 3620
scalar OsgEarthNet.uav[2] utilizationSecIdle 254645.06128817
scalar OsgEarthNet.uav[2] utilizationEnergyMission 2959.8687896729
scalar OsgEarthNet.uav[2] utilizationEnergyMaintenance 1494.124584198
scalar OsgEarthNet.uav[2] utilizationEnergyCharge 4453.9956054688
scalar OsgEarthNet.uav[2] utilizationEnergyOverdrawMission 0
scalar OsgEarthNet.uav[2] utilizationEnergyOverdrawMaintenance 0
scalar OsgEarthNet.uav[2] utilizationCountMissions 1
scalar OsgEarthNet.uav[2] utilizationCountManeuversMission 12
scalar OsgEarthNet.uav[2] utilizationCountManeuversMaintenance 2
scalar OsgEarthNet.uav[2] utilizationCountChargeState 1
scalar OsgEarthNet.uav[2] utilizationCountOverdrawnAfterMission 0
scalar OsgEarthNet.uav[2] utilizationCountIdleState 2
scalar OsgEarthNet.uav[2] utilizationFail 0
scalar OsgEarthNet.uav[2] simulationTime 259200
scalar OsgEarthNet.uav[3] utilizationSecMission 836.77707522227
scalar OsgEarthNet.uav[3] utilizationSecMaintenance 217.0347828456
scalar OsgEarthNet.uav[3] utilizationSecCharge 3840
scalar OsgEarthNet.uav[3] utilizationSecIdle 254306.18714193
scalar OsgEarthNet.uav[3] utilizationEnergyMission 3736.2374267578
scalar OsgEarthNet.uav[3] utilizationEnergyMaintenance 1060.4883232117
scalar OsgEarthNet.uav[3] utilizationEnergyCharge 4796.7270507812
scalar OsgEarthNet.uav[3] utilizationEnergyOverdrawMission 0
scalar OsgEarthNet.uav[3] utilizationEnergyOverdrawMaintenance 0
scalar OsgEarthNet.uav[3] utilizationCountMissions 1
scalar OsgEarthNet.uav[3] utilizationCountManeuversMission 13
scalar OsgEarthNet.uav[3] utilizationCountManeuversMaintenance 2
scalar OsgEarthNet.uav[3] utilizationCountChargeState 1
scalar OsgEarthNet.uav[3] utilizationCountOverdrawnAfterMission 0
scalar OsgEarthNet.uav[3] utilizationCountIdleState 2
scalar OsgEarthNet.uav[3] utilizationFail 0
scalar OsgEarthNet.uav[3] simulationTime 259200
scalar OsgEarthNet.uav[4] utilizationSecMission 7614.1468424125
scalar OsgEarthNet.uav[4] utilizationSecMaintenance 4504.7772019489
scalar OsgEarthNet.uav[4] utilizationSecCharge 44440
scalar OsgEarthNet.uav[4] utilizationSecIdle 202641.07495564
scalar OsgEarthNet.uav[4] utilizationEnergyMission 34589.51033783
scalar OsgEarthNet.uav[4] utilizationEnergyMaintenance 20545.757888794
scalar OsgEarthNet.uav[4] utilizationEnergyCharge 55372.353759766
scalar OsgEarthNet.uav[4] utilizationEnergyOverdrawMission 0
scalar OsgEarthNet.uav[4] utilizationEnergyOverdrawMaintenance 0
scalar OsgEarthNet.uav[4] utilizationCountMissions 12
scalar OsgEarthNet.uav[4] utilizationCountManeuversMission 129
scalar OsgEarthNet.uav[4] utilizationCountManeuversMaintenance 24
scalar OsgEarthNet.uav[4] utilizationCountChargeState 12
scalar OsgEarthNet.uav[4] utilizationCountOverdrawnAfterMission 0
scalar OsgEarthNet.uav[4] utilizationCountIdleState 13
scalar OsgEarthNet.uav[4] utilizationFail 0
scalar OsgEarthNet.uav[4] simulationTime 259200
scalar OsgEarthNet.uav[5] utilizationSecMission 28786.768846512
scalar OsgEarthNet.uav[5] utilizationSecMaintenance 14425.051210683
scalar OsgEarthNet.uav[5] utilizationSecCharge 157063.68100163
scalar OsgEarthNet.uav[5] utilizationSecIdle 58924.497941176
scalar OsgEarthNet.uav[5] utilizationEnergyMission 133891.30950165
scalar OsgEarthNet.uav[5] utilizationEnergyMaintenance 67220.666427612
scalar OsgEarthNet.uav[5] utilizationEnergyCharge 197031.8581543
scalar OsgEarthNet.uav[5] utilizationEnergyOverdrawMission 0
scalar OsgEarthNet.uav[5] utilizationEnergyOverdrawMaintenance 0
scalar OsgEarthNet.uav[5] utilizationCountMissions 43
scalar OsgEarthNet.uav[5] utilizationCountManeuversMission 467
scalar OsgEarthNet.uav[5] utilizationCountManeuversMaintenance 86
scalar OsgEarthNet.uav[5] utilizationCountChargeState 43
scalar OsgEarthNet.uav[5] utilizationCountOverdrawnAfterMission 0
scalar OsgEarthNet.uav[5] utilizationCountIdleState 43
scalar OsgEarthNet.uav[5] utilizationFail 0
scalar OsgEarthNet.uav[5] simulationTime 259200
scalar OsgEarthNet.uav[6] utilizationSecMission 20899.709845864
scalar OsgEarthNet.uav[6] utilizationSecMaintenance 9822.182673346
scalar OsgEarthNet.uav[6] utilizationSecCharge 113427.53706291
scalar OsgEarthNet.uav[6] utilizationSecIdle 115050.56941788
scalar OsgEarthNet.uav[6] utilizationEnergyMission 96925.355461121
scalar OsgEarthNet.uav[6] utilizationEnergyMaintenance 47190.95041275
scalar OsgEarthNet.uav[6] utilizationEnergyCharge 142783.3762207
scalar OsgEarthNet.uav[6] utilizationEnergyOverdrawMission 0
scalar OsgEarthNet.uav[6] utilizationEnergyOverdrawMaintenance 0
scalar OsgEarthNet.uav[6] utilizationCountMissions 31
scalar OsgEarthNet.uav[6] utilizationCountManeuversMission 346
scalar OsgEarthNet.uav[6] utilizationCountManeuversMaintenance 62
scalar OsgEarthNet.uav[6] utilizationCountChargeState 31
scalar OsgEarthNet.uav[6] utilizationCountOverdrawnAfterMission 0
scalar OsgEarthNet.uav[6] utilizationCountIdleState 31
scalar OsgEarthNet.uav[6] utilizationFail 0
scalar OsgEarthNet.uav[6] simulationTime 259200
scalar OsgEarthNet.uav[7] utilizationSecMission 11411.787200582
scalar OsgEarthNet.uav[7] utilizationSecMaintenance 5602.7643404004
scalar OsgEarthNet.uav[7] utilizationSecCharge 62930
scalar OsgEarthNet.uav[7] utilizationSecIdle 179255.44745902
scalar OsgEarthNet.uav[7] utilizationEnergyMission 52235.073158264
scalar OsgEarthNet.uav[7] utilizationEnergyMaintenance 26636.995128632
scalar OsgEarthNet.uav[7] utilizationEnergyCharge 78719.91015625
scalar OsgEarthNet.uav[7] utilizationEnergyOverdrawMission 0
scalar OsgEarthNet.uav[7] utilizationEnergyOverdrawMaintenance 0
scalar OsgEarthNet.uav[7] utilizationCountMissions 17
scalar OsgEarthNet.uav[7] utilizationCountManeuversMission 185
scalar OsgEarthNet.uav[7] utilizationCountManeuversMaintenance 34
scalar OsgEarthNet.uav[7] utilizationCountChargeState 17
scalar OsgEarthNet.uav[7] utilizationCountOverdrawnAfterMission 0
scalar OsgEarthNet.uav[7] utilizationCountIdleState 18
scalar OsgEarthNet.uav[7] utilizationFail 0
scalar OsgEarthNet.uav[7] simulationTime 259200
scalar OsgEarthNet.uav[8] utilizationSecMission 28101.136654493
scalar OsgEarthNet.uav[8] utilizationSecMaintenance 12707.185484364
scalar OsgEarthNet.uav[8] utilizationSecCharge 151590.60955107
scalar OsgEarthNet.uav[8] utilizationSecIdle 66801.067310077
scalar OsgEarthNet.uav[8] utilizationEnergyMission 131532.33143616
scalar OsgEarthNet.uav[8] utilizationEnergyMaintenance 59220.477535248
scalar OsgEarthNet.uav[8] utilizationEnergyCharge 190771.25537109
scalar OsgEarthNet.uav[8] utilizationEnergyOverdrawMission 0
scalar OsgEarthNet.uav[8] utilizationEnergyOverdrawMaintenance 0
scalar OsgEarthNet.uav[8] utilizationCountMissions 41
scalar OsgEarthNet.uav[8] utilizationCountManeuversMission 448
scalar OsgEarthNet.uav[8] utilizationCountManeuversMaintenance 82
scalar OsgEarthNet.uav[8] utilizationCountChargeState 41
scalar OsgEarthNet.uav[8] utilizationCountOverdrawnAfterMission 0
scalar OsgEarthNet.uav[8] utilizationCountIdleState 41
scalar OsgEarthNet.uav[8] utilizationFail 0
scalar OsgEarthNet.uav[8] simulationTime 259200
scalar OsgEarthNet.uav[9] utilizationSecMission 684.4732299383
scalar OsgEarthNet.uav[9] utilizationSecMaintenance 298.56834692969
scalar OsgEarthNet.uav[9] utilizationSecCharge 3760
scalar OsgEarthNet.uav[9] utilizationSecIdle 254456.95742313
scalar OsgEarthNet.uav[9] utilizationEnergyMission 3256.4896621704
scalar OsgEarthNet.uav[9] utilizationEnergyMaintenance 1485.2051315308
scalar OsgEarthNet.uav[9] utilizationEnergyCharge 4741.6923828125
scalar OsgEarthNet.uav[9] utilizationEnergyOverdrawMission 0
scalar OsgEarthNet.uav[9] utilizationEnergyOverdrawMaintenance 0
scalar OsgEarthNet.uav[9] utilizationCountMissions 1
scalar OsgEarthNet.uav[9] utilizationCountManeuversMission 11
scalar OsgEarthNet.uav[9] utilizationCountManeuversMaintenance 2
scalar OsgEarthNet.uav[9] utilizationCountChargeState 1
scalar OsgEarthNet.uav[9] utilizationCountOverdrawnAfterMission 0
scalar OsgEarthNet.uav[9] utilizationCountIdleState 2
scalar OsgEarthNet.uav[9] utilizationFail 0
scalar OsgEarthNet.uav[9] simulationTime 259200
scalar OsgEarthNet.uav[10] utilizationSecMission 702.6942798579
scalar OsgEarthNet.uav[10] utilizationSecMaintenance 282.29565405678
scalar OsgEarthNet.uav[10] utilizationSecCharge 3720
scalar OsgEarthNet.uav[10] utilizationSecIdle 254495.00906609
scalar OsgEarthNet.uav[10] utilizationEnergyMission 3275.9728088379
scalar OsgEarthNet.uav[10] utilizationEnergyMaintenance 1401.4236869812
scalar OsgEarthNet.uav[10] utilizationEnergyCharge 4677.3989257812
scalar OsgEarthNet.uav[10] utilizationEnergyOverdrawMission 0
scalar OsgEarthNet.uav[10] utilizationEnergyOverdrawMaintenance 0
scalar OsgEarthNet.uav[10] utilizationCountMissions 1
scalar OsgEarthNet.uav[10] utilizationCountManeuversMission 10
scalar OsgEarthNet.uav[10] utilizationCountManeuversMaintenance 2
scalar OsgEarthNet.uav[10] utilizationCountChargeState 1
scalar OsgEarthNet.uav[10] utilizationCountOverdrawnAfterMission 0
scalar OsgEarthNet.uav[10] utilizationCountIdleState 2
scalar OsgEarthNet.uav[10] utilizationFail 0
scalar OsgEarthNet.uav[10] simulationTime 259200
scalar OsgEarthNet.uav[11] utilizationSecMission 29752.095084854
scalar OsgEarthNet.uav[11] utilizationSecMaintenance 14231.234566334
scalar OsgEarthNet.uav[11] utilizationSecCharge 160738.31672676
scalar OsgEarthNet.uav[11] utilizationSecIdle 54478.352622049
scalar OsgEarthNet.uav[11] utilizationEnergyMission 136680.18630981
scalar OsgEarthNet.uav[11] utilizationEnergyMaintenance 66962.373245239
scalar OsgEarthNet.uav[11] utilizationEnergyCharge 203164.96240234
scalar OsgEarthNet.uav[11] utilizationEnergyOverdrawMission 0
scalar OsgEarthNet.uav[11] utilizationEnergyOverdrawMaintenance 0
scalar OsgEarthNet.uav[11] utilizationCountMissions 43
scalar OsgEarthNet.uav[11] utilizationCountManeuversMission 486
scalar OsgEarthNet.uav[11] utilizationCountManeuversMaintenance 86
scalar OsgEarthNet.uav[11] utilizationCountChargeState 43
scalar OsgEarthNet.uav[11] utilizationCountOverdrawnAfterMission 0
scalar OsgEarthNet.uav[11] utilizationCountIdleState 43
scalar OsgEarthNet.uav[11] utilizationFail 0
scalar OsgEarthNet.uav[11] simulationTime 259200
scalar OsgEarthNet.uav[12] utilizationSecMission 28513.515764965
scalar OsgEarthNet.uav[12] utilizationSecMaintenance 13768.991739123
scalar OsgEarthNet.uav[12] utilizationSecCharge 154466.03853719
scalar OsgEarthNet.uav[12] utilizationSecIdle 62451.452958717
scalar OsgEarthNet.uav[12] utilizationEnergyMission 132095.10227966
scalar OsgEarthNet.uav[12] utilizationEnergyMaintenance 64632.779788971
scalar OsgEarthNet.uav[12] utilizationEnergyCharge 194400.24023438
scalar OsgEarthNet.uav[12] utilizationEnergyOverdrawMission 0
scalar OsgEarthNet.uav[12] utilizationEnergyOverdrawMaintenance 0
scalar OsgEarthNet.uav[12] utilizationCountMissions 42
scalar OsgEarthNet.uav[12] utilizationCountManeuversMission 448
scalar OsgEarthNet.uav[12] utilizationCountManeuversMaintenance 84
scalar OsgEarthNet.uav[12] utilizationCountChargeState 42
scalar OsgEarthNet.uav[12] utilizationCountOverdrawnAfterMission 0
scalar OsgEarthNet.uav[12] utilizationCountIdleState 42
scalar OsgEarthNet.uav[12] utilizationFail 0
scalar OsgEarthNet.uav[12] simulationTime 259200
scalar OsgEarthNet.uav[13] utilizationSecMission 836.77707522227
scalar OsgEarthNet.uav[13] utilizationSecMaintenance 217.0347828456
scalar OsgEarthNet.uav[13] utilizationSecCharge 4010
scalar OsgEarthNet.uav[13] utilizationSecIdle 254136.18714193
scalar OsgEarthNet.uav[13] utilizationEnergyMission 4008.3153839111
scalar OsgEarthNet.uav[13] utilizationEnergyMaintenance 1132.8000602722
scalar OsgEarthNet.uav[13] utilizationEnergyCharge 5141.115234375
scalar OsgEarthNet.uav[13] utilizationEnergyOverdrawMission 0
scalar OsgEarthNet.uav[13] utilizationEnergyOverdrawMaintenance 0
scalar OsgEarthNet.uav[13] utilizationCountMissions 1
scalar OsgEarthNet.uav[13] utilizationCountManeuversMission 13
scalar OsgEarthNet.uav[13] utilizationCountManeuversMaintenance 2
scalar OsgEarthNet.uav[13] utilizationCountChargeState 1
scalar OsgEarthNet.uav[13] utilizationCountOverdrawnAfterMission 0
scalar OsgEarthNet.uav[13] utilizationCountIdleState 2
scalar OsgEarthNet.uav[13] utilizationFail 0
scalar OsgEarthNet.uav[13] simulationTime 259200
scalar OsgEarthNet.uav[14] utilizationSecMission 24435.388534679
scalar OsgEarthNet.uav[14] utilizationSecMaintenance 12461.88442011
scalar OsgEarthNet.uav[14] utilizationSecCharge 135057.31849183
scalar OsgEarthNet.uav[14] utilizationSecIdle 87245.407553382
scalar OsgEarthNet.uav[14] utilizationEnergyMission 113352.56028748
scalar OsgEarthNet.uav[14] utilizationEnergyMaintenance 58890.263759613
scalar OsgEarthNet.uav[14] utilizationEnergyCharge 169680.66162109
scalar OsgEarthNet.uav[14] utilizationEnergyOverdrawMission 0
scalar OsgEarthNet.uav[14] utilizationEnergyOverdrawMaintenance 0
scalar OsgEarthNet.uav[14] utilizationCountMissions 37
scalar OsgEarthNet.uav[14] utilizationCountManeuversMission 407
scalar OsgEarthNet.uav[14] utilizationCountManeuversMaintenance 74
scalar OsgEarthNet.uav[14] utilizationCountChargeState 37
scalar OsgEarthNet.uav[14] utilizationCountOverdrawnAfterMission 0
scalar OsgEarthNet.uav[14] utilizationCountIdleState 37
scalar OsgEarthNet.uav[14] utilizationFail 0
scalar OsgEarthNet.uav[14] simulationTime 259200
scalar OsgEarthNet.uav[15] utilizationSecMission 24334.707840292
scalar OsgEarthNet.uav[15] utilizationSecMaintenance 10146.443002117
scalar OsgEarthNet.uav[15] utilizationSecCharge 126430
scalar OsgEarthNet.uav[15] utilizationSecIdle 98288.84815759
scalar OsgEarthNet.uav[15] utilizationEnergyMission 112631.88352313
scalar OsgEarthNet.uav[15] utilizationEnergyMaintenance 47368.849704742
scalar OsgEarthNet.uav[15] utilizationEnergyCharge 158151.31982422
scalar OsgEarthNet.uav[15] utilizationEnergyOverdrawMission 0
scalar OsgEarthNet.uav[15] utilizationEnergyOverdrawMaintenance 0
scalar OsgEarthNet.uav[15] utilizationCountMissions 34
scalar OsgEarthNet.uav[15] utilizationCountManeuversMission 412
scalar OsgEarthNet.uav[15] utilizationCountManeuversMaintenance 69
scalar OsgEarthNet.uav[15] utilizationCountChargeState 34
scalar OsgEarthNet.uav[15] utilizationCountOverdrawnAfterMission 0
scalar OsgEarthNet.uav[15] utilizationCountIdleState 35
scalar OsgEarthNet.uav[15] utilizationFail 0
scalar OsgEarthNet.uav[15] simulationTime 259200
scalar OsgEarthNet.uav[16] utilizationSecMission 760.62515258028
scalar OsgEarthNet.uav[16] utilizationSecMaintenance 291.95923480269
scalar OsgEarthNet.uav[16] utilizationSecCharge 3920
scalar OsgEarthNet.uav[16] utilizationSecIdle 254227.41461262
scalar OsgEarthNet.uav[16] utilizationEnergyMission 3674.8153152466
scalar OsgEarthNet.uav[16] utilizationEnergyMaintenance 1322.5281600952
scalar OsgEarthNet.uav[16] utilizationEnergyCharge 4997.3452148438
scalar OsgEarthNet.uav[16] utilizationEnergyOverdrawMission 0
scalar OsgEarthNet.uav[16] utilizationEnergyOverdrawMaintenance 0
scalar OsgEarthNet.uav[16] utilizationCountMissions 1
scalar OsgEarthNet.uav[16] utilizationCountManeuversMission 12
scalar OsgEarthNet.uav[16] utilizationCountManeuversMaintenance 2
scalar OsgEarthNet.uav[16] utilizationCountChargeState 1
scalar OsgEarthNet.uav[16] utilizationCountOverdrawnAfterMission 0
scalar OsgEarthNet.uav[16] utilizationCountIdleState 2
scalar OsgEarthNet.uav[16] utilizationFail 0
scalar OsgEarthNet.uav[16] simulationTime 259200
scalar OsgEarthNet.uav[17] utilizationSecMission 27199.4962663
scalar OsgEarthNet.uav[17] utilizationSecMaintenance 13752.164777355
scalar OsgEarthNet.uav[17] utilizationSecCharge 152200
scalar OsgEarthNet.uav[17] utilizationSecIdle 66048.337956345
scalar OsgEarthNet.uav[17] utilizationEnergyMission 125902.70788193
scalar OsgEarthNet.uav[17] utilizationEnergyMaintenance 65478.228282928
scalar OsgEarthNet.uav[17] utilizationEnergyCharge 190511.56445312
scalar OsgEarthNet.uav[17] utilizationEnergyOverdrawMission 0
scalar OsgEarthNet.uav[17] utilizationEnergyOverdrawMaintenance 0
scalar OsgEarthNet.uav[17] utilizationCountMissions 41
scalar OsgEarthNet.uav[17] utilizationCountManeuversMission 443
scalar OsgEarthNet.uav[17] utilizationCountManeuversMaintenance 82
scalar OsgEarthNet.uav[17] utilizationCountChargeState 41
scalar OsgEarthNet.uav[17] utilizationCountOverdrawnAfterMission 0
scalar OsgEarthNet.uav[17] utilizationCountIdleState 42
scalar OsgEarthNet.uav[17] utilizationFail 0
scalar OsgEarthNet.uav[17] simulationTime 259200
scalar OsgEarthNet.uav[18] utilizationSecMission 30563.451318464
scalar OsgEarthNet.uav[18] utilizationSecMaintenance 11106.861521088
scalar OsgEarthNet.uav[18] utilizationSecCharge 153978.01311106
scalar OsgEarthNet.uav[18] utilizationSecIdle 63551.673049383
scalar OsgEarthNet.uav[18] utilizationEnergyMission 142365.14884949
scalar OsgEarthNet.uav[18] utilizationEnergyMaintenance 51963.016014099
scalar OsgEarthNet.uav[18] utilizationEnergyCharge 193962.54394531
scalar OsgEarthNet.uav[18] utilizationEnergyOverdrawMission 0
scalar OsgEarthNet.uav[18] utilizationEnergyOverdrawMaintenance 0
scalar OsgEarthNet.uav[18] utilizationCountMissions 41
scalar OsgEarthNet.uav[18] utilizationCountManeuversMission 479
scalar OsgEarthNet.uav[18] utilizationCountManeuversMaintenance 82
scalar OsgEarthNet.uav[18] utilizationCountChargeState 41
scalar OsgEarthNet.uav[18] utilizationCountOverdrawnAfterMission 0
scalar OsgEarthNet.uav[18] utilizationCountIdleState 41
scalar OsgEarthNet.uav[18] utilizationFail 0
scalar OsgEarthNet.uav[18] simulationTime 259200
scalar OsgEarthNet.uav[19] utilizationSecMission 760.62515258028
scalar OsgEarthNet.uav[19] utilizationSecMaintenance 291.95923480269
scalar OsgEarthNet.uav[19] utilizationSecCharge 3790
scalar OsgEarthNet.uav[19] utilizationSecIdle 254357.41461262
scalar OsgEarthNet.uav[19] utilizationEnergyMission 3279.4576339722
scalar OsgEarthNet.uav[19] utilizationEnergyMaintenance 1516.6491012573
scalar OsgEarthNet.uav[19] utilizationEnergyCharge 4796.1030273438
scalar OsgEarthNet.uav[19] utilizationEnergyOverdrawMission 0
scalar OsgEarthNet.uav[19] utilizationEnergyOverdrawMaintenance 0
scalar OsgEarthNet.uav[19] utilizationCountMissions 1
scalar OsgEarthNet.uav[19] utilizationCountManeuversMission 12
scalar OsgEarthNet.uav[19] utilizationCountManeuversMaintenance 2
scalar OsgEarthNet.uav[19] utilizationCountChargeState 1
scalar OsgEarthNet.uav[19] utilizationCountOverdrawnAfterMission 0
scalar OsgEarthNet.uav[19] utilizationCountIdleState 2
scalar OsgEarthNet.uav[19] utilizationFail 0
scalar OsgEarthNet.uav[19] simulationTime 259200
scalar OsgEarthNet.uav[20] utilizationSecMission 836.77707522227
scalar OsgEarthNet.uav[20] utilizationSecMaintenance 217.0347828456
scalar OsgEarthNet.uav[20] utilizationSecCharge 3790
scalar OsgEarthNet.uav[20] utilizationSecIdle 254356.18714193
scalar OsgEarthNet.uav[20] utilizationEnergyMission 3743.187286377
scalar OsgEarthNet.uav[20] utilizationEnergyMaintenance 1001.8755302429
scalar OsgEarthNet.uav[20] utilizationEnergyCharge 4745.060546875
scalar OsgEarthNet.uav[20] utilizationEnergyOverdrawMission 0
scalar OsgEarthNet.uav[20] utilizationEnergyOverdrawMaintenance 0
scalar OsgEarthNet.uav[20] utilizationCountMissions 1
scalar OsgEarthNet.uav[20] utilizationCountManeuversMission 13
scalar OsgEarthNet.uav[20] utilizationCountManeuversMaintenance 2
scalar OsgEarthNet.uav[20] utilizationCountChargeState 1
scalar OsgEarthNet.uav[20] utilizationCountOverdrawnAfterMission 0
scalar OsgEarthNet.uav[20] utilizationCountIdleState 2
scalar OsgEarthNet.uav[20] utilizationFail 0
scalar OsgEarthNet.uav[20] simulationTime 259200
scalar OsgEarthNet.uav[21] utilizationSecMission 28418.402306315
scalar OsgEarthNet.uav[21] utilizationSecMaintenance 14432.234286338
scalar OsgEarthNet.uav[21] utilizationSecCharge 154441.96025739
scalar OsgEarthNet.uav[21] utilizationSecIdle 61907.402149962
scalar OsgEarthNet.uav[21] utilizationEnergyMission 130053.37744141
scalar OsgEarthNet.uav[21] utilizationEnergyMaintenance 67148.38697052
scalar OsgEarthNet.uav[21] utilizationEnergyCharge 194122.30529785
scalar OsgEarthNet.uav[21] utilizationEnergyOverdrawMission 0
scalar OsgEarthNet.uav[21] utilizationEnergyOverdrawMaintenance 0
scalar OsgEarthNet.uav[21] utilizationCountMissions 42
scalar OsgEarthNet.uav[21] utilizationCountManeuversMission 472
scalar OsgEarthNet.uav[21] utilizationCountManeuversMaintenance 84
scalar OsgEarthNet.uav[21] utilizationCountChargeState 42
scalar OsgEarthNet.uav[21] utilizationCountOverdrawnAfterMission 0
scalar OsgEarthNet.uav[21] utilizationCountIdleState 42
scalar OsgEarthNet.uav[21] utilizationFail 0
scalar OsgEarthNet.uav[21] simulationTime 259200
scalar OsgEarthNet.uav[22] utilizationSecMission 1500.4094549565
scalar OsgEarthNet.uav[22] utilizationSecMaintenance 515.34596930691
scalar OsgEarthNet.uav[22] utilizationSecCharge 7580
scalar OsgEarthNet.uav[22] utilizationSecIdle 249604.24357574
scalar OsgEarthNet.uav[22] utilizationEnergyMission 7165.3313598633
scalar OsgEarthNet.uav[22] utilizationEnergyMaintenance 2391.0378952026
scalar OsgEarthNet.uav[22] utilizationEnergyCharge 9556.3662109375
scalar OsgEarthNet.uav[22] utilizationEnergyOverdrawMission 0
scalar OsgEarthNet.uav[22] utilizationEnergyOverdrawMaintenance 0
scalar OsgEarthNet.uav[22] utilizationCountMissions 2
scalar OsgEarthNet.uav[22] utilizationCountManeuversMission 22
scalar OsgEarthNet.uav[22] utilizationCountManeuversMaintenance 4
scalar OsgEarthNet.uav[22] utilizationCountChargeState 2
scalar OsgEarthNet.uav[22] utilizationCountOverdrawnAfterMission 0
scalar OsgEarthNet.uav[22] utilizationCountIdleState 3
scalar OsgEarthNet.uav[22] utilizationFail 0
scalar OsgEarthNet.uav[22] simulationTime 259200
scalar OsgEarthNet.uav[23] utilizationSecMission 28210.528353614
scalar OsgEarthNet.uav[23] utilizationSecMaintenance 13343.285423028
scalar OsgEarthNet.uav[23] utilizationSecCharge 153160
scalar OsgEarthNet.uav[23] utilizationSecIdle 64486.185223358
scalar OsgEarthNet.uav[23] utilizationEnergyMission 130275.9592514
scalar OsgEarthNet.uav[23] utilizationEnergyMaintenance 62149.719581604
scalar OsgEarthNet.uav[23] utilizationEnergyCharge 191992.49609375
scalar OsgEarthNet.uav[23] utilizationEnergyOverdrawMission 0
scalar OsgEarthNet.uav[23] utilizationEnergyOverdrawMaintenance 0
scalar OsgEarthNet.uav[23] utilizationCountMissions 41
scalar OsgEarthNet.uav[23] utilizationCountManeuversMission 444
scalar OsgEarthNet.uav[23] utilizationCountManeuversMaintenance 82
scalar OsgEarthNet.uav[23] utilizationCountChargeState 41
scalar OsgEarthNet.uav[23] utilizationCountOverdrawnAfterMission 0
scalar OsgEarthNet.uav[23] utilizationCountIdleState 42
scalar OsgEarthNet.uav[23] utilizationFail 0
scalar OsgEarthNet.uav[23] simulationTime 259200
scalar OsgEarthNet.uav[24] utilizationSecMission 29623.774409371
scalar OsgEarthNet.uav[24] utilizationSecMaintenance 12703.052442558
scalar OsgEarthNet.uav[24] utilizationSecCharge 157365.6414424
scalar OsgEarthNet.uav[24] utilizationSecIdle 59507.530705674
scalar OsgEarthNet.uav[24] utilizationEnergyMission 138336.13838959
scalar OsgEarthNet.uav[24] utilizationEnergyMaintenance 61303.434299469
scalar OsgEarthNet.uav[24] utilizationEnergyCharge 197514.8972168
scalar OsgEarthNet.uav[24] utilizationEnergyOverdrawMission 0
scalar OsgEarthNet.uav[24] utilizationEnergyOverdrawMaintenance 0
scalar OsgEarthNet.uav[24] utilizationCountMissions 43
scalar OsgEarthNet.uav[24] utilizationCountManeuversMission 482
scalar OsgEarthNet.uav[24] utilizationCountManeuversMaintenance 86
scalar OsgEarthNet.uav[24] utilizationCountChargeState 43
scalar OsgEarthNet.uav[24] utilizationCountOverdrawnAfterMission 0
scalar OsgEarthNet.uav[24] utilizationCountIdleState 43
scalar OsgEarthNet.uav[24] utilizationFail 0
scalar OsgEarthNet.uav[24] simulationTime 259200
scalar OsgEarthNet.uav[25] utilizationSecMission 929.66633852757
scalar OsgEarthNet.uav[25] utilizationSecMaintenance 183.39004742748
scalar OsgEarthNet.uav[25] utilizationSecCharge 3890
scalar OsgEarthNet.uav[25] utilizationSecIdle 254196.94261404
scalar OsgEarthNet.uav[25] utilizationEnergyMission 4236.1938781738
scalar OsgEarthNet.uav[25] utilizationEnergyMaintenance 897.69618988037
scalar OsgEarthNet.uav[25] utilizationEnergyCharge 4935.53125
scalar OsgEarthNet.uav[25] utilizationEnergyOverdrawMission 0
scalar OsgEarthNet.uav[25] utilizationEnergyOverdrawMaintenance 0
scalar OsgEarthNet.uav[25] utilizationCountMissions 1
scalar OsgEarthNet.uav[25] utilizationCountManeuversMission 15
scalar OsgEarthNet.uav[25] utilizationCountManeuversMaintenance 2
scalar OsgEarthNet.uav[25] utilizationCountChargeState 1
scalar OsgEarthNet.uav[25] utilizationCountOverdrawnAfterMission 0
scalar OsgEarthNet.uav[25] utilizationCountIdleState 2
scalar OsgEarthNet.uav[25] utilizationFail 0
scalar OsgEarthNet.uav[25] simulationTime 259200
scalar OsgEarthNet.uav[26] utilizationSecMission 684.4732299383
scalar OsgEarthNet.uav[26] utilizationSecMaintenance 298.56834692969
scalar OsgEarthNet.uav[26] utilizationSecCharge 3770
scalar OsgEarthNet.uav[26] utilizationSecIdle 254446.95742313
scalar OsgEarthNet.uav[26] utilizationEnergyMission 3395.8861541748
scalar OsgEarthNet.uav[26] utilizationEnergyMaintenance 1332.3000106812
scalar OsgEarthNet.uav[26] utilizationEnergyCharge 4728.1909179688
scalar OsgEarthNet.uav[26] utilizationEnergyOverdrawMission 0
scalar OsgEarthNet.uav[26] utilizationEnergyOverdrawMaintenance 0
scalar OsgEarthNet.uav[26] utilizationCountMissions 1
scalar OsgEarthNet.uav[26] utilizationCountManeuversMission 11
scalar OsgEarthNet.uav[26] utilizationCountManeuversMaintenance 2
scalar OsgEarthNet.uav[26] utilizationCountChargeState 1
scalar OsgEarthNet.uav[26] utilizationCountOverdrawnAfterMission 0
scalar OsgEarthNet.uav[26] utilizationCountIdleState 2
scalar OsgEarthNet.uav[26] utilizationFail 0
scalar OsgEarthNet.uav[26] simulationTime 259200
scalar OsgEarthNet.uav[27] utilizationSecMission 23131.583161519
scalar OsgEarthNet.uav[27] utilizationSecMaintenance 11799.005583389
scalar OsgEarthNet.uav[27] utilizationSecCharge 127720
scalar OsgEarthNet.uav[27] utilizationSecIdle 96549.410255092
scalar OsgEarthNet.uav[27] utilizationEnergyMission 107847.52368422
scalar OsgEarthNet.uav[27] utilizationEnergyMaintenance 55484.140525818
scalar OsgEarthNet.uav[27] utilizationEnergyCharge 160540.03198242
scalar OsgEarthNet.uav[27] utilizationEnergyOverdrawMission 0
scalar OsgEarthNet.uav[27] utilizationEnergyOverdrawMaintenance 0
scalar OsgEarthNet.uav[27] utilizationCountMissions 34
scalar OsgEarthNet.uav[27] utilizationCountManeuversMission 389
scalar OsgEarthNet.uav[27] utilizationCountManeuversMaintenance 69
scalar OsgEarthNet.uav[27] utilizationCountChargeState 34
scalar OsgEarthNet.uav[27] utilizationCountOverdrawnAfterMission 0
scalar OsgEarthNet.uav[27] utilizationCountIdleState 35
scalar OsgEarthNet.uav[27] utilizationFail 0
scalar OsgEarthNet.uav[27] simulationTime 259200
scalar OsgEarthNet.uav[28] utilizationSecMission 8787.5994518774
scalar OsgEarthNet.uav[28] utilizationSecMaintenance 3104.9907469848
scalar OsgEarthNet.uav[28] utilizationSecCharge 44100
scalar OsgEarthNet.uav[28] utilizationSecIdle 203207.40880114
scalar OsgEarthNet.uav[28] utilizationEnergyMission 40644.930778503
scalar OsgEarthNet.uav[28] utilizationEnergyMaintenance 14423.655879974
scalar OsgEarthNet.uav[28] utilizationEnergyCharge 54917.660644531
scalar OsgEarthNet.uav[28] utilizationEnergyOverdrawMission 0
scalar OsgEarthNet.uav[28] utilizationEnergyOverdrawMaintenance 0
scalar OsgEarthNet.uav[28] utilizationCountMissions 12
scalar OsgEarthNet.uav[28] utilizationCountManeuversMission 141
scalar OsgEarthNet.uav[28] utilizationCountManeuversMaintenance 24
scalar OsgEarthNet.uav[28] utilizationCountChargeState 12
scalar OsgEarthNet.uav[28] utilizationCountOverdrawnAfterMission 0
scalar OsgEarthNet.uav[28] utilizationCountIdleState 13
scalar OsgEarthNet.uav[28] utilizationFail 0
scalar OsgEarthNet.uav[28] simulationTime 259200
scalar OsgEarthNet.uav[29] utilizationSecMission 836.77707522227
scalar OsgEarthNet.uav[29] utilizationSecMaintenance 217.0347828456
scalar OsgEarthNet.uav[29] utilizationSecCharge 3820
scalar OsgEarthNet.uav[29] utilizationSecIdle 254326.18714193
scalar OsgEarthNet.uav[29] utilizationEnergyMission 3827.5813446045
scalar OsgEarthNet.uav[29] utilizationEnergyMaintenance 1030.6082267761
scalar OsgEarthNet.uav[29] utilizationEnergyCharge 4858.1899414062
scalar OsgEarthNet.uav[29] utilizationEnergyOverdrawMission 0
scalar OsgEarthNet.uav[29] utilizationEnergyOverdrawMaintenance 0
scalar OsgEarthNet.uav[29] utilizationCountMissions 1
scalar OsgEarthNet.uav[29] utilizationCountManeuversMission 13
scalar OsgEarthNet.uav[29] utilizationCountManeuversMaintenance 2
scalar OsgEarthNet.uav[29] utilizationCountChargeState 1
scalar OsgEarthNet.uav[29] utilizationCountOverdrawnAfterMission 0
scalar OsgEarthNet.uav[29] utilizationCountIdleState 2
scalar OsgEarthNet.uav[29] utilizationFail 0
scalar OsgEarthNet.uav[29] simulationTime 259200
scalar OsgEarthNet.uav[30] utilizationSecMission 760.62515258028
scalar OsgEarthNet.uav[30] utilizationSecMaintenance 223.6438949726
scalar OsgEarthNet.uav[30] utilizationSecCharge 3780
scalar OsgEarthNet.uav[30] utilizationSecIdle 254435.72995245
scalar OsgEarthNet.uav[30] utilizationEnergyMission 3658.6887664795
scalar OsgEarthNet.uav[30] utilizationEnergyMaintenance 1095.0164299011
scalar OsgEarthNet.uav[30] utilizationEnergyCharge 4753.7036132812
scalar OsgEarthNet.uav[30] utilizationEnergyOverdrawMission 0
scalar OsgEarthNet.uav[30] utilizationEnergyOverdrawMaintenance 0
scalar OsgEarthNet.uav[30] utilizationCountMissions 1
scalar OsgEarthNet.uav[30] utilizationCountManeuversMission 12
scalar OsgEarthNet.uav[30] utilizationCountManeuversMaintenance 2
scalar OsgEarthNet.uav[30] utilizationCountChargeState 1
scalar OsgEarthNet.uav[30] utilizationCountOverdrawnAfterMission 0
scalar OsgEarthNet.uav[30] utilizationCountIdleState 2
scalar OsgEarthNet.uav[30] utilizationFail 0
scalar OsgEarthNet.uav[30] simulationTime 259200
scalar OsgEarthNet.uav[31] utilizationSecMission 528.55000878666
scalar OsgEarthNet.uav[31] utilizationSecMaintenance 478.92797493542
scalar OsgEarthNet.uav[31] utilizationSecCharge 3780
scalar OsgEarthNet.uav[31] utilizationSecIdle 254412.52101628
scalar OsgEarthNet.uav[31] utilizationEnergyMission 2585.8137512207
scalar OsgEarthNet.uav[31] utilizationEnergyMaintenance 2153.1098251343
scalar OsgEarthNet.uav[31] utilizationEnergyCharge 4738.9228515625
scalar OsgEarthNet.uav[31] utilizationEnergyOverdrawMission 0
scalar OsgEarthNet.uav[31] utilizationEnergyOverdrawMaintenance 0
scalar OsgEarthNet.uav[31] utilizationCountMissions 1
scalar OsgEarthNet.uav[31] utilizationCountManeuversMission 10
scalar OsgEarthNet.uav[31] utilizationCountManeuversMaintenance 2
scalar OsgEarthNet.uav[31] utilizationCountChargeState 1
scalar OsgEarthNet.uav[31] utilizationCountOverdrawnAfterMission 0
scalar OsgEarthNet.uav[31] utilizationCountIdleState 2
scalar OsgEarthNet.uav[31] utilizationFail 0
scalar OsgEarthNet.uav[31] simulationTime 259200
scalar OsgEarthNet.uav[32] utilizationSecMission 694.00169469977
scalar OsgEarthNet.uav[32] utilizationSecMaintenance 338.49695459722
scalar OsgEarthNet.uav[32] utilizationSecCharge 3780
scalar OsgEarthNet.uav[32] utilizationSecIdle 254387.5003507
scalar OsgEarthNet.uav[32] utilizationEnergyMission 3185.8165740967
scalar OsgEarthNet.uav[32] utilizationEnergyMaintenance 1571.4173698425
scalar OsgEarthNet.uav[32] utilizationEnergyCharge 4757.234375
scalar OsgEarthNet.uav[32] utilizationEnergyOverdrawMission 0
scalar OsgEarthNet.uav[32] utilizationEnergyOverdrawMaintenance 0
scalar OsgEarthNet.uav[32] utilizationCountMissions 1
scalar OsgEarthNet.uav[32] utilizationCountManeuversMission 13
scalar OsgEarthNet.uav[32] utilizationCountManeuversMaintenance 2
scalar OsgEarthNet.uav[32] utilizationCountChargeState 1
scalar OsgEarthNet.uav[32] utilizationCountOverdrawnAfterMission 0
scalar OsgEarthNet.uav[32] utilizationCountIdleState 2
scalar OsgEarthNet.uav[32] utilizationFail 0
scalar OsgEarthNet.uav[32] simulationTime 259200
scalar OsgEarthNet.uav[33] utilizationSecMission 760.62515258028
scalar OsgEarthNet.uav[33] utilizationSecMaintenance 291.95923480269
scalar OsgEarthNet.uav[33] utilizationSecCharge 3940
scalar OsgEarthNet.uav[33] utilizationSecIdle 254207.41461262
scalar OsgEarthNet.uav[33] utilizationEnergyMission 3651.3701782227
scalar OsgEarthNet.uav[33] utilizationEnergyMaintenance 1412.2792892456
scalar OsgEarthNet.uav[33] utilizationEnergyCharge 5063.6474609375
scalar OsgEarthNet.uav[33] utilizationEnergyOverdrawMission 0
scalar OsgEarthNet.uav[33] utilizationEnergyOverdrawMaintenance 0
scalar OsgEarthNet.uav[33] utilizationCountMissions 1
scalar OsgEarthNet.uav[33] utilizationCountManeuversMission 12
scalar OsgEarthNet.uav[33] utilizationCountManeuversMaintenance 2
scalar OsgEarthNet.uav[33] utilizationCountChargeState 1
scalar OsgEarthNet.uav[33] utilizationCountOverdrawnAfterMission 0
scalar OsgEarthNet.uav[33] utilizationCountIdleState 2
scalar OsgEarthNet.uav[33] utilizationFail 0
scalar OsgEarthNet.uav[33] simulationTime 259200
scalar OsgEarthNet.uav[34] utilizationSecMission 528.55000878666
scalar OsgEarthNet.uav[34] utilizationSecMaintenance 478.92797493542
scalar OsgEarthNet.uav[34] utilizationSecCharge 3650
scalar OsgEarthNet.uav[34] utilizationSecIdle 254542.52101628
scalar OsgEarthNet.uav[34] utilizationEnergyMission 2300.5852890015
scalar OsgEarthNet.uav[34] utilizationEnergyMaintenance 2237.4166488648
scalar OsgEarthNet.uav[34] utilizationEnergyCharge 4538.0053710938
scalar OsgEarthNet.uav[34] utilizationEnergyOverdrawMission 0
scalar OsgEarthNet.uav[34] utilizationEnergyOverdrawMaintenance 0
scalar OsgEarthNet.uav[34] utilizationCountMissions 1
scalar OsgEarthNet.uav[34] utilizationCountManeuversMission 10
scalar OsgEarthNet.uav[34] utilizationCountManeuversMaintenance 2
scalar OsgEarthNet.uav[34] utilizationCountChargeState 1
scalar OsgEarthNet.uav[34] utilizationCountOverdrawnAfterMission 0
scalar OsgEarthNet.uav[34] utilizationCountIdleState 2
scalar OsgEarthNet.uav[34] utilizationFail 0
scalar OsgEarthNet.uav[34] simulationTime 259200
scalar OsgEarthNet.uav[35] utilizationSecMission 750.20472747826
scalar OsgEarthNet.uav[35] utilizationSecMaintenance 280.95484451848
scalar OsgEarthNet.uav[35] utilizationSecCharge 3770
scalar OsgEarthNet.uav[35] utilizationSecIdle 254398.839428
scalar OsgEarthNet.uav[35] utilizationEnergyMission 3452.6701202393
scalar OsgEarthNet.uav[35] utilizationEnergyMaintenance 1288.4240531921
scalar OsgEarthNet.uav[35] utilizationEnergyCharge 4741.0908203125
scalar OsgEarthNet.uav[35] utilizationEnergyOverdrawMission 0
scalar OsgEarthNet.uav[35] utilizationEnergyOverdrawMaintenance 0
scalar OsgEarthNet.uav[35] utilizationCountMissions 1
scalar OsgEarthNet.uav[35] utilizationCountManeuversMission 11
scalar OsgEarthNet.uav[35] utilizationCountManeuversMaintenance 2
scalar OsgEarthNet.uav[35] utilizationCountChargeState 1
scalar OsgEarthNet.uav[35] utilizationCountOverdrawnAfterMission 0
scalar OsgEarthNet.uav[35] utilizationCountIdleState 2
scalar OsgEarthNet.uav[35] utilizationFail 0
scalar OsgEarthNet.uav[35] simulationTime 259200
scalar OsgEarthNet.uav[36] utilizationSecMission 702.6942798579
scalar OsgEarthNet.uav[36] utilizationSecMaintenance 282.29565405678
scalar OsgEarthNet.uav[36] utilizationSecCharge 3610
scalar OsgEarthNet.uav[36] utilizationSecIdle 254605.00906609
scalar OsgEarthNet.uav[36] utilizationEnergyMission 3162.6290893555
scalar OsgEarthNet.uav[36] utilizationEnergyMaintenance 1321.7899284363
scalar OsgEarthNet.uav[36] utilizationEnergyCharge 4484.4184570312
scalar OsgEarthNet.uav[36] utilizationEnergyOverdrawMission 0
scalar OsgEarthNet.uav[36] utilizationEnergyOverdrawMaintenance 0
scalar OsgEarthNet.uav[36] utilizationCountMissions 1
scalar OsgEarthNet.uav[36] utilizationCountManeuversMission 10
scalar OsgEarthNet.uav[36] utilizationCountManeuversMaintenance 2
scalar OsgEarthNet.uav[36] utilizationCountChargeState 1
scalar OsgEarthNet.uav[36] utilizationCountOverdrawnAfterMission 0
scalar OsgEarthNet.uav[36] utilizationCountIdleState 2
scalar OsgEarthNet.uav[36] utilizationFail 0
scalar OsgEarthNet.uav[36] simulationTime 259200
scalar OsgEarthNet.uav[37] utilizationSecMission 24968.563354414
scalar OsgEarthNet.uav[37] utilizationSecMaintenance 12121.215157954
scalar OsgEarthNet.uav[37] utilizationSecCharge 136181.95398776
scalar OsgEarthNet.uav[37] utilizationSecIdle 85928.266499876
scalar OsgEarthNet.uav[37] utilizationEnergyMission 115992.2205658
scalar OsgEarthNet.uav[37] utilizationEnergyMaintenance 56991.186470032
scalar OsgEarthNet.uav[37] utilizationEnergyCharge 171788.18457031
scalar OsgEarthNet.uav[37] utilizationEnergyOverdrawMission 0
scalar OsgEarthNet.uav[37] utilizationEnergyOverdrawMaintenance 0
scalar OsgEarthNet.uav[37] utilizationCountMissions 37
scalar OsgEarthNet.uav[37] utilizationCountManeuversMission 413
scalar OsgEarthNet.uav[37] utilizationCountManeuversMaintenance 74
scalar OsgEarthNet.uav[37] utilizationCountChargeState 37
scalar OsgEarthNet.uav[37] utilizationCountOverdrawnAfterMission 0
scalar OsgEarthNet.uav[37] utilizationCountIdleState 37
scalar OsgEarthNet.uav[37] utilizationFail 0
scalar OsgEarthNet.uav[37] simulationTime 259200
scalar OsgEarthNet.uav[38] utilizationSecMission 887.1741082606
scalar OsgEarthNet.uav[38] utilizationSecMaintenance 171.13387461676
scalar OsgEarthNet.uav[38] utilizationSecCharge 3840
scalar OsgEarthNet.uav[38] utilizationSecIdle 254301.69101712
scalar OsgEarthNet.uav[38] utilizationEnergyMission 4136.2416229248
scalar OsgEarthNet.uav[38] utilizationEnergyMaintenance 850.89580535888
scalar OsgEarthNet.uav[38] utilizationEnergyCharge 4842.7197265625
scalar OsgEarthNet.uav[38] utilizationEnergyOverdrawMission 0
scalar OsgEarthNet.uav[38] utilizationEnergyOverdrawMaintenance 0
scalar OsgEarthNet.uav[38] utilizationCountMissions 1
scalar OsgEarthNet.uav[38] utilizationCountManeuversMission 14
scalar OsgEarthNet.uav[38] utilizationCountManeuversMaintenance 2
scalar OsgEarthNet.uav[38] utilizationCountChargeState 1
scalar OsgEarthNet.uav[38] utilizationCountOverdrawnAfterMission 0
scalar OsgEarthNet.uav[38] utilizationCountIdleState 2
scalar OsgEarthNet.uav[38] utilizationFail 0
scalar OsgEarthNet.uav[38] simulationTime 259200
scalar OsgEarthNet.uav[39] utilizationSecMission 760.62515258028
scalar OsgEarthNet.uav[39] utilizationSecMaintenance 223.6438949726
scalar OsgEarthNet.uav[39] utilizationSecCharge 3840
scalar OsgEarthNet.uav[39] utilizationSecIdle 254375.72995245
scalar OsgEarthNet.uav[39] utilizationEnergyMission 3751.8199615479
scalar OsgEarthNet.uav[39] utilizationEnergyMaintenance 1058.707195282
scalar OsgEarthNet.uav[39] utilizationEnergyCharge 4810.5224609375
scalar OsgEarthNet.uav[39] utilizationEnergyOverdrawMission 0
scalar OsgEarthNet.uav[39] utilizationEnergyOverdrawMaintenance 0
scalar OsgEarthNet.uav[39] utilizationCountMissions 1
scalar OsgEarthNet.uav[39] utilizationCountManeuversMission 12
scalar OsgEarthNet.uav[39] utilizationCountManeuversMaintenance 2
scalar OsgEarthNet.uav[39] utilizationCountChargeState 1
scalar OsgEarthNet.uav[39] utilizationCountOverdrawnAfterMission 0
scalar OsgEarthNet.uav[39] utilizationCountIdleState 2
scalar OsgEarthNet.uav[39] utilizationFail 0
scalar OsgEarthNet.uav[39] simulationTime 259200
scalar OsgEarthNet.uav[40] utilizationSecMission 30300.216237622
scalar OsgEarthNet.uav[40] utilizationSecMaintenance 14810.142855394
scalar OsgEarthNet.uav[40] utilizationSecCharge 165457.63990698
scalar OsgEarthNet.uav[40] utilizationSecIdle 48632
scalar OsgEarthNet.uav[40] utilizationEnergyMission 141387.33291626
scalar OsgEarthNet.uav[40] utilizationEnergyMaintenance 69433.858882904
scalar OsgEarthNet.uav[40] utilizationEnergyCharge 208008.34057617
scalar OsgEarthNet.uav[40] utilizationEnergyOverdrawMission 0
scalar OsgEarthNet.uav[40] utilizationEnergyOverdrawMaintenance 0
scalar OsgEarthNet.uav[40] utilizationCountMissions 45
scalar OsgEarthNet.uav[40] utilizationCountManeuversMission 502
scalar OsgEarthNet.uav[40] utilizationCountManeuversMaintenance 89
scalar OsgEarthNet.uav[40] utilizationCountChargeState 45
scalar OsgEarthNet.uav[40] utilizationCountOverdrawnAfterMission 0
scalar OsgEarthNet.uav[40] utilizationCountIdleState 45
scalar OsgEarthNet.uav[40] utilizationFail 0
scalar OsgEarthNet.uav[40] simulationTime 259200
scalar OsgEarthNet.uav[41] utilizationSecMission 16232.375708308
scalar OsgEarthNet.uav[41] utilizationSecMaintenance 5901.8241306653
scalar OsgEarthNet.uav[41] utilizationSecCharge 82190
scalar OsgEarthNet.uav[41] utilizationSecIdle 154875.79916103
scalar OsgEarthNet.uav[41] utilizationEnergyMission 75180.05815506
scalar OsgEarthNet.uav[41] utilizationEnergyMaintenance 28089.44002533
scalar OsgEarthNet.uav[41] utilizationEnergyCharge 103217.52490234
scalar OsgEarthNet.uav[41] utilizationEnergyOverdrawMission 0
scalar OsgEarthNet.uav[41] utilizationEnergyOverdrawMaintenance 0
scalar OsgEarthNet.uav[41] utilizationCountMissions 22
scalar OsgEarthNet.uav[41] utilizationCountManeuversMission 264
scalar OsgEarthNet.uav[41] utilizationCountManeuversMaintenance 44
scalar OsgEarthNet.uav[41] utilizationCountChargeState 22
scalar OsgEarthNet.uav[41] utilizationCountOverdrawnAfterMission 0
scalar OsgEarthNet.uav[41] utilizationCountIdleState 23
scalar OsgEarthNet.uav[41] utilizationFail 0
scalar OsgEarthNet.uav[41] simulationTime 259200
scalar OsgEarthNet.uav[42] utilizationSecMission 766.82734763767
scalar OsgEarthNet.uav[42] utilizationSecMaintenance 306.92101052153
scalar OsgEarthNet.uav[42] utilizationSecCharge 3690
scalar OsgEarthNet.uav[42] utilizationSecIdle 254436.25064184
scalar OsgEarthNet.uav[42] utilizationEnergyMission 3514.4980392456
scalar OsgEarthNet.uav[42] utilizationEnergyMaintenance 1194.4428024292
scalar OsgEarthNet.uav[42] utilizationEnergyCharge 4589.2734375
scalar OsgEarthNet.uav[42] utilizationEnergyOverdrawMission 0
scalar OsgEarthNet.uav[42] utilizationEnergyOverdrawMaintenance 0
scalar OsgEarthNet.uav[42] utilizationCountMissions 1
scalar OsgEarthNet.uav[42] utilizationCountManeuversMission 14
scalar OsgEarthNet.uav[42] utilizationCountManeuversMaintenance 2
scalar OsgEarthNet.uav[42] utilizationCountChargeState 1
scalar OsgEarthNet.uav[42] utilizationCountOverdrawnAfterMission 0
scalar OsgEarthNet.uav[42] utilizationCountIdleState 2
scalar OsgEarthNet.uav[42] utilizationFail 0
scalar OsgEarthNet.uav[42] simulationTime 259200
scalar OsgEarthNet.uav[43] utilizationSecMission 836.77707522227
scalar OsgEarthNet.uav[43] utilizationSecMaintenance 217.0347828456
scalar OsgEarthNet.uav[43] utilizationSecCharge 3810
scalar OsgEarthNet.uav[43] utilizationSecIdle 254336.18714193
scalar OsgEarthNet.uav[43] utilizationEnergyMission 3797.0068054199
scalar OsgEarthNet.uav[43] utilizationEnergyMaintenance 1020.600933075
scalar OsgEarthNet.uav[43] utilizationEnergyCharge 4817.6079101562
scalar OsgEarthNet.uav[43] utilizationEnergyOverdrawMission 0
scalar OsgEarthNet.uav[43] utilizationEnergyOverdrawMaintenance 0
scalar OsgEarthNet.uav[43] utilizationCountMissions 1
scalar OsgEarthNet.uav[43] utilizationCountManeuversMission 13
scalar OsgEarthNet.uav[43] utilizationCountManeuversMaintenance 2
scalar OsgEarthNet.uav[43] utilizationCountChargeState 1
scalar OsgEarthNet.uav[43] utilizationCountOverdrawnAfterMission 0
scalar OsgEarthNet.uav[43] utilizationCountIdleState 2
scalar OsgEarthNet.uav[43] utilizationFail 0
scalar OsgEarthNet.uav[43] simulationTime 259200
scalar OsgEarthNet.uav[44] utilizationSecMission 27420.575804139
scalar OsgEarthNet.uav[44] utilizationSecMaintenance 14946.023747609
scalar OsgEarthNet.uav[44] utilizationSecCharge 155860
scalar OsgEarthNet.uav[44] utilizationSecIdle 60973.399448252
scalar OsgEarthNet.uav[44] utilizationEnergyMission 126815.50997543
scalar OsgEarthNet.uav[44] utilizationEnergyMaintenance 69367.275090921
scalar OsgEarthNet.uav[44] utilizationEnergyCharge 194852.78759766
scalar OsgEarthNet.uav[44] utilizationEnergyOverdrawMission 0
scalar OsgEarthNet.uav[44] utilizationEnergyOverdrawMaintenance 0
scalar OsgEarthNet.uav[44] utilizationCountMissions 42
scalar OsgEarthNet.uav[44] utilizationCountManeuversMission 449
scalar OsgEarthNet.uav[44] utilizationCountManeuversMaintenance 85
scalar OsgEarthNet.uav[44] utilizationCountChargeState 42
scalar OsgEarthNet.uav[44] utilizationCountOverdrawnAfterMission 0
scalar OsgEarthNet.uav[44] utilizationCountIdleState 43
scalar OsgEarthNet.uav[44] utilizationFail 0
scalar OsgEarthNet.uav[44] simulationTime 259200
scalar OsgEarthNet.uav[45] utilizationSecMission 887.1741082606
scalar OsgEarthNet.uav[45] utilizationSecMaintenance 171.13387461676
scalar OsgEarthNet.uav[45] utilizationSecCharge 3830
scalar OsgEarthNet.uav[45] utilizationSecIdle 254311.69101712
scalar OsgEarthNet.uav[45] utilizationEnergyMission 4100.2676849365
scalar OsgEarthNet.uav[45] utilizationEnergyMaintenance 811.48571014404
scalar OsgEarthNet.uav[45] utilizationEnergyCharge 4840.193359375
scalar OsgEarthNet.uav[45] utilizationEnergyOverdrawMission 0
scalar OsgEarthNet.uav[45] utilizationEnergyOverdrawMaintenance 0
scalar OsgEarthNet.uav[45] utilizationCountMissions 1
scalar OsgEarthNet.uav[45] utilizationCountManeuversMission 14
scalar OsgEarthNet.uav[45] utilizationCountManeuversMaintenance 2
scalar OsgEarthNet.uav[45] utilizationCountChargeState 1
scalar OsgEarthNet.uav[45] utilizationCountOverdrawnAfterMission 0
scalar OsgEarthNet.uav[45] utilizationCountIdleState 2
scalar OsgEarthNet.uav[45] utilizationFail 0
scalar OsgEarthNet.uav[45] simulationTime 259200
scalar OsgEarthNet.uav[46] utilizationSecMission 29101.630186833
scalar OsgEarthNet.uav[46] utilizationSecMaintenance 14404.674979845
scalar OsgEarthNet.uav[46] utilizationSecCharge 159451.69383332
scalar OsgEarthNet.uav[46] utilizationSecIdle 56242
scalar OsgEarthNet.uav[46] utilizationEnergyMission 134721.70513309
scalar OsgEarthNet.uav[46] utilizationEnergyMaintenance 66830.627521515
scalar OsgEarthNet.uav[46] utilizationEnergyCharge 201054.28125
scalar OsgEarthNet.uav[46] utilizationEnergyOverdrawMission 0
scalar OsgEarthNet.uav[46] utilizationEnergyOverdrawMaintenance 0
scalar OsgEarthNet.uav[46] utilizationCountMissions 43
scalar OsgEarthNet.uav[46] utilizationCountManeuversMission 480
scalar OsgEarthNet.uav[46] utilizationCountManeuversMaintenance 85
scalar OsgEarthNet.uav[46] utilizationCountChargeState 43
scalar OsgEarthNet.uav[46] utilizationCountOverdrawnAfterMission 0
scalar OsgEarthNet.uav[46] utilizationCountIdleState 43
scalar OsgEarthNet.uav[46] utilizationFail 0
scalar OsgEarthNet.uav[46] simulationTime 259200
scalar OsgEarthNet.uav[47] utilizationSecMission 21335.01022454
scalar OsgEarthNet.uav[47] utilizationSecMaintenance 12268.530919131
scalar OsgEarthNet.uav[47] utilizationSecCharge 125544.1982411
scalar OsgEarthNet.uav[47] utilizationSecIdle 100052.25961523
scalar OsgEarthNet.uav[47] utilizationEnergyMission 99525.866630554
scalar OsgEarthNet.uav[47] utilizationEnergyMaintenance 58027.144981384
scalar OsgEarthNet.uav[47] utilizationEnergyCharge 157376.45507812
scalar OsgEarthNet.uav[47] utilizationEnergyOverdrawMission 0
scalar OsgEarthNet.uav[47] utilizationEnergyOverdrawMaintenance 0
scalar OsgEarthNet.uav[47] utilizationCountMissions 34
scalar OsgEarthNet.uav[47] utilizationCountManeuversMission 347
scalar OsgEarthNet.uav[47] utilizationCountManeuversMaintenance 68
scalar OsgEarthNet.uav[47] utilizationCountChargeState 34
scalar OsgEarthNet.uav[47] utilizationCountOverdrawnAfterMission 0
scalar OsgEarthNet.uav[47] utilizationCountIdleState 34
scalar OsgEarthNet.uav[47] utilizationFail 0
scalar OsgEarthNet.uav[47] simulationTime 259200
scalar OsgEarthNet.uav[48] utilizationSecMission 30440.446523307
scalar OsgEarthNet.uav[48] utilizationSecMaintenance 14064.779480185
scalar OsgEarthNet.uav[48] utilizationSecCharge 165420
scalar OsgEarthNet.uav[48] utilizationSecIdle 49274.772996508
scalar OsgEarthNet.uav[48] utilizationEnergyMission 141939.16576544
scalar OsgEarthNet.uav[48] utilizationEnergyMaintenance 65973.434249878
scalar OsgEarthNet.uav[48] utilizationEnergyCharge 207983.25195312
scalar OsgEarthNet.uav[48] utilizationEnergyOverdrawMission 0
scalar OsgEarthNet.uav[48] utilizationEnergyOverdrawMaintenance 0
scalar OsgEarthNet.uav[48] utilizationCountMissions 44
scalar OsgEarthNet.uav[48] utilizationCountManeuversMission 494
scalar OsgEarthNet.uav[48] utilizationCountManeuversMaintenance 87
scalar OsgEarthNet.uav[48] utilizationCountChargeState 44
scalar OsgEarthNet.uav[48] utilizationCountOverdrawnAfterMission 0
scalar OsgEarthNet.uav[48] utilizationCountIdleState 45
scalar OsgEarthNet.uav[48] utilizationFail 0
scalar OsgEarthNet.uav[48] simulationTime 259200
scalar OsgEarthNet.uav[49] utilizationSecMission 684.4732299383
scalar OsgEarthNet.uav[49] utilizationSecMaintenance 298.56834692969
scalar OsgEarthNet.uav[49] utilizationSecCharge 3780
scalar OsgEarthNet.uav[49] utilizationSecIdle 254436.95742313
scalar OsgEarthNet.uav[49] utilizationEnergyMission 3332.1920318604
scalar OsgEarthNet.uav[49] utilizationEnergyMaintenance 1441.7108383179
scalar OsgEarthNet.uav[49] utilizationEnergyCharge 4773.9018554688
scalar OsgEarthNet.uav[49] utilizationEnergyOverdrawMission 0
scalar OsgEarthNet.uav[49] utilizationEnergyOverdrawMaintenance 0
scalar OsgEarthNet.uav[49] utilizationCountMissions 1
scalar OsgEarthNet.uav[49] utilizationCountManeuversMission 11
scalar OsgEarthNet.uav[49] utilizationCountManeuversMaintenance 2
scalar OsgEarthNet.uav[49] utilizationCountChargeState 1
scalar OsgEarthNet.uav[49] utilizationCountOverdrawnAfterMission 0
scalar OsgEarthNet.uav[49] utilizationCountIdleState 2
scalar OsgEarthNet.uav[49] utilizationFail 0
scalar OsgEarthNet.uav[49] simulationTime 259200
scalar OsgEarthNet.uav[50] utilizationSecMission 698.84532193436
scalar OsgEarthNet.uav[50] utilizationSecMaintenance 323.03163670533
scalar OsgEarthNet.uav[50] utilizationSecCharge 3760
scalar OsgEarthNet.uav[50] utilizationSecIdle 254418.12204136
scalar OsgEarthNet.uav[50] utilizationEnergyMission 3327.395401001
scalar OsgEarthNet.uav[50] utilizationEnergyMaintenance 1374.3764877319
scalar OsgEarthNet.uav[50] utilizationEnergyCharge 4701.775390625
scalar OsgEarthNet.uav[50] utilizationEnergyOverdrawMission 0
scalar OsgEarthNet.uav[50] utilizationEnergyOverdrawMaintenance 0
scalar OsgEarthNet.uav[50] utilizationCountMissions 1
scalar OsgEarthNet.uav[50] utilizationCountManeuversMission 10
scalar OsgEarthNet.uav[50] utilizationCountManeuversMaintenance 2
scalar OsgEarthNet.uav[50] utilizationCountChargeState 1
scalar OsgEarthNet.uav[50] utilizationCountOverdrawnAfterMission 0
scalar OsgEarthNet.uav[50] utilizationCountIdleState 2
scalar OsgEarthNet.uav[50] utilizationFail 0
scalar OsgEarthNet.uav[50] simulationTime 259200
scalar OsgEarthNet.uav[51] utilizationSecMission 26928.93937209
scalar OsgEarthNet.uav[51] utilizationSecMaintenance 13259.342132011
scalar OsgEarthNet.uav[51] utilizationSecCharge 150300
scalar OsgEarthNet.uav[51] utilizationSecIdle 68711.717495899
scalar OsgEarthNet.uav[51] utilizationEnergyMission 126545.05384064
scalar OsgEarthNet.uav[51] utilizationEnergyMaintenance 62617.490154266
scalar OsgEarthNet.uav[51] utilizationEnergyCharge 189066.11035156
scalar OsgEarthNet.uav[51] utilizationEnergyOverdrawMission 0
scalar OsgEarthNet.uav[51] utilizationEnergyOverdrawMaintenance 0
scalar OsgEarthNet.uav[51] utilizationCountMissions 40
scalar OsgEarthNet.uav[51] utilizationCountManeuversMission 431
scalar OsgEarthNet.uav[51] utilizationCountManeuversMaintenance 80
scalar OsgEarthNet.uav[51] utilizationCountChargeState 40
scalar OsgEarthNet.uav[51] utilizationCountOverdrawnAfterMission 0
scalar OsgEarthNet.uav[51] utilizationCountIdleState 41
scalar OsgEarthNet.uav[51] utilizationFail 0
scalar OsgEarthNet.uav[51] simulationTime 259200
scalar OsgEarthNet.uav[52] utilizationSecMission 28233.904091934
scalar OsgEarthNet.uav[52] utilizationSecMaintenance 12898.353695984
scalar OsgEarthNet.uav[52] utilizationSecCharge 152550
scalar OsgEarthNet.uav[52] utilizationSecIdle 65517.741212082
scalar OsgEarthNet.uav[52] utilizationEnergyMission 130656.78437042
scalar OsgEarthNet.uav[52] utilizationEnergyMaintenance 60389.516536713
scalar OsgEarthNet.uav[52] utilizationEnergyCharge 191234.41894531
scalar OsgEarthNet.uav[52] utilizationEnergyOverdrawMission 0
scalar OsgEarthNet.uav[52] utilizationEnergyOverdrawMaintenance 0
scalar OsgEarthNet.uav[52] utilizationCountMissions 41
scalar OsgEarthNet.uav[52] utilizationCountManeuversMission 442
scalar OsgEarthNet.uav[52] utilizationCountManeuversMaintenance 82
scalar OsgEarthNet.uav[52] utilizationCountChargeState 41
scalar OsgEarthNet.uav[52] utilizationCountOverdrawnAfterMission 0
scalar OsgEarthNet.uav[52] utilizationCountIdleState 42
scalar OsgEarthNet.uav[52] utilizationFail 0
scalar OsgEarthNet.uav[52] simulationTime 259200
scalar OsgEarthNet.uav[53] utilizationSecMission 684.4732299383
scalar OsgEarthNet.uav[53] utilizationSecMaintenance 298.56834692969
scalar OsgEarthNet.uav[53] utilizationSecCharge 3800
scalar OsgEarthNet.uav[53] utilizationSecIdle 254416.95742313
scalar OsgEarthNet.uav[53] utilizationEnergyMission 3251.8971252441
scalar OsgEarthNet.uav[53] utilizationEnergyMaintenance 1538.026725769
scalar OsgEarthNet.uav[53] utilizationEnergyCharge 4789.9272460938
scalar OsgEarthNet.uav[53] utilizationEnergyOverdrawMission 0
scalar OsgEarthNet.uav[53] utilizationEnergyOverdrawMaintenance 0
scalar OsgEarthNet.uav[53] utilizationCountMissions 1
scalar OsgEarthNet.uav[53] utilizationCountManeuversMission 11
scalar OsgEarthNet.uav[53] utilizationCountManeuversMaintenance 2
scalar OsgEarthNet.uav[53] utilizationCountChargeState 1
scalar OsgEarthNet.uav[53] utilizationCountOverdrawnAfterMission 0
scalar OsgEarthNet.uav[53] utilizationCountIdleState 2
scalar OsgEarthNet.uav[53] utilizationFail 0
scalar OsgEarthNet.uav[53] simulationTime 259200
scalar OsgEarthNet.uav[54] utilizationSecMission 528.55000878666
scalar OsgEarthNet.uav[54] utilizationSecMaintenance 478.92797493542
scalar OsgEarthNet.uav[54] utilizationSecCharge 3650
scalar OsgEarthNet.uav[54] utilizationSecIdle 254542.52101628
scalar OsgEarthNet.uav[54] utilizationEnergyMission 2319.2671813965
scalar OsgEarthNet.uav[54] utilizationEnergyMaintenance 2224.5869979858
scalar OsgEarthNet.uav[54] utilizationEnergyCharge 4543.8549804688
scalar OsgEarthNet.uav[54] utilizationEnergyOverdrawMission 0
scalar OsgEarthNet.uav[54] utilizationEnergyOverdrawMaintenance 0
scalar OsgEarthNet.uav[54] utilizationCountMissions 1
scalar OsgEarthNet.uav[54] utilizationCountManeuversMission 10
scalar OsgEarthNet.uav[54] utilizationCountManeuversMaintenance 2
scalar OsgEarthNet.uav[54] utilizationCountChargeState 1
scalar OsgEarthNet.uav[54] utilizationCountOverdrawnAfterMission 0
scalar OsgEarthNet.uav[54] utilizationCountIdleState 2
scalar OsgEarthNet.uav[54] utilizationFail 0
scalar OsgEarthNet.uav[54] simulationTime 259200
scalar OsgEarthNet.uav[55] utilizationSecMission 30076.318717053
scalar OsgEarthNet.uav[55] utilizationSecMaintenance 14147.088625288
scalar OsgEarthNet.uav[55] utilizationSecCharge 162064.59165766
scalar OsgEarthNet.uav[55] utilizationSecIdle 52912
scalar OsgEarthNet.uav[55] utilizationEnergyMission 138864.47365068
scalar OsgEarthNet.uav[55] utilizationEnergyMaintenance 66105.443450928
scalar OsgEarthNet.uav[55] utilizationEnergyCharge 203750.58740234
scalar OsgEarthNet.uav[55] utilizationEnergyOverdrawMission 0
scalar OsgEarthNet.uav[55] utilizationEnergyOverdrawMaintenance 0
scalar OsgEarthNet.uav[55] utilizationCountMissions 44
scalar OsgEarthNet.uav[55] utilizationCountManeuversMission 501
scalar OsgEarthNet.uav[55] utilizationCountManeuversMaintenance 87
scalar OsgEarthNet.uav[55] utilizationCountChargeState 44
scalar OsgEarthNet.uav[55] utilizationCountOverdrawnAfterMission 0
scalar OsgEarthNet.uav[55] utilizationCountIdleState 44
scalar OsgEarthNet.uav[55] utilizationFail 0
scalar OsgEarthNet.uav[55] simulationTime 259200
scalar OsgEarthNet.uav[56] utilizationSecMission 684.4732299383
scalar OsgEarthNet.uav[56] utilizationSecMaintenance 298.56834692969
scalar OsgEarthNet.uav[56] utilizationSecCharge 3790
scalar OsgEarthNet.uav[56] utilizationSecIdle 254426.95742313
scalar OsgEarthNet.uav[56] utilizationEnergyMission 3363.3958435059
scalar OsgEarthNet.uav[56] utilizationEnergyMaintenance 1378.5786972046
scalar OsgEarthNet.uav[56] utilizationEnergyCharge 4741.9736328125
scalar OsgEarthNet.uav[56] utilizationEnergyOverdrawMission 0
scalar OsgEarthNet.uav[56] utilizationEnergyOverdrawMaintenance 0
scalar OsgEarthNet.uav[56] utilizationCountMissions 1
scalar OsgEarthNet.uav[56] utilizationCountManeuversMission 11
scalar OsgEarthNet.uav[56] utilizationCountManeuversMaintenance 2
scalar OsgEarthNet.uav[56] utilizationCountChargeState 1
scalar OsgEarthNet.uav[56] utilizationCountOverdrawnAfterMission 0
scalar OsgEarthNet.uav[56] utilizationCountIdleState 2
scalar OsgEarthNet.uav[56] utilizationFail 0
scalar OsgEarthNet.uav[56] simulationTime 259200
scalar OsgEarthNet.uav[57] utilizationSecMission 30674.92511006
scalar OsgEarthNet.uav[57] utilizationSecMaintenance 13662.86477551
scalar OsgEarthNet.uav[57] utilizationSecCharge 160226.30199519
scalar OsgEarthNet.uav[57] utilizationSecIdle 54635.907119244
scalar OsgEarthNet.uav[57] utilizationEnergyMission 140237.06376648
scalar OsgEarthNet.uav[57] utilizationEnergyMaintenance 64567.651744843
scalar OsgEarthNet.uav[57] utilizationEnergyCharge 200853.17333984
scalar OsgEarthNet.uav[57] utilizationEnergyOverdrawMission 0
scalar OsgEarthNet.uav[57] utilizationEnergyOverdrawMaintenance 0
scalar OsgEarthNet.uav[57] utilizationCountMissions 44
scalar OsgEarthNet.uav[57] utilizationCountManeuversMission 489
scalar OsgEarthNet.uav[57] utilizationCountManeuversMaintenance 88
scalar OsgEarthNet.uav[57] utilizationCountChargeState 44
scalar OsgEarthNet.uav[57] utilizationCountOverdrawnAfterMission 0
scalar OsgEarthNet.uav[57] utilizationCountIdleState 44
scalar OsgEarthNet.uav[57] utilizationFail 0
scalar OsgEarthNet.uav[57] simulationTime 259200
scalar OsgEarthNet.uav[58] utilizationSecMission 12470.770847396
scalar OsgEarthNet.uav[58] utilizationSecMaintenance 5619.413951646
scalar OsgEarthNet.uav[58] utilizationSecCharge 64935.103449043
scalar OsgEarthNet.uav[58] utilizationSecIdle 176174.71075191
scalar OsgEarthNet.uav[58] utilizationEnergyMission 58143.974433899
scalar OsgEarthNet.uav[58] utilizationEnergyMaintenance 26661.507820129
scalar OsgEarthNet.uav[58] utilizationEnergyCharge 81963.725830078
scalar OsgEarthNet.uav[58] utilizationEnergyOverdrawMission 0
scalar OsgEarthNet.uav[58] utilizationEnergyOverdrawMaintenance 0
scalar OsgEarthNet.uav[58] utilizationCountMissions 18
scalar OsgEarthNet.uav[58] utilizationCountManeuversMission 202
scalar OsgEarthNet.uav[58] utilizationCountManeuversMaintenance 36
scalar OsgEarthNet.uav[58] utilizationCountChargeState 18
scalar OsgEarthNet.uav[58] utilizationCountOverdrawnAfterMission 0
scalar OsgEarthNet.uav[58] utilizationCountIdleState 18
scalar OsgEarthNet.uav[58] utilizationFail 0
scalar OsgEarthNet.uav[58] simulationTime 259200
scalar OsgEarthNet.uav[59] utilizationSecMission 27742.860485645
scalar OsgEarthNet.uav[59] utilizationSecMaintenance 11742.079841453
scalar OsgEarthNet.uav[59] utilizationSecCharge 143392.29270756
scalar OsgEarthNet.uav[59] utilizationSecIdle 76322.765965339
scalar OsgEarthNet.uav[59] utilizationEnergyMission 128176.0664978
scalar OsgEarthNet.uav[59] utilizationEnergyMaintenance 55074.128707886
scalar OsgEarthNet.uav[59] utilizationEnergyCharge 180743.55151367
scalar OsgEarthNet.uav[59] utilizationEnergyOverdrawMission 0
scalar OsgEarthNet.uav[59] utilizationEnergyOverdrawMaintenance 0
scalar OsgEarthNet.uav[59] utilizationCountMissions 39
scalar OsgEarthNet.uav[59] utilizationCountManeuversMission 459
scalar OsgEarthNet.uav[59] utilizationCountManeuversMaintenance 78
scalar OsgEarthNet.uav[59] utilizationCountChargeState 39
scalar OsgEarthNet.uav[59] utilizationCountOverdrawnAfterMission 0
scalar OsgEarthNet.uav[59] utilizationCountIdleState 39
scalar OsgEarthNet.uav[59] utilizationFail 0
scalar OsgEarthNet.uav[59] simulationTime 259200
scalar OsgEarthNet.uav[60] utilizationSecMission 702.6942798579
scalar OsgEarthNet.uav[60] utilizationSecMaintenance 282.29565405678
scalar OsgEarthNet.uav[60] utilizationSecCharge 3720
scalar OsgEarthNet.uav[60] utilizationSecIdle 254495.00906609
scalar OsgEarthNet.uav[60] utilizationEnergyMission 3322.1877746582
scalar OsgEarthNet.uav[60] utilizationEnergyMaintenance 1340.1778068543
scalar OsgEarthNet.uav[60] utilizationEnergyCharge 4662.3662109375
scalar OsgEarthNet.uav[60] utilizationEnergyOverdrawMission 0
scalar OsgEarthNet.uav[60] utilizationEnergyOverdrawMaintenance 0
scalar OsgEarthNet.uav[60] utilizationCountMissions 1
scalar OsgEarthNet.uav[60] utilizationCountManeuversMission 10
scalar OsgEarthNet.uav[60] utilizationCountManeuversMaintenance 2
scalar OsgEarthNet.uav[60] utilizationCountChargeState 1
scalar OsgEarthNet.uav[60] utilizationCountOverdrawnAfterMission 0
scalar OsgEarthNet.uav[60] utilizationCountIdleState 2
scalar OsgEarthNet.uav[60] utilizationFail 0
scalar OsgEarthNet.uav[60] simulationTime 259200
scalar OsgEarthNet.uav[61] utilizationSecMission 28097.674948691
scalar OsgEarthNet.uav[61] utilizationSecMaintenance 14573.867780873
scalar OsgEarthNet.uav[61] utilizationSecCharge 154210
scalar OsgEarthNet.uav[61] utilizationSecIdle 62318.456270436
scalar OsgEarthNet.uav[61] utilizationEnergyMission 129515.21304033
scalar OsgEarthNet.uav[61] utilizationEnergyMaintenance 67085.197734833
scalar OsgEarthNet.uav[61] utilizationEnergyCharge 193940.23730469
scalar OsgEarthNet.uav[61] utilizationEnergyOverdrawMission 0
scalar OsgEarthNet.uav[61] utilizationEnergyOverdrawMaintenance 0
scalar OsgEarthNet.uav[61] utilizationCountMissions 41
scalar OsgEarthNet.uav[61] utilizationCountManeuversMission 445
scalar OsgEarthNet.uav[61] utilizationCountManeuversMaintenance 83
scalar OsgEarthNet.uav[61] utilizationCountChargeState 41
scalar OsgEarthNet.uav[61] utilizationCountOverdrawnAfterMission 0
scalar OsgEarthNet.uav[61] utilizationCountIdleState 42
scalar OsgEarthNet.uav[61] utilizationFail 0
scalar OsgEarthNet.uav[61] simulationTime 259200
scalar OsgEarthNet.uav[62] utilizationSecMission 694.00169469977
scalar OsgEarthNet.uav[62] utilizationSecMaintenance 338.49695459722
scalar OsgEarthNet.uav[62] utilizationSecCharge 3660
scalar OsgEarthNet.uav[62] utilizationSecIdle 254507.5003507
scalar OsgEarthNet.uav[62] utilizationEnergyMission 3085.3337554932
scalar OsgEarthNet.uav[62] utilizationEnergyMaintenance 1449.0565299988
scalar OsgEarthNet.uav[62] utilizationEnergyCharge 4534.3940429688
scalar OsgEarthNet.uav[62] utilizationEnergyOverdrawMission 0
scalar OsgEarthNet.uav[62] utilizationEnergyOverdrawMaintenance 0
scalar OsgEarthNet.uav[62] utilizationCountMissions 1
scalar OsgEarthNet.uav[62] utilizationCountManeuversMission 13
scalar OsgEarthNet.uav[62] utilizationCountManeuversMaintenance 2
scalar OsgEarthNet.uav[62] utilizationCountChargeState 1
scalar OsgEarthNet.uav[62] utilizationCountOverdrawnAfterMission 0
scalar OsgEarthNet.uav[62] utilizationCountIdleState 2
scalar OsgEarthNet.uav[62] utilizationFail 0
scalar OsgEarthNet.uav[62] simulationTime 259200
scalar OsgEarthNet.uav[63] utilizationSecMission 670.50650402609
scalar OsgEarthNet.uav[63] utilizationSecMaintenance 362.30145289341
scalar OsgEarthNet.uav[63] utilizationSecCharge 3870
scalar OsgEarthNet.uav[63] utilizationSecIdle 254297.19104308
scalar OsgEarthNet.uav[63] utilizationEnergyMission 3220.3399963379
scalar OsgEarthNet.uav[63] utilizationEnergyMaintenance 1704.2031364441
scalar OsgEarthNet.uav[63] utilizationEnergyCharge 4924.5444335938
scalar OsgEarthNet.uav[63] utilizationEnergyOverdrawMission 0
scalar OsgEarthNet.uav[63] utilizationEnergyOverdrawMaintenance 0
scalar OsgEarthNet.uav[63] utilizationCountMissions 1
scalar OsgEarthNet.uav[63] utilizationCountManeuversMission 10
scalar OsgEarthNet.uav[63] utilizationCountManeuversMaintenance 2
scalar OsgEarthNet.uav[63] utilizationCountChargeState 1
scalar OsgEarthNet.uav[63] utilizationCountOverdrawnAfterMission 0
scalar OsgEarthNet.uav[63] utilizationCountIdleState 2
scalar OsgEarthNet.uav[63] utilizationFail 0
scalar OsgEarthNet.uav[63] simulationTime 259200
scalar OsgEarthNet.uav[64] utilizationSecMission 25385.710152169
scalar OsgEarthNet.uav[64] utilizationSecMaintenance 10660.395665073
scalar OsgEarthNet.uav[64] utilizationSecCharge 133446.86597256
scalar OsgEarthNet.uav[64] utilizationSecIdle 89707.027210203
scalar OsgEarthNet.uav[64] utilizationEnergyMission 117394.19615936
scalar OsgEarthNet.uav[64] utilizationEnergyMaintenance 50292.401351929
scalar OsgEarthNet.uav[64] utilizationEnergyCharge 167494.38720703
scalar OsgEarthNet.uav[64] utilizationEnergyOverdrawMission 0
scalar OsgEarthNet.uav[64] utilizationEnergyOverdrawMaintenance 0
scalar OsgEarthNet.uav[64] utilizationCountMissions 36
scalar OsgEarthNet.uav[64] utilizationCountManeuversMission 395
scalar OsgEarthNet.uav[64] utilizationCountManeuversMaintenance 72
scalar OsgEarthNet.uav[64] utilizationCountChargeState 36
scalar OsgEarthNet.uav[64] utilizationCountOverdrawnAfterMission 0
scalar OsgEarthNet.uav[64] utilizationCountIdleState 36
scalar OsgEarthNet.uav[64] utilizationFail 0
scalar OsgEarthNet.uav[64] simulationTime 259200
scalar OsgEarthNet.uav[65] utilizationSecMission 844.68187799363
scalar OsgEarthNet.uav[65] utilizationSecMaintenance 168.94893785192
scalar OsgEarthNet.uav[65] utilizationSecCharge 3760
scalar OsgEarthNet.uav[65] utilizationSecIdle 254426.36818415
[...]
scalar OsgEarthNet.uav[82] utilizationEnergyMission 100310.54170942
scalar OsgEarthNet.uav[82] utilizationEnergyMaintenance 48589.129413605
scalar OsgEarthNet.uav[82] utilizationEnergyCharge 144412.22949219
scalar OsgEarthNet.uav[82] utilizationEnergyOverdrawMission 0
scalar OsgEarthNet.uav[82] utilizationEnergyOverdrawMaintenance 0
scalar OsgEarthNet.uav[82] utilizationCountMissions 31
scalar OsgEarthNet.uav[82] utilizationCountManeuversMission 358
scalar OsgEarthNet.uav[82] utilizationCountManeuversMaintenance 63
scalar OsgEarthNet.uav[82] utilizationCountChargeState 31
scalar OsgEarthNet.uav[82] utilizationCountOverdrawnAfterMission 0
scalar OsgEarthNet.uav[82] utilizationCountIdleState 32
scalar OsgEarthNet.uav[82] utilizationFail 0
scalar OsgEarthNet.uav[82] simulationTime 259200
scalar OsgEarthNet.uav[83] utilizationSecMission 684.4732299383
scalar OsgEarthNet.uav[83] utilizationSecMaintenance 298.56834692969
scalar OsgEarthNet.uav[83] utilizationSecCharge 3650
scalar OsgEarthNet.uav[83] utilizationSecIdle 254566.95742313
scalar OsgEarthNet.uav[83] utilizationEnergyMission 3128.811340332
scalar OsgEarthNet.uav[83] utilizationEnergyMaintenance 1438.0418319702
scalar OsgEarthNet.uav[83] utilizationEnergyCharge 4566.8540039062
scalar OsgEarthNet.uav[83] utilizationEnergyOverdrawMission 0
scalar OsgEarthNet.uav[83] utilizationEnergyOverdrawMaintenance 0
scalar OsgEarthNet.uav[83] utilizationCountMissions 1
scalar OsgEarthNet.uav[83] utilizationCountManeuversMission 11
scalar OsgEarthNet.uav[83] utilizationCountManeuversMaintenance 2
scalar OsgEarthNet.uav[83] utilizationCountChargeState 1
scalar OsgEarthNet.uav[83] utilizationCountOverdrawnAfterMission 0
scalar OsgEarthNet.uav[83] utilizationCountIdleState 2
scalar OsgEarthNet.uav[83] utilizationFail 0
scalar OsgEarthNet.uav[83] simulationTime 259200
scalar OsgEarthNet.uav[84] utilizationSecMission 2026.6700722212
scalar OsgEarthNet.uav[84] utilizationSecMaintenance 1897.7826815226
scalar OsgEarthNet.uav[84] utilizationSecCharge 14900
scalar OsgEarthNet.uav[84] utilizationSecIdle 240375.54624626
scalar OsgEarthNet.uav[84] utilizationEnergyMission 9750.9194488525
scalar OsgEarthNet.uav[84] utilizationEnergyMaintenance 8940.3132781982
scalar OsgEarthNet.uav[84] utilizationEnergyCharge 18691.229980469
scalar OsgEarthNet.uav[84] utilizationEnergyOverdrawMission 0
scalar OsgEarthNet.uav[84] utilizationEnergyOverdrawMaintenance 0
scalar OsgEarthNet.uav[84] utilizationCountMissions 4
scalar OsgEarthNet.uav[84] utilizationCountManeuversMission 37
scalar OsgEarthNet.uav[84] utilizationCountManeuversMaintenance 8
scalar OsgEarthNet.uav[84] utilizationCountChargeState 4
scalar OsgEarthNet.uav[84] utilizationCountOverdrawnAfterMission 0
scalar OsgEarthNet.uav[84] utilizationCountIdleState 5
scalar OsgEarthNet.uav[84] utilizationFail 0
scalar OsgEarthNet.uav[84] simulationTime 259200
scalar OsgEarthNet.uav[85] utilizationSecMission 22451.754565973
scalar OsgEarthNet.uav[85] utilizationSecMaintenance 8067.837740541
scalar OsgEarthNet.uav[85] utilizationSecCharge 112360
scalar OsgEarthNet.uav[85] utilizationSecIdle 116320.40669349
scalar OsgEarthNet.uav[85] utilizationEnergyMission 102923.05756378
scalar OsgEarthNet.uav[85] utilizationEnergyMaintenance 37814.335960388
scalar OsgEarthNet.uav[85] utilizationEnergyCharge 141157.45019531
scalar OsgEarthNet.uav[85] utilizationEnergyOverdrawMission 0
scalar OsgEarthNet.uav[85] utilizationEnergyOverdrawMaintenance 0
scalar OsgEarthNet.uav[85] utilizationCountMissions 30
scalar OsgEarthNet.uav[85] utilizationCountManeuversMission 371
scalar OsgEarthNet.uav[85] utilizationCountManeuversMaintenance 60
scalar OsgEarthNet.uav[85] utilizationCountChargeState 30
scalar OsgEarthNet.uav[85] utilizationCountOverdrawnAfterMission 0
scalar OsgEarthNet.uav[85] utilizationCountIdleState 31
scalar OsgEarthNet.uav[85] utilizationFail 0
scalar OsgEarthNet.uav[85] simulationTime 259200
scalar OsgEarthNet.uav[86] utilizationSecMission 750.20472747826
scalar OsgEarthNet.uav[86] utilizationSecMaintenance 335.16822070369
scalar OsgEarthNet.uav[86] utilizationSecCharge 3880
scalar OsgEarthNet.uav[86] utilizationSecIdle 254234.62605182
scalar OsgEarthNet.uav[86] utilizationEnergyMission 3377.8199768066
scalar OsgEarthNet.uav[86] utilizationEnergyMaintenance 1546.0749015808
scalar OsgEarthNet.uav[86] utilizationEnergyCharge 4923.8901367188
scalar OsgEarthNet.uav[86] utilizationEnergyOverdrawMission 0
scalar OsgEarthNet.uav[86] utilizationEnergyOverdrawMaintenance 0
scalar OsgEarthNet.uav[86] utilizationCountMissions 1
scalar OsgEarthNet.uav[86] utilizationCountManeuversMission 11
scalar OsgEarthNet.uav[86] utilizationCountManeuversMaintenance 2
scalar OsgEarthNet.uav[86] utilizationCountChargeState 1
scalar OsgEarthNet.uav[86] utilizationCountOverdrawnAfterMission 0
scalar OsgEarthNet.uav[86] utilizationCountIdleState 2
scalar OsgEarthNet.uav[86] utilizationFail 0
scalar OsgEarthNet.uav[86] simulationTime 259200
scalar OsgEarthNet.uav[87] utilizationSecMission 19022.295911097
scalar OsgEarthNet.uav[87] utilizationSecMaintenance 8589.8308235655
scalar OsgEarthNet.uav[87] utilizationSecCharge 101850
scalar OsgEarthNet.uav[87] utilizationSecIdle 129737.87226534
scalar OsgEarthNet.uav[87] utilizationEnergyMission 87456.079994202
scalar OsgEarthNet.uav[87] utilizationEnergyMaintenance 40345.926605225
scalar OsgEarthNet.uav[87] utilizationEnergyCharge 128136.73730469
scalar OsgEarthNet.uav[87] utilizationEnergyOverdrawMission 0
scalar OsgEarthNet.uav[87] utilizationEnergyOverdrawMaintenance 0
scalar OsgEarthNet.uav[87] utilizationCountMissions 27
scalar OsgEarthNet.uav[87] utilizationCountManeuversMission 313
scalar OsgEarthNet.uav[87] utilizationCountManeuversMaintenance 54
scalar OsgEarthNet.uav[87] utilizationCountChargeState 27
scalar OsgEarthNet.uav[87] utilizationCountOverdrawnAfterMission 0
scalar OsgEarthNet.uav[87] utilizationCountIdleState 28
scalar OsgEarthNet.uav[87] utilizationFail 0
scalar OsgEarthNet.uav[87] simulationTime 259200
scalar OsgEarthNet.uav[88] utilizationSecMission 11599.750988649
scalar OsgEarthNet.uav[88] utilizationSecMaintenance 3783.4894124108
scalar OsgEarthNet.uav[88] utilizationSecCharge 55900
scalar OsgEarthNet.uav[88] utilizationSecIdle 187916.75859894
scalar OsgEarthNet.uav[88] utilizationEnergyMission 52616.683189392
scalar OsgEarthNet.uav[88] utilizationEnergyMaintenance 17176.708042145
scalar OsgEarthNet.uav[88] utilizationEnergyCharge 70053.916503906
scalar OsgEarthNet.uav[88] utilizationEnergyOverdrawMission 0
scalar OsgEarthNet.uav[88] utilizationEnergyOverdrawMaintenance 0
scalar OsgEarthNet.uav[88] utilizationCountMissions 15
scalar OsgEarthNet.uav[88] utilizationCountManeuversMission 194
scalar OsgEarthNet.uav[88] utilizationCountManeuversMaintenance 30
scalar OsgEarthNet.uav[88] utilizationCountChargeState 15
scalar OsgEarthNet.uav[88] utilizationCountOverdrawnAfterMission 0
scalar OsgEarthNet.uav[88] utilizationCountIdleState 16
scalar OsgEarthNet.uav[88] utilizationFail 0
scalar OsgEarthNet.uav[88] simulationTime 259200
scalar OsgEarthNet.uav[89] utilizationSecMission 3467.5892801343
scalar OsgEarthNet.uav[89] utilizationSecMaintenance 2310.0195611532
scalar OsgEarthNet.uav[89] utilizationSecCharge 22200
scalar OsgEarthNet.uav[89] utilizationSecIdle 231222.39015871
scalar OsgEarthNet.uav[89] utilizationEnergyMission 16349.472167969
scalar OsgEarthNet.uav[89] utilizationEnergyMaintenance 11274.459888458
scalar OsgEarthNet.uav[89] utilizationEnergyCharge 27694.557617188
scalar OsgEarthNet.uav[89] utilizationEnergyOverdrawMission 0
scalar OsgEarthNet.uav[89] utilizationEnergyOverdrawMaintenance 0
scalar OsgEarthNet.uav[89] utilizationCountMissions 6
scalar OsgEarthNet.uav[89] utilizationCountManeuversMission 60
scalar OsgEarthNet.uav[89] utilizationCountManeuversMaintenance 12
scalar OsgEarthNet.uav[89] utilizationCountChargeState 6
scalar OsgEarthNet.uav[89] utilizationCountOverdrawnAfterMission 0
scalar OsgEarthNet.uav[89] utilizationCountIdleState 7
scalar OsgEarthNet.uav[89] utilizationFail 0
scalar OsgEarthNet.uav[89] simulationTime 259200
scalar OsgEarthNet.uav[90] utilizationSecMission 684.4732299383
scalar OsgEarthNet.uav[90] utilizationSecMaintenance 298.56834692969
scalar OsgEarthNet.uav[90] utilizationSecCharge 3760
scalar OsgEarthNet.uav[90] utilizationSecIdle 254456.95742313
scalar OsgEarthNet.uav[90] utilizationEnergyMission 3317.4221954346
scalar OsgEarthNet.uav[90] utilizationEnergyMaintenance 1370.5857467651
scalar OsgEarthNet.uav[90] utilizationEnergyCharge 4688.0087890625
scalar OsgEarthNet.uav[90] utilizationEnergyOverdrawMission 0
scalar OsgEarthNet.uav[90] utilizationEnergyOverdrawMaintenance 0
scalar OsgEarthNet.uav[90] utilizationCountMissions 1
scalar OsgEarthNet.uav[90] utilizationCountManeuversMission 11
scalar OsgEarthNet.uav[90] utilizationCountManeuversMaintenance 2
scalar OsgEarthNet.uav[90] utilizationCountChargeState 1
scalar OsgEarthNet.uav[90] utilizationCountOverdrawnAfterMission 0
scalar OsgEarthNet.uav[90] utilizationCountIdleState 2
scalar OsgEarthNet.uav[90] utilizationFail 0
scalar OsgEarthNet.uav[90] simulationTime 259200
scalar OsgEarthNet.uav[91] utilizationSecMission 29086.778693613
scalar OsgEarthNet.uav[91] utilizationSecMaintenance 15020.840466586
scalar OsgEarthNet.uav[91] utilizationSecCharge 160344.72366211
scalar OsgEarthNet.uav[91] utilizationSecIdle 54747.656177689
scalar OsgEarthNet.uav[91] utilizationEnergyMission 134430.07262421
scalar OsgEarthNet.uav[91] utilizationEnergyMaintenance 70699.46598053
scalar OsgEarthNet.uav[91] utilizationEnergyCharge 200542.97064209
scalar OsgEarthNet.uav[91] utilizationEnergyOverdrawMission 0
scalar OsgEarthNet.uav[91] utilizationEnergyOverdrawMaintenance 0
scalar OsgEarthNet.uav[91] utilizationCountMissions 44
scalar OsgEarthNet.uav[91] utilizationCountManeuversMission 494
scalar OsgEarthNet.uav[91] utilizationCountManeuversMaintenance 88
scalar OsgEarthNet.uav[91] utilizationCountChargeState 44
scalar OsgEarthNet.uav[91] utilizationCountOverdrawnAfterMission 0
scalar OsgEarthNet.uav[91] utilizationCountIdleState 44
scalar OsgEarthNet.uav[91] utilizationFail 0
scalar OsgEarthNet.uav[91] simulationTime 259200
scalar OsgEarthNet.uav[92] utilizationSecMission 29726.376446274
scalar OsgEarthNet.uav[92] utilizationSecMaintenance 13756.172289695
scalar OsgEarthNet.uav[92] utilizationSecCharge 160840
scalar OsgEarthNet.uav[92] utilizationSecIdle 54877.450264031
scalar OsgEarthNet.uav[92] utilizationEnergyMission 138260.14296158
scalar OsgEarthNet.uav[92] utilizationEnergyMaintenance 65060.521911621
scalar OsgEarthNet.uav[92] utilizationEnergyCharge 202002.66699219
scalar OsgEarthNet.uav[92] utilizationEnergyOverdrawMission 0
scalar OsgEarthNet.uav[92] utilizationEnergyOverdrawMaintenance 0
scalar OsgEarthNet.uav[92] utilizationCountMissions 43
scalar OsgEarthNet.uav[92] utilizationCountManeuversMission 492
scalar OsgEarthNet.uav[92] utilizationCountManeuversMaintenance 87
scalar OsgEarthNet.uav[92] utilizationCountChargeState 43
scalar OsgEarthNet.uav[92] utilizationCountOverdrawnAfterMission 0
scalar OsgEarthNet.uav[92] utilizationCountIdleState 44
scalar OsgEarthNet.uav[92] utilizationFail 0
scalar OsgEarthNet.uav[92] simulationTime 259200
scalar OsgEarthNet.uav[93] utilizationSecMission 553.12566654921
scalar OsgEarthNet.uav[93] utilizationSecMaintenance 450.43069856406
scalar OsgEarthNet.uav[93] utilizationSecCharge 3820
scalar OsgEarthNet.uav[93] utilizationSecIdle 254376.44263489
scalar OsgEarthNet.uav[93] utilizationEnergyMission 2596.1480712891
scalar OsgEarthNet.uav[93] utilizationEnergyMaintenance 2125.2808952332
scalar OsgEarthNet.uav[93] utilizationEnergyCharge 4798.7250976562
scalar OsgEarthNet.uav[93] utilizationEnergyOverdrawMission 0
scalar OsgEarthNet.uav[93] utilizationEnergyOverdrawMaintenance 0
scalar OsgEarthNet.uav[93] utilizationCountMissions 1
scalar OsgEarthNet.uav[93] utilizationCountManeuversMission 9
scalar OsgEarthNet.uav[93] utilizationCountManeuversMaintenance 2
scalar OsgEarthNet.uav[93] utilizationCountChargeState 1
scalar OsgEarthNet.uav[93] utilizationCountOverdrawnAfterMission 0
scalar OsgEarthNet.uav[93] utilizationCountIdleState 2
scalar OsgEarthNet.uav[93] utilizationFail 0
scalar OsgEarthNet.uav[93] simulationTime 259200
scalar OsgEarthNet.uav[94] utilizationSecMission 28842.246666785
scalar OsgEarthNet.uav[94] utilizationSecMaintenance 14233.06284396
scalar OsgEarthNet.uav[94] utilizationSecCharge 160900
scalar OsgEarthNet.uav[94] utilizationSecIdle 55224.689489255
scalar OsgEarthNet.uav[94] utilizationEnergyMission 134469.94016266
scalar OsgEarthNet.uav[94] utilizationEnergyMaintenance 67474.133605957
scalar OsgEarthNet.uav[94] utilizationEnergyCharge 201915.45214844
scalar OsgEarthNet.uav[94] utilizationEnergyOverdrawMission 0
scalar OsgEarthNet.uav[94] utilizationEnergyOverdrawMaintenance 0
scalar OsgEarthNet.uav[94] utilizationCountMissions 43
scalar OsgEarthNet.uav[94] utilizationCountManeuversMission 467
scalar OsgEarthNet.uav[94] utilizationCountManeuversMaintenance 86
scalar OsgEarthNet.uav[94] utilizationCountChargeState 43
scalar OsgEarthNet.uav[94] utilizationCountOverdrawnAfterMission 0
scalar OsgEarthNet.uav[94] utilizationCountIdleState 44
scalar OsgEarthNet.uav[94] utilizationFail 0
scalar OsgEarthNet.uav[94] simulationTime 259200
scalar OsgEarthNet.uav[95] utilizationSecMission 27644.422793999
scalar OsgEarthNet.uav[95] utilizationSecMaintenance 12923.689064046
scalar OsgEarthNet.uav[95] utilizationSecCharge 149370
scalar OsgEarthNet.uav[95] utilizationSecIdle 69261.887141955
scalar OsgEarthNet.uav[95] utilizationEnergyMission 127423.10405731
scalar OsgEarthNet.uav[95] utilizationEnergyMaintenance 59768.25189209
scalar OsgEarthNet.uav[95] utilizationEnergyCharge 187015.16064453
scalar OsgEarthNet.uav[95] utilizationEnergyOverdrawMission 0
scalar OsgEarthNet.uav[95] utilizationEnergyOverdrawMaintenance 0
scalar OsgEarthNet.uav[95] utilizationCountMissions 40
scalar OsgEarthNet.uav[95] utilizationCountManeuversMission 456
scalar OsgEarthNet.uav[95] utilizationCountManeuversMaintenance 80
scalar OsgEarthNet.uav[95] utilizationCountChargeState 40
scalar OsgEarthNet.uav[95] utilizationCountOverdrawnAfterMission 0
scalar OsgEarthNet.uav[95] utilizationCountIdleState 41
scalar OsgEarthNet.uav[95] utilizationFail 0
scalar OsgEarthNet.uav[95] simulationTime 259200
scalar OsgEarthNet.uav[96] utilizationSecMission 5977.640220809
scalar OsgEarthNet.uav[96] utilizationSecMaintenance 5380.7671733837
scalar OsgEarthNet.uav[96] utilizationSecCharge 41700
scalar OsgEarthNet.uav[96] utilizationSecIdle 206141.59160581
scalar OsgEarthNet.uav[96] utilizationEnergyMission 28357.912788391
scalar OsgEarthNet.uav[96] utilizationEnergyMaintenance 24498.019260407
scalar OsgEarthNet.uav[96] utilizationEnergyCharge 52774.277832031
scalar OsgEarthNet.uav[96] utilizationEnergyOverdrawMission 0
scalar OsgEarthNet.uav[96] utilizationEnergyOverdrawMaintenance 0
scalar OsgEarthNet.uav[96] utilizationCountMissions 11
scalar OsgEarthNet.uav[96] utilizationCountManeuversMission 97
scalar OsgEarthNet.uav[96] utilizationCountManeuversMaintenance 22
scalar OsgEarthNet.uav[96] utilizationCountChargeState 11
scalar OsgEarthNet.uav[96] utilizationCountOverdrawnAfterMission 0
scalar OsgEarthNet.uav[96] utilizationCountIdleState 12
scalar OsgEarthNet.uav[96] utilizationFail 0
scalar OsgEarthNet.uav[96] simulationTime 259200
scalar OsgEarthNet.uav[97] utilizationSecMission 28453.956789489
scalar OsgEarthNet.uav[97] utilizationSecMaintenance 15806.208202621
scalar OsgEarthNet.uav[97] utilizationSecCharge 161658.77017943
scalar OsgEarthNet.uav[97] utilizationSecIdle 53281.063828465
scalar OsgEarthNet.uav[97] utilizationEnergyMission 130100.63119125
scalar OsgEarthNet.uav[97] utilizationEnergyMaintenance 74635.752475739
scalar OsgEarthNet.uav[97] utilizationEnergyCharge 204848.13330078
scalar OsgEarthNet.uav[97] utilizationEnergyOverdrawMission 0
scalar OsgEarthNet.uav[97] utilizationEnergyOverdrawMaintenance 0
scalar OsgEarthNet.uav[97] utilizationCountMissions 43
scalar OsgEarthNet.uav[97] utilizationCountManeuversMission 483
scalar OsgEarthNet.uav[97] utilizationCountManeuversMaintenance 86
scalar OsgEarthNet.uav[97] utilizationCountChargeState 43
scalar OsgEarthNet.uav[97] utilizationCountOverdrawnAfterMission 0
scalar OsgEarthNet.uav[97] utilizationCountIdleState 42
scalar OsgEarthNet.uav[97] utilizationFail 0
scalar OsgEarthNet.uav[97] simulationTime 259200
scalar OsgEarthNet.uav[98] utilizationSecMission 28335.010141154
scalar OsgEarthNet.uav[98] utilizationSecMaintenance 14346.588461891
scalar OsgEarthNet.uav[98] utilizationSecCharge 156042.94474355
scalar OsgEarthNet.uav[98] utilizationSecIdle 60475.455653403
scalar OsgEarthNet.uav[98] utilizationEnergyMission 131220.89902496
scalar OsgEarthNet.uav[98] utilizationEnergyMaintenance 67019.940830231
scalar OsgEarthNet.uav[98] utilizationEnergyCharge 197106.91479492
scalar OsgEarthNet.uav[98] utilizationEnergyOverdrawMission 0
scalar OsgEarthNet.uav[98] utilizationEnergyOverdrawMaintenance 0
scalar OsgEarthNet.uav[98] utilizationCountMissions 42
scalar OsgEarthNet.uav[98] utilizationCountManeuversMission 477
scalar OsgEarthNet.uav[98] utilizationCountManeuversMaintenance 84
scalar OsgEarthNet.uav[98] utilizationCountChargeState 42
scalar OsgEarthNet.uav[98] utilizationCountOverdrawnAfterMission 0
scalar OsgEarthNet.uav[98] utilizationCountIdleState 41
scalar OsgEarthNet.uav[98] utilizationFail 0
scalar OsgEarthNet.uav[98] simulationTime 259200
scalar OsgEarthNet.uav[99] utilizationSecMission 28948.207652047
scalar OsgEarthNet.uav[99] utilizationSecMaintenance 14266.716646465
scalar OsgEarthNet.uav[99] utilizationSecCharge 157183.56104054
scalar OsgEarthNet.uav[99] utilizationSecIdle 58801.51366095
scalar OsgEarthNet.uav[99] utilizationEnergyMission 133757.09420013
scalar OsgEarthNet.uav[99] utilizationEnergyMaintenance 67464.39932251
scalar OsgEarthNet.uav[99] utilizationEnergyCharge 197067.7310791
scalar OsgEarthNet.uav[99] utilizationEnergyOverdrawMission 0
scalar OsgEarthNet.uav[99] utilizationEnergyOverdrawMaintenance 0
scalar OsgEarthNet.uav[99] utilizationCountMissions 43
scalar OsgEarthNet.uav[99] utilizationCountManeuversMission 480
scalar OsgEarthNet.uav[99] utilizationCountManeuversMaintenance 86
scalar OsgEarthNet.uav[99] utilizationCountChargeState 43
scalar OsgEarthNet.uav[99] utilizationCountOverdrawnAfterMission 0
scalar OsgEarthNet.uav[99] utilizationCountIdleState 43
scalar OsgEarthNet.uav[99] utilizationFail 0
scalar OsgEarthNet.uav[99] simulationTime 259200
scalar OsgEarthNet.cs[0] usedPower 630226.5442675
scalar OsgEarthNet.cs[0] chargedPower 630226.5442675
scalar OsgEarthNet.cs[0] chargedMobileNodes 132
scalar OsgEarthNet.cs[0] reservations 134
scalar OsgEarthNet.cs[1] usedPower 1053282.875283
scalar OsgEarthNet.cs[1] chargedPower 1053282.875283
scalar OsgEarthNet.cs[1] chargedMobileNodes 222
scalar OsgEarthNet.cs[1] reservations 226
scalar OsgEarthNet.cs[2] usedPower 2613173.7112778
scalar OsgEarthNet.cs[2] chargedPower 2613173.7112778
scalar OsgEarthNet.cs[2] chargedMobileNodes 548
scalar OsgEarthNet.cs[2] reservations 559
scalar OsgEarthNet.cs[3] usedPower 813644.25583152
scalar OsgEarthNet.cs[3] chargedPower 813644.25583152
scalar OsgEarthNet.cs[3] chargedMobileNodes 175
scalar OsgEarthNet.cs[3] reservations 175
scalar OsgEarthNet.cs[4] usedPower 706911.80531875
scalar OsgEarthNet.cs[4] chargedPower 706911.80531875
scalar OsgEarthNet.cs[4] chargedMobileNodes 151
scalar OsgEarthNet.cs[4] reservations 153
scalar OsgEarthNet.cs[5] usedPower 485482.36343875
scalar OsgEarthNet.cs[5] chargedPower 485482.36343875
scalar OsgEarthNet.cs[5] chargedMobileNodes 101
scalar OsgEarthNet.cs[5] reservations 104
scalar OsgEarthNet.cs[6] usedPower 2438974.1510869
scalar OsgEarthNet.cs[6] chargedPower 2438974.1510869
scalar OsgEarthNet.cs[6] chargedMobileNodes 518
scalar OsgEarthNet.cs[6] reservations 524

