version 2
run Szenario_Hotel_Gabelbach-62-20180709-15:29:18-20392
attr configname Szenario_Hotel_Gabelbach
attr datetime 20180709-15:29:18
attr experiment Szenario_Hotel_Gabelbach
attr inifile omnetpp.ini
attr iterationvars "$replM=2, $biWeight=0.7"
attr iterationvarsf replM=2,biWeight=0.7-
attr measurement "$replM=2, $biWeight=0.7"
attr network OsgEarthNet
attr processid 20392
attr repetition 2
attr replication #2
attr resultdir results
attr runnumber 62
attr seedset 62
itervar biWeight 0.7
itervar replM 2
param *.osgEarthScene.scene "\"Szenario_Hotel_Gabelbach.earth\""
param *.playgroundLatitude 50.6830269
param *.playgroundLongitude 10.8538055
param *.playgroundWidth 3500m
param *.playgroundHeight 3500m
param *.numUAVs 100
param *.cs[0].posX 3537m
param *.cs[0].posY 965m
param *.cs[0].posZ 538m
param *.cs[1].posX 312m
param *.cs[1].posY 1262m
param *.cs[1].posZ 539m
param *.cs[2].posX 2185m
param *.cs[2].posY 3026m
param *.cs[2].posZ 777m
param *.cs[3].posX 10m
param *.cs[3].posY 2200m
param *.cs[3].posZ 560m
param *.cs[4].posX 750m
param *.cs[4].posY 200m
param *.cs[4].posZ 540m
param *.cs[5].posX 2450m
param *.cs[5].posY 180m
param *.cs[5].posZ 524m
param *.cs[6].posX 3140m
param *.cs[6].posY 1790m
param *.cs[6].posZ 606m
param *.numCSs 7
param *.uav[*].replacementMethod 2
param *.uav[*].weightedSumWeight 0.7
param *.*.timeStep 10s
param *.uav[*].commandPreviewCommandCount 20
param *.missionControl.missionFiles "\"missions\\\\Szenario_WB_Hotel_Gabelbach_Mission_Hotel.waypoints,missions\\\\Szenario_WB_Hotel_Gabelbach_Mission_Kickelhahn.waypoints,missions\\\\Szenario_WB_Hotel_Gabelbach_Mission_Ilmenau_Sportplatz.waypoints,missions\\\\Szenario_WB_Hotel_Gabelbach_Mission_Manebach_Mitte.waypoints,missions\\\\Szenario_WB_Hotel_Gabelbach_Mission_Manebach_Sued.waypoints\""
param *.missionControl.missionFiles "\"missions\\\\Szenario_WB_Hotel_Gabelbach_Mission_Hotel.waypoints,missions\\\\Szenario_WB_Hotel_Gabelbach_Mission_Kickelhahn.waypoints,missions\\\\Szenario_WB_Hotel_Gabelbach_Mission_Ilmenau_Sportplatz.waypoints,missions\\\\Szenario_WB_Hotel_Gabelbach_Mission_Manebach_Mitte.waypoints,missions\\\\Szenario_WB_Hotel_Gabelbach_Mission_Manebach_Sued.waypoints,missions\\\\Szenario_WB_Hotel_Gabelbach_Hover_HoheSchlaufe.waypoints,missions\\\\Szenario_WB_Hotel_Gabelbach_Hover_Kickelhahn.waypoints,missions\\\\Szenario_WB_Hotel_Gabelbach_Hover_Gabelbachskopf.waypoints,missions\\\\Szenario_WB_Hotel_Gabelbach_Hover_Dachskopf.waypoints\""
param *.uav[0].startX 3537m
param *.uav[0].startY 965m
param *.uav[0].startZ 539m
param *.uav[1].startX 312m
param *.uav[1].startY 1262m
param *.uav[1].startZ 540m
param *.uav[2].startX 2185m
param *.uav[2].startY 3026m
param *.uav[2].startZ 778m
param *.uav[3].startX 3537m
param *.uav[3].startY 965m
param *.uav[3].startZ 539m
param *.uav[4].startX 312m
param *.uav[4].startY 1262m
param *.uav[4].startZ 540m
param *.uav[5].startX 2185m
param *.uav[5].startY 3026m
param *.uav[5].startZ 778m
param *.uav[6].startX 3537m
param *.uav[6].startY 965m
param *.uav[6].startZ 539m
param *.uav[7].startX 312m
param *.uav[7].startY 1262m
param *.uav[7].startZ 540m
param *.uav[8].startX 2185m
param *.uav[8].startY 3026m
param *.uav[8].startZ 778m
param *.uav[9].startX 3537m
param *.uav[9].startY 965m
param *.uav[9].startZ 539m
param *.uav[10].startX 3537m
param *.uav[10].startY 965m
param *.uav[10].startZ 539m
param *.uav[11].startX 312m
param *.uav[11].startY 1262m
param *.uav[11].startZ 540m
param *.uav[12].startX 2185m
param *.uav[12].startY 3026m
param *.uav[12].startZ 778m
param *.uav[13].startX 3537m
param *.uav[13].startY 965m
param *.uav[13].startZ 539m
param *.uav[14].startX 312m
param *.uav[14].startY 1262m
param *.uav[14].startZ 540m
param *.uav[15].startX 2185m
param *.uav[15].startY 3026m
param *.uav[15].startZ 778m
param *.uav[16].startX 3537m
param *.uav[16].startY 965m
param *.uav[16].startZ 539m
param *.uav[17].startX 312m
param *.uav[17].startY 1262m
param *.uav[17].startZ 540m
param *.uav[18].startX 2185m
param *.uav[18].startY 3026m
param *.uav[18].startZ 778m
param *.uav[19].startX 3537m
param *.uav[19].startY 965m
param *.uav[19].startZ 539m
param *.uav[20].startX 3537m
param *.uav[20].startY 965m
param *.uav[20].startZ 539m
param *.uav[21].startX 312m
param *.uav[21].startY 1262m
param *.uav[21].startZ 540m
param *.uav[22].startX 2185m
param *.uav[22].startY 3026m
param *.uav[22].startZ 778m
param *.uav[23].startX 3537m
param *.uav[23].startY 965m
param *.uav[23].startZ 539m
param *.uav[24].startX 312m
param *.uav[24].startY 1262m
param *.uav[24].startZ 540m
param *.uav[25].startX 2185m
param *.uav[25].startY 3026m
param *.uav[25].startZ 778m
param *.uav[26].startX 3537m
param *.uav[26].startY 965m
param *.uav[26].startZ 539m
param *.uav[27].startX 312m
param *.uav[27].startY 1262m
param *.uav[27].startZ 540m
param *.uav[28].startX 2185m
param *.uav[28].startY 3026m
param *.uav[28].startZ 778m
param *.uav[29].startX 3537m
param *.uav[29].startY 965m
param *.uav[29].startZ 539m
param *.uav[30].startX 3537m
param *.uav[30].startY 965m
param *.uav[30].startZ 539m
param *.uav[31].startX 312m
param *.uav[31].startY 1262m
param *.uav[31].startZ 540m
param *.uav[32].startX 2185m
param *.uav[32].startY 3026m
param *.uav[32].startZ 778m
param *.uav[33].startX 3537m
param *.uav[33].startY 965m
param *.uav[33].startZ 539m
param *.uav[34].startX 312m
param *.uav[34].startY 1262m
param *.uav[34].startZ 540m
param *.uav[35].startX 2185m
param *.uav[35].startY 3026m
param *.uav[35].startZ 778m
param *.uav[36].startX 3537m
param *.uav[36].startY 965m
param *.uav[36].startZ 539m
param *.uav[37].startX 312m
param *.uav[37].startY 1262m
param *.uav[37].startZ 540m
param *.uav[38].startX 2185m
param *.uav[38].startY 3026m
param *.uav[38].startZ 778m
param *.uav[39].startX 3537m
param *.uav[39].startY 965m
param *.uav[39].startZ 539m
param *.uav[40].startX 3537m
param *.uav[40].startY 965m
param *.uav[40].startZ 539m
param *.uav[41].startX 312m
param *.uav[41].startY 1262m
param *.uav[41].startZ 540m
param *.uav[42].startX 2185m
param *.uav[42].startY 3026m
param *.uav[42].startZ 778m
param *.uav[43].startX 3537m
param *.uav[43].startY 965m
param *.uav[43].startZ 539m
param *.uav[44].startX 312m
param *.uav[44].startY 1262m
param *.uav[44].startZ 540m
param *.uav[45].startX 2185m
param *.uav[45].startY 3026m
param *.uav[45].startZ 778m
param *.uav[46].startX 3537m
param *.uav[46].startY 965m
param *.uav[46].startZ 539m
param *.uav[47].startX 312m
param *.uav[47].startY 1262m
param *.uav[47].startZ 540m
param *.uav[48].startX 2185m
param *.uav[48].startY 3026m
param *.uav[48].startZ 778m
param *.uav[49].startX 3537m
param *.uav[49].startY 965m
param *.uav[49].startZ 539m
param *.uav[50].startX 3537m
param *.uav[50].startY 965m
param *.uav[50].startZ 539m
param *.uav[51].startX 312m
param *.uav[51].startY 1262m
param *.uav[51].startZ 540m
param *.uav[52].startX 2185m
param *.uav[52].startY 3026m
param *.uav[52].startZ 778m
param *.uav[53].startX 3537m
param *.uav[53].startY 965m
param *.uav[53].startZ 539m
param *.uav[54].startX 312m
param *.uav[54].startY 1262m
param *.uav[54].startZ 540m
param *.uav[55].startX 2185m
param *.uav[55].startY 3026m
param *.uav[55].startZ 778m
param *.uav[56].startX 3537m
param *.uav[56].startY 965m
param *.uav[56].startZ 539m
param *.uav[57].startX 312m
param *.uav[57].startY 1262m
param *.uav[57].startZ 540m
param *.uav[58].startX 2185m
param *.uav[58].startY 3026m
param *.uav[58].startZ 778m
param *.uav[59].startX 3537m
param *.uav[59].startY 965m
param *.uav[59].startZ 539m
param *.uav[60].startX 3537m
param *.uav[60].startY 965m
param *.uav[60].startZ 539m
param *.uav[61].startX 312m
param *.uav[61].startY 1262m
param *.uav[61].startZ 540m
param *.uav[62].startX 2185m
param *.uav[62].startY 3026m
param *.uav[62].startZ 778m
param *.uav[63].startX 3537m
param *.uav[63].startY 965m
param *.uav[63].startZ 539m
param *.uav[64].startX 312m
param *.uav[64].startY 1262m
param *.uav[64].startZ 540m
param *.uav[65].startX 2185m
param *.uav[65].startY 3026m
param *.uav[65].startZ 778m
param *.uav[66].startX 3537m
param *.uav[66].startY 965m
param *.uav[66].startZ 539m
param *.uav[67].startX 312m
param *.uav[67].startY 1262m
param *.uav[67].startZ 540m
param *.uav[68].startX 2185m
param *.uav[68].startY 3026m
param *.uav[68].startZ 778m
param *.uav[69].startX 3537m
param *.uav[69].startY 965m
param *.uav[69].startZ 539m
param *.uav[70].startX 3537m
param *.uav[70].startY 965m
param *.uav[70].startZ 539m
param *.uav[71].startX 312m
param *.uav[71].startY 1262m
param *.uav[71].startZ 540m
param *.uav[72].startX 2185m
param *.uav[72].startY 3026m
param *.uav[72].startZ 778m
param *.uav[73].startX 3537m
param *.uav[73].startY 965m
param *.uav[73].startZ 539m
param *.uav[74].startX 312m
param *.uav[74].startY 1262m
param *.uav[74].startZ 540m
param *.uav[75].startX 2185m
param *.uav[75].startY 3026m
param *.uav[75].startZ 778m
param *.uav[76].startX 3537m
param *.uav[76].startY 965m
param *.uav[76].startZ 539m
param *.uav[77].startX 312m
param *.uav[77].startY 1262m
param *.uav[77].startZ 540m
param *.uav[78].startX 2185m
param *.uav[78].startY 3026m
param *.uav[78].startZ 778m
param *.uav[79].startX 3537m
param *.uav[79].startY 965m
param *.uav[79].startZ 539m
param *.uav[80].startX 3537m
param *.uav[80].startY 965m
param *.uav[80].startZ 539m
param *.uav[81].startX 312m
param *.uav[81].startY 1262m
param *.uav[81].startZ 540m
param *.uav[82].startX 2185m
param *.uav[82].startY 3026m
param *.uav[82].startZ 778m
param *.uav[83].startX 3537m
param *.uav[83].startY 965m
param *.uav[83].startZ 539m
param *.uav[84].startX 312m
param *.uav[84].startY 1262m
param *.uav[84].startZ 540m
param *.uav[85].startX 2185m
param *.uav[85].startY 3026m
param *.uav[85].startZ 778m
param *.uav[86].startX 3537m
param *.uav[86].startY 965m
param *.uav[86].startZ 539m
param *.uav[87].startX 312m
param *.uav[87].startY 1262m
param *.uav[87].startZ 540m
param *.uav[88].startX 2185m
param *.uav[88].startY 3026m
param *.uav[88].startZ 778m
param *.uav[89].startX 3537m
param *.uav[89].startY 965m
param *.uav[89].startZ 539m
param *.uav[90].startX 3537m
param *.uav[90].startY 965m
param *.uav[90].startZ 539m
param *.uav[91].startX 312m
param *.uav[91].startY 1262m
param *.uav[91].startZ 540m
param *.uav[92].startX 2185m
param *.uav[92].startY 3026m
param *.uav[92].startZ 778m
param *.uav[93].startX 3537m
param *.uav[93].startY 965m
param *.uav[93].startZ 539m
param *.uav[94].startX 312m
param *.uav[94].startY 1262m
param *.uav[94].startZ 540m
param *.uav[95].startX 2185m
param *.uav[95].startY 3026m
param *.uav[95].startZ 778m
param *.uav[96].startX 3537m
param *.uav[96].startY 965m
param *.uav[96].startZ 539m
param *.uav[97].startX 312m
param *.uav[97].startY 1262m
param *.uav[97].startZ 540m
param *.uav[98].startX 2185m
param *.uav[98].startY 3026m
param *.uav[98].startZ 778m
param *.uav[99].startX 3537m
param *.uav[99].startY 965m
param *.uav[99].startZ 539m
param *.osgEarthScene.scene "\"boston.earth\""
param *.playgroundLatitude 42.3558
param *.playgroundLongitude -71.0677
param *.playgroundWidth 400m
param *.playgroundHeight 200m
param *.channelController.connectionColor "\"#0000FF40\""
param *.channelController.showConnections false
param *.uav[*].modelURL "\"quadrocopter.small.obj.15.scale.0,0,90.rot\""
param *.uav[*].labelColor "\"#FF7C00CC\""
param *.uav[*].label2Color "\"#FF7C00EE\""
param *.uav[*].batteryCapacity 5200mAh
param *.uav[*].batteryRemaining uav[index].batteryCapacity
param *.uav[*].predictionQuantile 0.95
param *.uav[*].replacementMethod 2
param *.uav[*].weightedSumWeight 0.5
param *.cs[*].modelURL "\"chargingstation_v1.osgt.2.scale.0,0,0.rot.0,0,-15e-1.trans\""
param *.cs[*].spotsWaiting 999
param *.cs[*].spotsCharging 999
param *.cs[*].chargeEffectivenessPercentage 100
param *.cs[*].nonLinearPhaseStartPercentage 85
param *.cs[*].chargeCurrent 6.0A
param *.cs[*].prioritizeFastCharge true
param *.missionControl.replacementSearchMethod 0
param *.*.timeStep 9s

scalar OsgEarthNet.uav[0] utilizationSecMission 760.62515258028
scalar OsgEarthNet.uav[0] utilizationSecMaintenance 291.95923480269
scalar OsgEarthNet.uav[0] utilizationSecCharge 3880
scalar OsgEarthNet.uav[0] utilizationSecIdle 254267.41461262
scalar OsgEarthNet.uav[0] utilizationEnergyMission 3494.6883926392
scalar OsgEarthNet.uav[0] utilizationEnergyMaintenance 1486.7914047241
scalar OsgEarthNet.uav[0] utilizationEnergyCharge 4981.482421875
scalar OsgEarthNet.uav[0] utilizationEnergyOverdrawMission 0
scalar OsgEarthNet.uav[0] utilizationEnergyOverdrawMaintenance 0
scalar OsgEarthNet.uav[0] utilizationCountMissions 1
scalar OsgEarthNet.uav[0] utilizationCountManeuversMission 12
scalar OsgEarthNet.uav[0] utilizationCountManeuversMaintenance 2
scalar OsgEarthNet.uav[0] utilizationCountChargeState 1
scalar OsgEarthNet.uav[0] utilizationCountOverdrawnAfterMission 0
scalar OsgEarthNet.uav[0] utilizationCountIdleState 2
scalar OsgEarthNet.uav[0] utilizationFail 0
scalar OsgEarthNet.uav[0] simulationTime 259200
scalar OsgEarthNet.uav[1] utilizationSecMission 27660.3099717
scalar OsgEarthNet.uav[1] utilizationSecMaintenance 14314.28003093
scalar OsgEarthNet.uav[1] utilizationSecCharge 152740
scalar OsgEarthNet.uav[1] utilizationSecIdle 64485.40899737
scalar OsgEarthNet.uav[1] utilizationEnergyMission 127506.59822751
scalar OsgEarthNet.uav[1] utilizationEnergyMaintenance 67613.455623627
scalar OsgEarthNet.uav[1] utilizationEnergyCharge 191415.40771484
scalar OsgEarthNet.uav[1] utilizationEnergyOverdrawMission 0
scalar OsgEarthNet.uav[1] utilizationEnergyOverdrawMaintenance 0
scalar OsgEarthNet.uav[1] utilizationCountMissions 41
scalar OsgEarthNet.uav[1] utilizationCountManeuversMission 461
scalar OsgEarthNet.uav[1] utilizationCountManeuversMaintenance 83
scalar OsgEarthNet.uav[1] utilizationCountChargeState 41
scalar OsgEarthNet.uav[1] utilizationCountOverdrawnAfterMission 0
scalar OsgEarthNet.uav[1] utilizationCountIdleState 42
scalar OsgEarthNet.uav[1] utilizationFail 0
scalar OsgEarthNet.uav[1] simulationTime 259200
scalar OsgEarthNet.uav[2] utilizationSecMission 8983.1089094322
scalar OsgEarthNet.uav[2] utilizationSecMaintenance 4191.1043358634
scalar OsgEarthNet.uav[2] utilizationSecCharge 48480
scalar OsgEarthNet.uav[2] utilizationSecIdle 197545.7857547
scalar OsgEarthNet.uav[2] utilizationEnergyMission 40798.317680359
scalar OsgEarthNet.uav[2] utilizationEnergyMaintenance 19799.91733551
scalar OsgEarthNet.uav[2] utilizationEnergyCharge 60598.243652344
scalar OsgEarthNet.uav[2] utilizationEnergyOverdrawMission 0
scalar OsgEarthNet.uav[2] utilizationEnergyOverdrawMaintenance 0
scalar OsgEarthNet.uav[2] utilizationCountMissions 13
scalar OsgEarthNet.uav[2] utilizationCountManeuversMission 140
scalar OsgEarthNet.uav[2] utilizationCountManeuversMaintenance 26
scalar OsgEarthNet.uav[2] utilizationCountChargeState 13
scalar OsgEarthNet.uav[2] utilizationCountOverdrawnAfterMission 0
scalar OsgEarthNet.uav[2] utilizationCountIdleState 14
scalar OsgEarthNet.uav[2] utilizationFail 0
scalar OsgEarthNet.uav[2] simulationTime 259200
scalar OsgEarthNet.uav[3] utilizationSecMission 836.77707522227
scalar OsgEarthNet.uav[3] utilizationSecMaintenance 217.0347828456
scalar OsgEarthNet.uav[3] utilizationSecCharge 3830
scalar OsgEarthNet.uav[3] utilizationSecIdle 254316.18714193
scalar OsgEarthNet.uav[3] utilizationEnergyMission 3724.0972213745
scalar OsgEarthNet.uav[3] utilizationEnergyMaintenance 1113.690196991
scalar OsgEarthNet.uav[3] utilizationEnergyCharge 4837.7895507812
scalar OsgEarthNet.uav[3] utilizationEnergyOverdrawMission 0
scalar OsgEarthNet.uav[3] utilizationEnergyOverdrawMaintenance 0
scalar OsgEarthNet.uav[3] utilizationCountMissions 1
scalar OsgEarthNet.uav[3] utilizationCountManeuversMission 13
scalar OsgEarthNet.uav[3] utilizationCountManeuversMaintenance 2
scalar OsgEarthNet.uav[3] utilizationCountChargeState 1
scalar OsgEarthNet.uav[3] utilizationCountOverdrawnAfterMission 0
scalar OsgEarthNet.uav[3] utilizationCountIdleState 2
scalar OsgEarthNet.uav[3] utilizationFail 0
scalar OsgEarthNet.uav[3] simulationTime 259200
scalar OsgEarthNet.uav[4] utilizationSecMission 25835.426127939
scalar OsgEarthNet.uav[4] utilizationSecMaintenance 12563.763991899
scalar OsgEarthNet.uav[4] utilizationSecCharge 141930
scalar OsgEarthNet.uav[4] utilizationSecIdle 78870.808880161
scalar OsgEarthNet.uav[4] utilizationEnergyMission 118814.26135254
scalar OsgEarthNet.uav[4] utilizationEnergyMaintenance 59335.120258331
scalar OsgEarthNet.uav[4] utilizationEnergyCharge 178051.21728516
scalar OsgEarthNet.uav[4] utilizationEnergyOverdrawMission 0
scalar OsgEarthNet.uav[4] utilizationEnergyOverdrawMaintenance 0
scalar OsgEarthNet.uav[4] utilizationCountMissions 38
scalar OsgEarthNet.uav[4] utilizationCountManeuversMission 429
scalar OsgEarthNet.uav[4] utilizationCountManeuversMaintenance 76
scalar OsgEarthNet.uav[4] utilizationCountChargeState 38
scalar OsgEarthNet.uav[4] utilizationCountOverdrawnAfterMission 0
scalar OsgEarthNet.uav[4] utilizationCountIdleState 39
scalar OsgEarthNet.uav[4] utilizationFail 0
scalar OsgEarthNet.uav[4] simulationTime 259200
scalar OsgEarthNet.uav[5] utilizationSecMission 27555.708196339
scalar OsgEarthNet.uav[5] utilizationSecMaintenance 13937.262856623
scalar OsgEarthNet.uav[5] utilizationSecCharge 153160
scalar OsgEarthNet.uav[5] utilizationSecIdle 64547.027947038
scalar OsgEarthNet.uav[5] utilizationEnergyMission 126828.30939484
scalar OsgEarthNet.uav[5] utilizationEnergyMaintenance 65101.760555267
scalar OsgEarthNet.uav[5] utilizationEnergyCharge 191854.04296875
scalar OsgEarthNet.uav[5] utilizationEnergyOverdrawMission 0
scalar OsgEarthNet.uav[5] utilizationEnergyOverdrawMaintenance 0
scalar OsgEarthNet.uav[5] utilizationCountMissions 41
scalar OsgEarthNet.uav[5] utilizationCountManeuversMission 460
scalar OsgEarthNet.uav[5] utilizationCountManeuversMaintenance 82
scalar OsgEarthNet.uav[5] utilizationCountChargeState 41
scalar OsgEarthNet.uav[5] utilizationCountOverdrawnAfterMission 0
scalar OsgEarthNet.uav[5] utilizationCountIdleState 42
scalar OsgEarthNet.uav[5] utilizationFail 0
scalar OsgEarthNet.uav[5] simulationTime 259200
scalar OsgEarthNet.uav[6] utilizationSecMission 28437.099587762
scalar OsgEarthNet.uav[6] utilizationSecMaintenance 15500.273251449
scalar OsgEarthNet.uav[6] utilizationSecCharge 160900
scalar OsgEarthNet.uav[6] utilizationSecIdle 54362.626160789
scalar OsgEarthNet.uav[6] utilizationEnergyMission 131815.55584717
scalar OsgEarthNet.uav[6] utilizationEnergyMaintenance 70922.518866988
scalar OsgEarthNet.uav[6] utilizationEnergyCharge 201970.16601562
scalar OsgEarthNet.uav[6] utilizationEnergyOverdrawMission 0
scalar OsgEarthNet.uav[6] utilizationEnergyOverdrawMaintenance 0
scalar OsgEarthNet.uav[6] utilizationCountMissions 43
scalar OsgEarthNet.uav[6] utilizationCountManeuversMission 474
scalar OsgEarthNet.uav[6] utilizationCountManeuversMaintenance 87
scalar OsgEarthNet.uav[6] utilizationCountChargeState 43
scalar OsgEarthNet.uav[6] utilizationCountOverdrawnAfterMission 0
scalar OsgEarthNet.uav[6] utilizationCountIdleState 44
scalar OsgEarthNet.uav[6] utilizationFail 0
scalar OsgEarthNet.uav[6] simulationTime 259200
scalar OsgEarthNet.uav[7] utilizationSecMission 28948.803070358
scalar OsgEarthNet.uav[7] utilizationSecMaintenance 14090.360612902
scalar OsgEarthNet.uav[7] utilizationSecCharge 155362.37903956
scalar OsgEarthNet.uav[7] utilizationSecIdle 60798.456277181
scalar OsgEarthNet.uav[7] utilizationEnergyMission 132337.88375854
scalar OsgEarthNet.uav[7] utilizationEnergyMaintenance 66108.792728424
scalar OsgEarthNet.uav[7] utilizationEnergyCharge 194145.38217163
scalar OsgEarthNet.uav[7] utilizationEnergyOverdrawMission 0
scalar OsgEarthNet.uav[7] utilizationEnergyOverdrawMaintenance 0
scalar OsgEarthNet.uav[7] utilizationCountMissions 43
scalar OsgEarthNet.uav[7] utilizationCountManeuversMission 467
scalar OsgEarthNet.uav[7] utilizationCountManeuversMaintenance 86
scalar OsgEarthNet.uav[7] utilizationCountChargeState 43
scalar OsgEarthNet.uav[7] utilizationCountOverdrawnAfterMission 0
scalar OsgEarthNet.uav[7] utilizationCountIdleState 43
scalar OsgEarthNet.uav[7] utilizationFail 0
scalar OsgEarthNet.uav[7] simulationTime 259200
scalar OsgEarthNet.uav[8] utilizationSecMission 5581.48952768
scalar OsgEarthNet.uav[8] utilizationSecMaintenance 2408.5867621134
scalar OsgEarthNet.uav[8] utilizationSecCharge 29810
scalar OsgEarthNet.uav[8] utilizationSecIdle 221399.92271021
scalar OsgEarthNet.uav[8] utilizationEnergyMission 26030.947875977
scalar OsgEarthNet.uav[8] utilizationEnergyMaintenance 11508.112316132
scalar OsgEarthNet.uav[8] utilizationEnergyCharge 37287.943847656
scalar OsgEarthNet.uav[8] utilizationEnergyOverdrawMission 0
scalar OsgEarthNet.uav[8] utilizationEnergyOverdrawMaintenance 0
scalar OsgEarthNet.uav[8] utilizationCountMissions 8
scalar OsgEarthNet.uav[8] utilizationCountManeuversMission 98
scalar OsgEarthNet.uav[8] utilizationCountManeuversMaintenance 16
scalar OsgEarthNet.uav[8] utilizationCountChargeState 8
scalar OsgEarthNet.uav[8] utilizationCountOverdrawnAfterMission 0
scalar OsgEarthNet.uav[8] utilizationCountIdleState 9
scalar OsgEarthNet.uav[8] utilizationFail 0
scalar OsgEarthNet.uav[8] simulationTime 259200
scalar OsgEarthNet.uav[9] utilizationSecMission 836.77707522227
scalar OsgEarthNet.uav[9] utilizationSecMaintenance 217.0347828456
scalar OsgEarthNet.uav[9] utilizationSecCharge 3870
scalar OsgEarthNet.uav[9] utilizationSecIdle 254276.18714193
scalar OsgEarthNet.uav[9] utilizationEnergyMission 3750.8831939697
scalar OsgEarthNet.uav[9] utilizationEnergyMaintenance 1161.2438468933
scalar OsgEarthNet.uav[9] utilizationEnergyCharge 4912.1264648438
scalar OsgEarthNet.uav[9] utilizationEnergyOverdrawMission 0
scalar OsgEarthNet.uav[9] utilizationEnergyOverdrawMaintenance 0
scalar OsgEarthNet.uav[9] utilizationCountMissions 1
scalar OsgEarthNet.uav[9] utilizationCountManeuversMission 13
scalar OsgEarthNet.uav[9] utilizationCountManeuversMaintenance 2
scalar OsgEarthNet.uav[9] utilizationCountChargeState 1
scalar OsgEarthNet.uav[9] utilizationCountOverdrawnAfterMission 0
scalar OsgEarthNet.uav[9] utilizationCountIdleState 2
scalar OsgEarthNet.uav[9] utilizationFail 0
scalar OsgEarthNet.uav[9] simulationTime 259200
scalar OsgEarthNet.uav[10] utilizationSecMission 760.62515258028
scalar OsgEarthNet.uav[10] utilizationSecMaintenance 291.95923480269
scalar OsgEarthNet.uav[10] utilizationSecCharge 3900
scalar OsgEarthNet.uav[10] utilizationSecIdle 254247.41461262
scalar OsgEarthNet.uav[10] utilizationEnergyMission 3517.9775543213
scalar OsgEarthNet.uav[10] utilizationEnergyMaintenance 1445.6178512573
scalar OsgEarthNet.uav[10] utilizationEnergyCharge 4963.5903320312
scalar OsgEarthNet.uav[10] utilizationEnergyOverdrawMission 0
scalar OsgEarthNet.uav[10] utilizationEnergyOverdrawMaintenance 0
scalar OsgEarthNet.uav[10] utilizationCountMissions 1
scalar OsgEarthNet.uav[10] utilizationCountManeuversMission 12
scalar OsgEarthNet.uav[10] utilizationCountManeuversMaintenance 2
scalar OsgEarthNet.uav[10] utilizationCountChargeState 1
scalar OsgEarthNet.uav[10] utilizationCountOverdrawnAfterMission 0
scalar OsgEarthNet.uav[10] utilizationCountIdleState 2
scalar OsgEarthNet.uav[10] utilizationFail 0
scalar OsgEarthNet.uav[10] simulationTime 259200
scalar OsgEarthNet.uav[11] utilizationSecMission 17192.983194525
scalar OsgEarthNet.uav[11] utilizationSecMaintenance 9054.7838619011
scalar OsgEarthNet.uav[11] utilizationSecCharge 97096.809437654
scalar OsgEarthNet.uav[11] utilizationSecIdle 135855.42250592
scalar OsgEarthNet.uav[11] utilizationEnergyMission 79716.365081787
scalar OsgEarthNet.uav[11] utilizationEnergyMaintenance 42839.395530701
scalar OsgEarthNet.uav[11] utilizationEnergyCharge 122686.42871094
scalar OsgEarthNet.uav[11] utilizationEnergyOverdrawMission 0
scalar OsgEarthNet.uav[11] utilizationEnergyOverdrawMaintenance 0
scalar OsgEarthNet.uav[11] utilizationCountMissions 26
scalar OsgEarthNet.uav[11] utilizationCountManeuversMission 284
scalar OsgEarthNet.uav[11] utilizationCountManeuversMaintenance 52
scalar OsgEarthNet.uav[11] utilizationCountChargeState 26
scalar OsgEarthNet.uav[11] utilizationCountOverdrawnAfterMission 0
scalar OsgEarthNet.uav[11] utilizationCountIdleState 26
scalar OsgEarthNet.uav[11] utilizationFail 0
scalar OsgEarthNet.uav[11] simulationTime 259200
scalar OsgEarthNet.uav[12] utilizationSecMission 887.1741082606
scalar OsgEarthNet.uav[12] utilizationSecMaintenance 148.2728194454
scalar OsgEarthNet.uav[12] utilizationSecCharge 3780
scalar OsgEarthNet.uav[12] utilizationSecIdle 254384.55207229
scalar OsgEarthNet.uav[12] utilizationEnergyMission 3806.7224578857
scalar OsgEarthNet.uav[12] utilizationEnergyMaintenance 617.24919891357
scalar OsgEarthNet.uav[12] utilizationEnergyCharge 4781.9418945312
scalar OsgEarthNet.uav[12] utilizationEnergyOverdrawMission 0
scalar OsgEarthNet.uav[12] utilizationEnergyOverdrawMaintenance 0
scalar OsgEarthNet.uav[12] utilizationCountMissions 1
scalar OsgEarthNet.uav[12] utilizationCountManeuversMission 14
scalar OsgEarthNet.uav[12] utilizationCountManeuversMaintenance 2
scalar OsgEarthNet.uav[12] utilizationCountChargeState 1
scalar OsgEarthNet.uav[12] utilizationCountOverdrawnAfterMission 0
scalar OsgEarthNet.uav[12] utilizationCountIdleState 2
scalar OsgEarthNet.uav[12] utilizationFail 0
scalar OsgEarthNet.uav[12] simulationTime 259200
scalar OsgEarthNet.uav[13] utilizationSecMission 1586.9818027005
scalar OsgEarthNet.uav[13] utilizationSecMaintenance 451.42590763403
scalar OsgEarthNet.uav[13] utilizationSecCharge 7380
scalar OsgEarthNet.uav[13] utilizationSecIdle 249781.59128967
scalar OsgEarthNet.uav[13] utilizationEnergyMission 7167.7958526611
scalar OsgEarthNet.uav[13] utilizationEnergyMaintenance 2076.9349594116
scalar OsgEarthNet.uav[13] utilizationEnergyCharge 9244.732421875
scalar OsgEarthNet.uav[13] utilizationEnergyOverdrawMission 0
scalar OsgEarthNet.uav[13] utilizationEnergyOverdrawMaintenance 0
scalar OsgEarthNet.uav[13] utilizationCountMissions 2
scalar OsgEarthNet.uav[13] utilizationCountManeuversMission 24
scalar OsgEarthNet.uav[13] utilizationCountManeuversMaintenance 4
scalar OsgEarthNet.uav[13] utilizationCountChargeState 2
scalar OsgEarthNet.uav[13] utilizationCountOverdrawnAfterMission 0
scalar OsgEarthNet.uav[13] utilizationCountIdleState 3
scalar OsgEarthNet.uav[13] utilizationFail 0
scalar OsgEarthNet.uav[13] simulationTime 259200
scalar OsgEarthNet.uav[14] utilizationSecMission 608.41235740769
scalar OsgEarthNet.uav[14] utilizationSecMaintenance 411.08654793843
scalar OsgEarthNet.uav[14] utilizationSecCharge 3770
scalar OsgEarthNet.uav[14] utilizationSecIdle 254410.50009465
scalar OsgEarthNet.uav[14] utilizationEnergyMission 2681.283531189
scalar OsgEarthNet.uav[14] utilizationEnergyMaintenance 2044.9501571655
scalar OsgEarthNet.uav[14] utilizationEnergyCharge 4726.2333984375
scalar OsgEarthNet.uav[14] utilizationEnergyOverdrawMission 0
scalar OsgEarthNet.uav[14] utilizationEnergyOverdrawMaintenance 0
scalar OsgEarthNet.uav[14] utilizationCountMissions 1
scalar OsgEarthNet.uav[14] utilizationCountManeuversMission 11
scalar OsgEarthNet.uav[14] utilizationCountManeuversMaintenance 2
scalar OsgEarthNet.uav[14] utilizationCountChargeState 1
scalar OsgEarthNet.uav[14] utilizationCountOverdrawnAfterMission 0
scalar OsgEarthNet.uav[14] utilizationCountIdleState 2
scalar OsgEarthNet.uav[14] utilizationFail 0
scalar OsgEarthNet.uav[14] simulationTime 259200
scalar OsgEarthNet.uav[15] utilizationSecMission 28756.721464143
scalar OsgEarthNet.uav[15] utilizationSecMaintenance 14894.773798056
scalar OsgEarthNet.uav[15] utilizationSecCharge 160192.26190218
scalar OsgEarthNet.uav[15] utilizationSecIdle 55356.241835621
scalar OsgEarthNet.uav[15] utilizationEnergyMission 133090.76127243
scalar OsgEarthNet.uav[15] utilizationEnergyMaintenance 69783.912815094
scalar OsgEarthNet.uav[15] utilizationEnergyCharge 202111.48046875
scalar OsgEarthNet.uav[15] utilizationEnergyOverdrawMission 0
scalar OsgEarthNet.uav[15] utilizationEnergyOverdrawMaintenance 0
scalar OsgEarthNet.uav[15] utilizationCountMissions 43
scalar OsgEarthNet.uav[15] utilizationCountManeuversMission 462
scalar OsgEarthNet.uav[15] utilizationCountManeuversMaintenance 86
scalar OsgEarthNet.uav[15] utilizationCountChargeState 43
scalar OsgEarthNet.uav[15] utilizationCountOverdrawnAfterMission 0
scalar OsgEarthNet.uav[15] utilizationCountIdleState 43
scalar OsgEarthNet.uav[15] utilizationFail 0
scalar OsgEarthNet.uav[15] simulationTime 259200
scalar OsgEarthNet.uav[16] utilizationSecMission 10178.300274443
scalar OsgEarthNet.uav[16] utilizationSecMaintenance 4479.8769715045
scalar OsgEarthNet.uav[16] utilizationSecCharge 52550
scalar OsgEarthNet.uav[16] utilizationSecIdle 191991.82175405
scalar OsgEarthNet.uav[16] utilizationEnergyMission 48530.195060448
scalar OsgEarthNet.uav[16] utilizationEnergyMaintenance 21488.696022034
scalar OsgEarthNet.uav[16] utilizationEnergyCharge 66116.246582031
scalar OsgEarthNet.uav[16] utilizationEnergyOverdrawMission 0
scalar OsgEarthNet.uav[16] utilizationEnergyOverdrawMaintenance 0
scalar OsgEarthNet.uav[16] utilizationCountMissions 14
scalar OsgEarthNet.uav[16] utilizationCountManeuversMission 169
scalar OsgEarthNet.uav[16] utilizationCountManeuversMaintenance 29
scalar OsgEarthNet.uav[16] utilizationCountChargeState 14
scalar OsgEarthNet.uav[16] utilizationCountOverdrawnAfterMission 0
scalar OsgEarthNet.uav[16] utilizationCountIdleState 15
scalar OsgEarthNet.uav[16] utilizationFail 0
scalar OsgEarthNet.uav[16] simulationTime 259200
scalar OsgEarthNet.uav[17] utilizationSecMission 29228.964028525
scalar OsgEarthNet.uav[17] utilizationSecMaintenance 13785.543169304
scalar OsgEarthNet.uav[17] utilizationSecCharge 159970
scalar OsgEarthNet.uav[17] utilizationSecIdle 56215.491802171
scalar OsgEarthNet.uav[17] utilizationEnergyMission 134793.87315369
scalar OsgEarthNet.uav[17] utilizationEnergyMaintenance 65797.002023486
scalar OsgEarthNet.uav[17] utilizationEnergyCharge 200363.73925781
scalar OsgEarthNet.uav[17] utilizationEnergyOverdrawMission 0
scalar OsgEarthNet.uav[17] utilizationEnergyOverdrawMaintenance 0
scalar OsgEarthNet.uav[17] utilizationCountMissions 43
scalar OsgEarthNet.uav[17] utilizationCountManeuversMission 465
scalar OsgEarthNet.uav[17] utilizationCountManeuversMaintenance 87
scalar OsgEarthNet.uav[17] utilizationCountChargeState 43
scalar OsgEarthNet.uav[17] utilizationCountOverdrawnAfterMission 0
scalar OsgEarthNet.uav[17] utilizationCountIdleState 44
scalar OsgEarthNet.uav[17] utilizationFail 0
scalar OsgEarthNet.uav[17] simulationTime 259200
scalar OsgEarthNet.uav[18] utilizationSecMission 694.00169469977
scalar OsgEarthNet.uav[18] utilizationSecMaintenance 338.49695459722
scalar OsgEarthNet.uav[18] utilizationSecCharge 3730
scalar OsgEarthNet.uav[18] utilizationSecIdle 254437.5003507
scalar OsgEarthNet.uav[18] utilizationEnergyMission 3166.1374969482
scalar OsgEarthNet.uav[18] utilizationEnergyMaintenance 1521.1529045105
scalar OsgEarthNet.uav[18] utilizationEnergyCharge 4687.2895507812
scalar OsgEarthNet.uav[18] utilizationEnergyOverdrawMission 0
scalar OsgEarthNet.uav[18] utilizationEnergyOverdrawMaintenance 0
scalar OsgEarthNet.uav[18] utilizationCountMissions 1
scalar OsgEarthNet.uav[18] utilizationCountManeuversMission 13
scalar OsgEarthNet.uav[18] utilizationCountManeuversMaintenance 2
scalar OsgEarthNet.uav[18] utilizationCountChargeState 1
scalar OsgEarthNet.uav[18] utilizationCountOverdrawnAfterMission 0
scalar OsgEarthNet.uav[18] utilizationCountIdleState 2
scalar OsgEarthNet.uav[18] utilizationFail 0
scalar OsgEarthNet.uav[18] simulationTime 259200
scalar OsgEarthNet.uav[19] utilizationSecMission 684.4732299383
scalar OsgEarthNet.uav[19] utilizationSecMaintenance 298.56834692969
scalar OsgEarthNet.uav[19] utilizationSecCharge 3770
scalar OsgEarthNet.uav[19] utilizationSecIdle 254446.95742313
scalar OsgEarthNet.uav[19] utilizationEnergyMission 3275.031326294
scalar OsgEarthNet.uav[19] utilizationEnergyMaintenance 1451.4665756226
scalar OsgEarthNet.uav[19] utilizationEnergyCharge 4726.5009765625
scalar OsgEarthNet.uav[19] utilizationEnergyOverdrawMission 0
scalar OsgEarthNet.uav[19] utilizationEnergyOverdrawMaintenance 0
scalar OsgEarthNet.uav[19] utilizationCountMissions 1
scalar OsgEarthNet.uav[19] utilizationCountManeuversMission 11
scalar OsgEarthNet.uav[19] utilizationCountManeuversMaintenance 2
scalar OsgEarthNet.uav[19] utilizationCountChargeState 1
scalar OsgEarthNet.uav[19] utilizationCountOverdrawnAfterMission 0
scalar OsgEarthNet.uav[19] utilizationCountIdleState 2
scalar OsgEarthNet.uav[19] utilizationFail 0
scalar OsgEarthNet.uav[19] simulationTime 259200
scalar OsgEarthNet.uav[20] utilizationSecMission 1833.205683579
scalar OsgEarthNet.uav[20] utilizationSecMaintenance 1087.1343461177
scalar OsgEarthNet.uav[20] utilizationSecCharge 10870
scalar OsgEarthNet.uav[20] utilizationSecIdle 245409.6589703
scalar OsgEarthNet.uav[20] utilizationEnergyMission 8584.8849563599
scalar OsgEarthNet.uav[20] utilizationEnergyMaintenance 4909.1514320374
scalar OsgEarthNet.uav[20] utilizationEnergyCharge 13494.025878906
scalar OsgEarthNet.uav[20] utilizationEnergyOverdrawMission 0
scalar OsgEarthNet.uav[20] utilizationEnergyOverdrawMaintenance 0
scalar OsgEarthNet.uav[20] utilizationCountMissions 3
scalar OsgEarthNet.uav[20] utilizationCountManeuversMission 30
scalar OsgEarthNet.uav[20] utilizationCountManeuversMaintenance 6
scalar OsgEarthNet.uav[20] utilizationCountChargeState 3
scalar OsgEarthNet.uav[20] utilizationCountOverdrawnAfterMission 0
scalar OsgEarthNet.uav[20] utilizationCountIdleState 4
scalar OsgEarthNet.uav[20] utilizationFail 0
scalar OsgEarthNet.uav[20] simulationTime 259200
scalar OsgEarthNet.uav[21] utilizationSecMission 26968.090225827
scalar OsgEarthNet.uav[21] utilizationSecMaintenance 12822.391982668
scalar OsgEarthNet.uav[21] utilizationSecCharge 145770
scalar OsgEarthNet.uav[21] utilizationSecIdle 73639.516791505
scalar OsgEarthNet.uav[21] utilizationEnergyMission 123874.62561798
scalar OsgEarthNet.uav[21] utilizationEnergyMaintenance 59279.292453766
scalar OsgEarthNet.uav[21] utilizationEnergyCharge 182743.25585938
scalar OsgEarthNet.uav[21] utilizationEnergyOverdrawMission 0
scalar OsgEarthNet.uav[21] utilizationEnergyOverdrawMaintenance 0
scalar OsgEarthNet.uav[21] utilizationCountMissions 39
scalar OsgEarthNet.uav[21] utilizationCountManeuversMission 429
scalar OsgEarthNet.uav[21] utilizationCountManeuversMaintenance 78
scalar OsgEarthNet.uav[21] utilizationCountChargeState 39
scalar OsgEarthNet.uav[21] utilizationCountOverdrawnAfterMission 0
scalar OsgEarthNet.uav[21] utilizationCountIdleState 40
scalar OsgEarthNet.uav[21] utilizationFail 0
scalar OsgEarthNet.uav[21] simulationTime 259200
scalar OsgEarthNet.uav[22] utilizationSecMission 28731.479808498
scalar OsgEarthNet.uav[22] utilizationSecMaintenance 12431.26732725
scalar OsgEarthNet.uav[22] utilizationSecCharge 152748.07675384
scalar OsgEarthNet.uav[22] utilizationSecIdle 65289.175110411
scalar OsgEarthNet.uav[22] utilizationEnergyMission 132953.90219116
scalar OsgEarthNet.uav[22] utilizationEnergyMaintenance 58409.418529511
scalar OsgEarthNet.uav[22] utilizationEnergyCharge 191819.66796875
scalar OsgEarthNet.uav[22] utilizationEnergyOverdrawMission 0
scalar OsgEarthNet.uav[22] utilizationEnergyOverdrawMaintenance 0
scalar OsgEarthNet.uav[22] utilizationCountMissions 41
scalar OsgEarthNet.uav[22] utilizationCountManeuversMission 451
scalar OsgEarthNet.uav[22] utilizationCountManeuversMaintenance 82
scalar OsgEarthNet.uav[22] utilizationCountChargeState 41
scalar OsgEarthNet.uav[22] utilizationCountOverdrawnAfterMission 0
scalar OsgEarthNet.uav[22] utilizationCountIdleState 41
scalar OsgEarthNet.uav[22] utilizationFail 0
scalar OsgEarthNet.uav[22] simulationTime 259200
scalar OsgEarthNet.uav[23] utilizationSecMission 645.47405733167
scalar OsgEarthNet.uav[23] utilizationSecMaintenance 393.86419216954
scalar OsgEarthNet.uav[23] utilizationSecCharge 3870
scalar OsgEarthNet.uav[23] utilizationSecIdle 254290.6607505
scalar OsgEarthNet.uav[23] utilizationEnergyMission 2920.4951324463
scalar OsgEarthNet.uav[23] utilizationEnergyMaintenance 1995.8708114624
scalar OsgEarthNet.uav[23] utilizationEnergyCharge 4926.1508789062
scalar OsgEarthNet.uav[23] utilizationEnergyOverdrawMission 0
scalar OsgEarthNet.uav[23] utilizationEnergyOverdrawMaintenance 0
scalar OsgEarthNet.uav[23] utilizationCountMissions 1
scalar OsgEarthNet.uav[23] utilizationCountManeuversMission 10
scalar OsgEarthNet.uav[23] utilizationCountManeuversMaintenance 2
scalar OsgEarthNet.uav[23] utilizationCountChargeState 1
scalar OsgEarthNet.uav[23] utilizationCountOverdrawnAfterMission 0
scalar OsgEarthNet.uav[23] utilizationCountIdleState 2
scalar OsgEarthNet.uav[23] utilizationFail 0
scalar OsgEarthNet.uav[23] simulationTime 259200
scalar OsgEarthNet.uav[24] utilizationSecMission 30697.200250298
scalar OsgEarthNet.uav[24] utilizationSecMaintenance 11592.43936857
scalar OsgEarthNet.uav[24] utilizationSecCharge 153530
scalar OsgEarthNet.uav[24] utilizationSecIdle 63380.359381132
scalar OsgEarthNet.uav[24] utilizationEnergyMission 142526.88894585
scalar OsgEarthNet.uav[24] utilizationEnergyMaintenance 54220.418159485
scalar OsgEarthNet.uav[24] utilizationEnergyCharge 192578.53466797
scalar OsgEarthNet.uav[24] utilizationEnergyOverdrawMission 0
scalar OsgEarthNet.uav[24] utilizationEnergyOverdrawMaintenance 0
scalar OsgEarthNet.uav[24] utilizationCountMissions 41
scalar OsgEarthNet.uav[24] utilizationCountManeuversMission 498
scalar OsgEarthNet.uav[24] utilizationCountManeuversMaintenance 83
scalar OsgEarthNet.uav[24] utilizationCountChargeState 41
scalar OsgEarthNet.uav[24] utilizationCountOverdrawnAfterMission 0
scalar OsgEarthNet.uav[24] utilizationCountIdleState 42
scalar OsgEarthNet.uav[24] utilizationFail 0
scalar OsgEarthNet.uav[24] simulationTime 259200
scalar OsgEarthNet.uav[25] utilizationSecMission 1491.7168697984
scalar OsgEarthNet.uav[25] utilizationSecMaintenance 672.0213307743
scalar OsgEarthNet.uav[25] utilizationSecCharge 7800
scalar OsgEarthNet.uav[25] utilizationSecIdle 249236.26079943
scalar OsgEarthNet.uav[25] utilizationEnergyMission 6788.4841461182
scalar OsgEarthNet.uav[25] utilizationEnergyMaintenance 3194.1893539429
scalar OsgEarthNet.uav[25] utilizationEnergyCharge 9982.6767578125
scalar OsgEarthNet.uav[25] utilizationEnergyOverdrawMission 0
scalar OsgEarthNet.uav[25] utilizationEnergyOverdrawMaintenance 0
scalar OsgEarthNet.uav[25] utilizationCountMissions 2
scalar OsgEarthNet.uav[25] utilizationCountManeuversMission 25
scalar OsgEarthNet.uav[25] utilizationCountManeuversMaintenance 4
scalar OsgEarthNet.uav[25] utilizationCountChargeState 2
scalar OsgEarthNet.uav[25] utilizationCountOverdrawnAfterMission 0
scalar OsgEarthNet.uav[25] utilizationCountIdleState 3
scalar OsgEarthNet.uav[25] utilizationFail 0
scalar OsgEarthNet.uav[25] simulationTime 259200
scalar OsgEarthNet.uav[26] utilizationSecMission 760.62515258028
scalar OsgEarthNet.uav[26] utilizationSecMaintenance 291.95923480269
scalar OsgEarthNet.uav[26] utilizationSecCharge 3790
scalar OsgEarthNet.uav[26] utilizationSecIdle 254357.41461262
scalar OsgEarthNet.uav[26] utilizationEnergyMission 3434.0178070068
scalar OsgEarthNet.uav[26] utilizationEnergyMaintenance 1367.3130722046
scalar OsgEarthNet.uav[26] utilizationEnergyCharge 4801.3266601562
scalar OsgEarthNet.uav[26] utilizationEnergyOverdrawMission 0
scalar OsgEarthNet.uav[26] utilizationEnergyOverdrawMaintenance 0
scalar OsgEarthNet.uav[26] utilizationCountMissions 1
scalar OsgEarthNet.uav[26] utilizationCountManeuversMission 12
scalar OsgEarthNet.uav[26] utilizationCountManeuversMaintenance 2
scalar OsgEarthNet.uav[26] utilizationCountChargeState 1
scalar OsgEarthNet.uav[26] utilizationCountOverdrawnAfterMission 0
scalar OsgEarthNet.uav[26] utilizationCountIdleState 2
scalar OsgEarthNet.uav[26] utilizationFail 0
scalar OsgEarthNet.uav[26] simulationTime 259200
scalar OsgEarthNet.uav[27] utilizationSecMission 26548.356770362
scalar OsgEarthNet.uav[27] utilizationSecMaintenance 15192.474790046
scalar OsgEarthNet.uav[27] utilizationSecCharge 156260
scalar OsgEarthNet.uav[27] utilizationSecIdle 61199.167439592
scalar OsgEarthNet.uav[27] utilizationEnergyMission 123617.62818146
scalar OsgEarthNet.uav[27] utilizationEnergyMaintenance 72096.978595734
scalar OsgEarthNet.uav[27] utilizationEnergyCharge 195658.44824219
scalar OsgEarthNet.uav[27] utilizationEnergyOverdrawMission 0
scalar OsgEarthNet.uav[27] utilizationEnergyOverdrawMaintenance 0
scalar OsgEarthNet.uav[27] utilizationCountMissions 42
scalar OsgEarthNet.uav[27] utilizationCountManeuversMission 441
scalar OsgEarthNet.uav[27] utilizationCountManeuversMaintenance 84
scalar OsgEarthNet.uav[27] utilizationCountChargeState 42
scalar OsgEarthNet.uav[27] utilizationCountOverdrawnAfterMission 0
scalar OsgEarthNet.uav[27] utilizationCountIdleState 43
scalar OsgEarthNet.uav[27] utilizationFail 0
scalar OsgEarthNet.uav[27] simulationTime 259200
scalar OsgEarthNet.uav[28] utilizationSecMission 28520.804911811
scalar OsgEarthNet.uav[28] utilizationSecMaintenance 14680.9909132
scalar OsgEarthNet.uav[28] utilizationSecCharge 157200.75291096
scalar OsgEarthNet.uav[28] utilizationSecIdle 58797.450264031
scalar OsgEarthNet.uav[28] utilizationEnergyMission 130321.6222496
scalar OsgEarthNet.uav[28] utilizationEnergyMaintenance 69528.574459076
scalar OsgEarthNet.uav[28] utilizationEnergyCharge 197541.56774902
scalar OsgEarthNet.uav[28] utilizationEnergyOverdrawMission 0
scalar OsgEarthNet.uav[28] utilizationEnergyOverdrawMaintenance 0
scalar OsgEarthNet.uav[28] utilizationCountMissions 43
scalar OsgEarthNet.uav[28] utilizationCountManeuversMission 476
scalar OsgEarthNet.uav[28] utilizationCountManeuversMaintenance 86
scalar OsgEarthNet.uav[28] utilizationCountChargeState 43
scalar OsgEarthNet.uav[28] utilizationCountOverdrawnAfterMission 0
scalar OsgEarthNet.uav[28] utilizationCountIdleState 43
scalar OsgEarthNet.uav[28] utilizationFail 0
scalar OsgEarthNet.uav[28] simulationTime 259200
scalar OsgEarthNet.uav[29] utilizationSecMission 702.6942798579
scalar OsgEarthNet.uav[29] utilizationSecMaintenance 282.29565405678
scalar OsgEarthNet.uav[29] utilizationSecCharge 3680
scalar OsgEarthNet.uav[29] utilizationSecIdle 254535.00906609
scalar OsgEarthNet.uav[29] utilizationEnergyMission 3394.352645874
scalar OsgEarthNet.uav[29] utilizationEnergyMaintenance 1228.6232719421
scalar OsgEarthNet.uav[29] utilizationEnergyCharge 4622.97265625
scalar OsgEarthNet.uav[29] utilizationEnergyOverdrawMission 0
scalar OsgEarthNet.uav[29] utilizationEnergyOverdrawMaintenance 0
scalar OsgEarthNet.uav[29] utilizationCountMissions 1
scalar OsgEarthNet.uav[29] utilizationCountManeuversMission 10
scalar OsgEarthNet.uav[29] utilizationCountManeuversMaintenance 2
scalar OsgEarthNet.uav[29] utilizationCountChargeState 1
scalar OsgEarthNet.uav[29] utilizationCountOverdrawnAfterMission 0
scalar OsgEarthNet.uav[29] utilizationCountIdleState 2
scalar OsgEarthNet.uav[29] utilizationFail 0
scalar OsgEarthNet.uav[29] simulationTime 259200
scalar OsgEarthNet.uav[30] utilizationSecMission 702.6942798579
scalar OsgEarthNet.uav[30] utilizationSecMaintenance 282.29565405678
scalar OsgEarthNet.uav[30] utilizationSecCharge 3790
scalar OsgEarthNet.uav[30] utilizationSecIdle 254425.00906609
scalar OsgEarthNet.uav[30] utilizationEnergyMission 3354.0961914063
scalar OsgEarthNet.uav[30] utilizationEnergyMaintenance 1434.8930778503
scalar OsgEarthNet.uav[30] utilizationEnergyCharge 4788.9873046875
scalar OsgEarthNet.uav[30] utilizationEnergyOverdrawMission 0
scalar OsgEarthNet.uav[30] utilizationEnergyOverdrawMaintenance 0
scalar OsgEarthNet.uav[30] utilizationCountMissions 1
scalar OsgEarthNet.uav[30] utilizationCountManeuversMission 10
scalar OsgEarthNet.uav[30] utilizationCountManeuversMaintenance 2
scalar OsgEarthNet.uav[30] utilizationCountChargeState 1
scalar OsgEarthNet.uav[30] utilizationCountOverdrawnAfterMission 0
scalar OsgEarthNet.uav[30] utilizationCountIdleState 2
scalar OsgEarthNet.uav[30] utilizationFail 0
scalar OsgEarthNet.uav[30] simulationTime 259200
scalar OsgEarthNet.uav[31] utilizationSecMission 22636.168860109
scalar OsgEarthNet.uav[31] utilizationSecMaintenance 10131.300573825
scalar OsgEarthNet.uav[31] utilizationSecCharge 120290
scalar OsgEarthNet.uav[31] utilizationSecIdle 106142.52956607
scalar OsgEarthNet.uav[31] utilizationEnergyMission 103236.18172073
scalar OsgEarthNet.uav[31] utilizationEnergyMaintenance 48074.597881317
scalar OsgEarthNet.uav[31] utilizationEnergyCharge 151316.90380859
scalar OsgEarthNet.uav[31] utilizationEnergyOverdrawMission 0
scalar OsgEarthNet.uav[31] utilizationEnergyOverdrawMaintenance 0
scalar OsgEarthNet.uav[31] utilizationCountMissions 32
scalar OsgEarthNet.uav[31] utilizationCountManeuversMission 353
scalar OsgEarthNet.uav[31] utilizationCountManeuversMaintenance 64
scalar OsgEarthNet.uav[31] utilizationCountChargeState 32
scalar OsgEarthNet.uav[31] utilizationCountOverdrawnAfterMission 0
scalar OsgEarthNet.uav[31] utilizationCountIdleState 33
scalar OsgEarthNet.uav[31] utilizationFail 0
scalar OsgEarthNet.uav[31] simulationTime 259200
scalar OsgEarthNet.uav[32] utilizationSecMission 30885.891819575
scalar OsgEarthNet.uav[32] utilizationSecMaintenance 13572.107180425
scalar OsgEarthNet.uav[32] utilizationSecCharge 159780
scalar OsgEarthNet.uav[32] utilizationSecIdle 54962
scalar OsgEarthNet.uav[32] utilizationEnergyMission 141233.66182622
scalar OsgEarthNet.uav[32] utilizationEnergyMaintenance 63364.579530896
scalar OsgEarthNet.uav[32] utilizationEnergyCharge 199918.29516602
scalar OsgEarthNet.uav[32] utilizationEnergyOverdrawMission 0
scalar OsgEarthNet.uav[32] utilizationEnergyOverdrawMaintenance 0
scalar OsgEarthNet.uav[32] utilizationCountMissions 44
scalar OsgEarthNet.uav[32] utilizationCountManeuversMission 515
scalar OsgEarthNet.uav[32] utilizationCountManeuversMaintenance 87
scalar OsgEarthNet.uav[32] utilizationCountChargeState 43
scalar OsgEarthNet.uav[32] utilizationCountOverdrawnAfterMission 0
scalar OsgEarthNet.uav[32] utilizationCountIdleState 44
scalar OsgEarthNet.uav[32] utilizationFail 0
scalar OsgEarthNet.uav[32] simulationTime 259200
scalar OsgEarthNet.uav[33] utilizationSecMission 702.6942798579
scalar OsgEarthNet.uav[33] utilizationSecMaintenance 282.29565405678
scalar OsgEarthNet.uav[33] utilizationSecCharge 3770
scalar OsgEarthNet.uav[33] utilizationSecIdle 254445.00906609
scalar OsgEarthNet.uav[33] utilizationEnergyMission 3257.8790893555
scalar OsgEarthNet.uav[33] utilizationEnergyMaintenance 1475.5373039246
scalar OsgEarthNet.uav[33] utilizationEnergyCharge 4733.4150390625
scalar OsgEarthNet.uav[33] utilizationEnergyOverdrawMission 0
scalar OsgEarthNet.uav[33] utilizationEnergyOverdrawMaintenance 0
scalar OsgEarthNet.uav[33] utilizationCountMissions 1
scalar OsgEarthNet.uav[33] utilizationCountManeuversMission 10
scalar OsgEarthNet.uav[33] utilizationCountManeuversMaintenance 2
scalar OsgEarthNet.uav[33] utilizationCountChargeState 1
scalar OsgEarthNet.uav[33] utilizationCountOverdrawnAfterMission 0
scalar OsgEarthNet.uav[33] utilizationCountIdleState 2
scalar OsgEarthNet.uav[33] utilizationFail 0
scalar OsgEarthNet.uav[33] simulationTime 259200
scalar OsgEarthNet.uav[34] utilizationSecMission 2069.6505582702
scalar OsgEarthNet.uav[34] utilizationSecMaintenance 828.921142377
scalar OsgEarthNet.uav[34] utilizationSecCharge 10960
scalar OsgEarthNet.uav[34] utilizationSecIdle 245341.42729935
scalar OsgEarthNet.uav[34] utilizationEnergyMission 9608.1174545288
scalar OsgEarthNet.uav[34] utilizationEnergyMaintenance 4048.2071990967
scalar OsgEarthNet.uav[34] utilizationEnergyCharge 13686.13671875
scalar OsgEarthNet.uav[34] utilizationEnergyOverdrawMission 0
scalar OsgEarthNet.uav[34] utilizationEnergyOverdrawMaintenance 0
scalar OsgEarthNet.uav[34] utilizationCountMissions 3
scalar OsgEarthNet.uav[34] utilizationCountManeuversMission 37
scalar OsgEarthNet.uav[34] utilizationCountManeuversMaintenance 6
scalar OsgEarthNet.uav[34] utilizationCountChargeState 3
scalar OsgEarthNet.uav[34] utilizationCountOverdrawnAfterMission 0
scalar OsgEarthNet.uav[34] utilizationCountIdleState 4
scalar OsgEarthNet.uav[34] utilizationFail 0
scalar OsgEarthNet.uav[34] simulationTime 259200
scalar OsgEarthNet.uav[35] utilizationSecMission 26942.640590573
scalar OsgEarthNet.uav[35] utilizationSecMaintenance 13362.225457484
scalar OsgEarthNet.uav[35] utilizationSecCharge 149730
scalar OsgEarthNet.uav[35] utilizationSecIdle 69165.132951943
scalar OsgEarthNet.uav[35] utilizationEnergyMission 125387.56773376
scalar OsgEarthNet.uav[35] utilizationEnergyMaintenance 62833.814159393
scalar OsgEarthNet.uav[35] utilizationEnergyCharge 188075.61816406
scalar OsgEarthNet.uav[35] utilizationEnergyOverdrawMission 0
scalar OsgEarthNet.uav[35] utilizationEnergyOverdrawMaintenance 0
scalar OsgEarthNet.uav[35] utilizationCountMissions 40
scalar OsgEarthNet.uav[35] utilizationCountManeuversMission 442
scalar OsgEarthNet.uav[35] utilizationCountManeuversMaintenance 80
scalar OsgEarthNet.uav[35] utilizationCountChargeState 40
scalar OsgEarthNet.uav[35] utilizationCountOverdrawnAfterMission 0
scalar OsgEarthNet.uav[35] utilizationCountIdleState 41
scalar OsgEarthNet.uav[35] utilizationFail 0
scalar OsgEarthNet.uav[35] simulationTime 259200
scalar OsgEarthNet.uav[36] utilizationSecMission 702.6942798579
scalar OsgEarthNet.uav[36] utilizationSecMaintenance 282.29565405678
scalar OsgEarthNet.uav[36] utilizationSecCharge 3620
scalar OsgEarthNet.uav[36] utilizationSecIdle 254595.00906609
scalar OsgEarthNet.uav[36] utilizationEnergyMission 3086.2333221436
scalar OsgEarthNet.uav[36] utilizationEnergyMaintenance 1411.8344535828
scalar OsgEarthNet.uav[36] utilizationEnergyCharge 4498.0712890625
scalar OsgEarthNet.uav[36] utilizationEnergyOverdrawMission 0
scalar OsgEarthNet.uav[36] utilizationEnergyOverdrawMaintenance 0
scalar OsgEarthNet.uav[36] utilizationCountMissions 1
scalar OsgEarthNet.uav[36] utilizationCountManeuversMission 10
scalar OsgEarthNet.uav[36] utilizationCountManeuversMaintenance 2
scalar OsgEarthNet.uav[36] utilizationCountChargeState 1
scalar OsgEarthNet.uav[36] utilizationCountOverdrawnAfterMission 0
scalar OsgEarthNet.uav[36] utilizationCountIdleState 2
scalar OsgEarthNet.uav[36] utilizationFail 0
scalar OsgEarthNet.uav[36] simulationTime 259200
scalar OsgEarthNet.uav[37] utilizationSecMission 28443.277641436
scalar OsgEarthNet.uav[37] utilizationSecMaintenance 12245.223289997
scalar OsgEarthNet.uav[37] utilizationSecCharge 150380
scalar OsgEarthNet.uav[37] utilizationSecIdle 68131.498068567
scalar OsgEarthNet.uav[37] utilizationEnergyMission 132529.94552612
scalar OsgEarthNet.uav[37] utilizationEnergyMaintenance 57269.1769104
scalar OsgEarthNet.uav[37] utilizationEnergyCharge 189073.16650391
scalar OsgEarthNet.uav[37] utilizationEnergyOverdrawMission 0
scalar OsgEarthNet.uav[37] utilizationEnergyOverdrawMaintenance 0
scalar OsgEarthNet.uav[37] utilizationCountMissions 40
scalar OsgEarthNet.uav[37] utilizationCountManeuversMission 480
scalar OsgEarthNet.uav[37] utilizationCountManeuversMaintenance 80
scalar OsgEarthNet.uav[37] utilizationCountChargeState 40
scalar OsgEarthNet.uav[37] utilizationCountOverdrawnAfterMission 0
scalar OsgEarthNet.uav[37] utilizationCountIdleState 41
scalar OsgEarthNet.uav[37] utilizationFail 0
scalar OsgEarthNet.uav[37] simulationTime 259200
scalar OsgEarthNet.uav[38] utilizationSecMission 31183.08611191
scalar OsgEarthNet.uav[38] utilizationSecMaintenance 12464.421904942
scalar OsgEarthNet.uav[38] utilizationSecCharge 160176.45488438
scalar OsgEarthNet.uav[38] utilizationSecIdle 55376.036098769
scalar OsgEarthNet.uav[38] utilizationEnergyMission 144327.1210022
scalar OsgEarthNet.uav[38] utilizationEnergyMaintenance 57398.698184967
scalar OsgEarthNet.uav[38] utilizationEnergyCharge 201560.73730469
scalar OsgEarthNet.uav[38] utilizationEnergyOverdrawMission 0
scalar OsgEarthNet.uav[38] utilizationEnergyOverdrawMaintenance 0
scalar OsgEarthNet.uav[38] utilizationCountMissions 43
scalar OsgEarthNet.uav[38] utilizationCountManeuversMission 487
scalar OsgEarthNet.uav[38] utilizationCountManeuversMaintenance 86
scalar OsgEarthNet.uav[38] utilizationCountChargeState 43
scalar OsgEarthNet.uav[38] utilizationCountOverdrawnAfterMission 0
scalar OsgEarthNet.uav[38] utilizationCountIdleState 43
scalar OsgEarthNet.uav[38] utilizationFail 0
scalar OsgEarthNet.uav[38] simulationTime 259200
scalar OsgEarthNet.uav[39] utilizationSecMission 836.77707522227
scalar OsgEarthNet.uav[39] utilizationSecMaintenance 217.0347828456
scalar OsgEarthNet.uav[39] utilizationSecCharge 3790
scalar OsgEarthNet.uav[39] utilizationSecIdle 254356.18714193
scalar OsgEarthNet.uav[39] utilizationEnergyMission 3863.3712005615
scalar OsgEarthNet.uav[39] utilizationEnergyMaintenance 907.88850021362
scalar OsgEarthNet.uav[39] utilizationEnergyCharge 4771.255859375
scalar OsgEarthNet.uav[39] utilizationEnergyOverdrawMission 0
scalar OsgEarthNet.uav[39] utilizationEnergyOverdrawMaintenance 0
scalar OsgEarthNet.uav[39] utilizationCountMissions 1
scalar OsgEarthNet.uav[39] utilizationCountManeuversMission 13
scalar OsgEarthNet.uav[39] utilizationCountManeuversMaintenance 2
scalar OsgEarthNet.uav[39] utilizationCountChargeState 1
scalar OsgEarthNet.uav[39] utilizationCountOverdrawnAfterMission 0
scalar OsgEarthNet.uav[39] utilizationCountIdleState 2
scalar OsgEarthNet.uav[39] utilizationFail 0
scalar OsgEarthNet.uav[39] simulationTime 259200
scalar OsgEarthNet.uav[40] utilizationSecMission 684.4732299383
scalar OsgEarthNet.uav[40] utilizationSecMaintenance 298.56834692969
scalar OsgEarthNet.uav[40] utilizationSecCharge 3760
scalar OsgEarthNet.uav[40] utilizationSecIdle 254456.95742313
scalar OsgEarthNet.uav[40] utilizationEnergyMission 3198.9413146973
scalar OsgEarthNet.uav[40] utilizationEnergyMaintenance 1515.4649887085
scalar OsgEarthNet.uav[40] utilizationEnergyCharge 4714.4067382812
scalar OsgEarthNet.uav[40] utilizationEnergyOverdrawMission 0
scalar OsgEarthNet.uav[40] utilizationEnergyOverdrawMaintenance 0
scalar OsgEarthNet.uav[40] utilizationCountMissions 1
scalar OsgEarthNet.uav[40] utilizationCountManeuversMission 11
scalar OsgEarthNet.uav[40] utilizationCountManeuversMaintenance 2
scalar OsgEarthNet.uav[40] utilizationCountChargeState 1
scalar OsgEarthNet.uav[40] utilizationCountOverdrawnAfterMission 0
scalar OsgEarthNet.uav[40] utilizationCountIdleState 2
scalar OsgEarthNet.uav[40] utilizationFail 0
scalar OsgEarthNet.uav[40] simulationTime 259200
scalar OsgEarthNet.uav[41] utilizationSecMission 10583.272796228
scalar OsgEarthNet.uav[41] utilizationSecMaintenance 5292.2071514196
scalar OsgEarthNet.uav[41] utilizationSecCharge 59540
scalar OsgEarthNet.uav[41] utilizationSecIdle 183784.51905235
scalar OsgEarthNet.uav[41] utilizationEnergyMission 49226.723495483
scalar OsgEarthNet.uav[41] utilizationEnergyMaintenance 25205.350952148
scalar OsgEarthNet.uav[41] utilizationEnergyCharge 74651.8359375
scalar OsgEarthNet.uav[41] utilizationEnergyOverdrawMission 0
scalar OsgEarthNet.uav[41] utilizationEnergyOverdrawMaintenance 0
scalar OsgEarthNet.uav[41] utilizationCountMissions 16
scalar OsgEarthNet.uav[41] utilizationCountManeuversMission 170
scalar OsgEarthNet.uav[41] utilizationCountManeuversMaintenance 32
scalar OsgEarthNet.uav[41] utilizationCountChargeState 16
scalar OsgEarthNet.uav[41] utilizationCountOverdrawnAfterMission 0
scalar OsgEarthNet.uav[41] utilizationCountIdleState 17
scalar OsgEarthNet.uav[41] utilizationFail 0
scalar OsgEarthNet.uav[41] simulationTime 259200
scalar OsgEarthNet.uav[42] utilizationSecMission 694.00169469977
scalar OsgEarthNet.uav[42] utilizationSecMaintenance 338.49695459722
scalar OsgEarthNet.uav[42] utilizationSecCharge 3630
scalar OsgEarthNet.uav[42] utilizationSecIdle 254537.5003507
scalar OsgEarthNet.uav[42] utilizationEnergyMission 2929.4769439697
scalar OsgEarthNet.uav[42] utilizationEnergyMaintenance 1585.0583610535
scalar OsgEarthNet.uav[42] utilizationEnergyCharge 4514.5341796875
scalar OsgEarthNet.uav[42] utilizationEnergyOverdrawMission 0
scalar OsgEarthNet.uav[42] utilizationEnergyOverdrawMaintenance 0
scalar OsgEarthNet.uav[42] utilizationCountMissions 1
scalar OsgEarthNet.uav[42] utilizationCountManeuversMission 13
scalar OsgEarthNet.uav[42] utilizationCountManeuversMaintenance 2
scalar OsgEarthNet.uav[42] utilizationCountChargeState 1
scalar OsgEarthNet.uav[42] utilizationCountOverdrawnAfterMission 0
scalar OsgEarthNet.uav[42] utilizationCountIdleState 2
scalar OsgEarthNet.uav[42] utilizationFail 0
scalar OsgEarthNet.uav[42] simulationTime 259200
scalar OsgEarthNet.uav[43] utilizationSecMission 760.62515258028
scalar OsgEarthNet.uav[43] utilizationSecMaintenance 291.95923480269
scalar OsgEarthNet.uav[43] utilizationSecCharge 3790
scalar OsgEarthNet.uav[43] utilizationSecIdle 254357.41461262
scalar OsgEarthNet.uav[43] utilizationEnergyMission 3265.3522415161
scalar OsgEarthNet.uav[43] utilizationEnergyMaintenance 1509.4267196655
scalar OsgEarthNet.uav[43] utilizationEnergyCharge 4774.775390625
scalar OsgEarthNet.uav[43] utilizationEnergyOverdrawMission 0
scalar OsgEarthNet.uav[43] utilizationEnergyOverdrawMaintenance 0
scalar OsgEarthNet.uav[43] utilizationCountMissions 1
scalar OsgEarthNet.uav[43] utilizationCountManeuversMission 12
scalar OsgEarthNet.uav[43] utilizationCountManeuversMaintenance 2
scalar OsgEarthNet.uav[43] utilizationCountChargeState 1
scalar OsgEarthNet.uav[43] utilizationCountOverdrawnAfterMission 0
scalar OsgEarthNet.uav[43] utilizationCountIdleState 2
scalar OsgEarthNet.uav[43] utilizationFail 0
scalar OsgEarthNet.uav[43] simulationTime 259200
scalar OsgEarthNet.uav[44] utilizationSecMission 621.17604176187
scalar OsgEarthNet.uav[44] utilizationSecMaintenance 378.2815995389
scalar OsgEarthNet.uav[44] utilizationSecCharge 3840
scalar OsgEarthNet.uav[44] utilizationSecIdle 254360.5413587
scalar OsgEarthNet.uav[44] utilizationEnergyMission 3077.9520950317
scalar OsgEarthNet.uav[44] utilizationEnergyMaintenance 1770.269115448
scalar OsgEarthNet.uav[44] utilizationEnergyCharge 4848.2182617188
scalar OsgEarthNet.uav[44] utilizationEnergyOverdrawMission 0
scalar OsgEarthNet.uav[44] utilizationEnergyOverdrawMaintenance 0
scalar OsgEarthNet.uav[44] utilizationCountMissions 1
scalar OsgEarthNet.uav[44] utilizationCountManeuversMission 12
scalar OsgEarthNet.uav[44] utilizationCountManeuversMaintenance 2
scalar OsgEarthNet.uav[44] utilizationCountChargeState 1
scalar OsgEarthNet.uav[44] utilizationCountOverdrawnAfterMission 0
scalar OsgEarthNet.uav[44] utilizationCountIdleState 2
scalar OsgEarthNet.uav[44] utilizationFail 0
scalar OsgEarthNet.uav[44] simulationTime 259200
scalar OsgEarthNet.uav[45] utilizationSecMission 16368.505097609
scalar OsgEarthNet.uav[45] utilizationSecMaintenance 7102.2315428359
scalar OsgEarthNet.uav[45] utilizationSecCharge 85680
scalar OsgEarthNet.uav[45] utilizationSecIdle 150049.26235955
scalar OsgEarthNet.uav[45] utilizationEnergyMission 75129.906600952
scalar OsgEarthNet.uav[45] utilizationEnergyMaintenance 32525.533782959
scalar OsgEarthNet.uav[45] utilizationEnergyCharge 107327.79296875
scalar OsgEarthNet.uav[45] utilizationEnergyOverdrawMission 0
scalar OsgEarthNet.uav[45] utilizationEnergyOverdrawMaintenance 0
scalar OsgEarthNet.uav[45] utilizationCountMissions 23
scalar OsgEarthNet.uav[45] utilizationCountManeuversMission 258
scalar OsgEarthNet.uav[45] utilizationCountManeuversMaintenance 46
scalar OsgEarthNet.uav[45] utilizationCountChargeState 23
scalar OsgEarthNet.uav[45] utilizationCountOverdrawnAfterMission 0
scalar OsgEarthNet.uav[45] utilizationCountIdleState 24
scalar OsgEarthNet.uav[45] utilizationFail 0
scalar OsgEarthNet.uav[45] simulationTime 259200
scalar OsgEarthNet.uav[46] utilizationSecMission 670.50650402609
scalar OsgEarthNet.uav[46] utilizationSecMaintenance 362.30145289341
scalar OsgEarthNet.uav[46] utilizationSecCharge 3910
scalar OsgEarthNet.uav[46] utilizationSecIdle 254257.19104308
scalar OsgEarthNet.uav[46] utilizationEnergyMission 3194.1231536865
scalar OsgEarthNet.uav[46] utilizationEnergyMaintenance 1784.9657707214
scalar OsgEarthNet.uav[46] utilizationEnergyCharge 4979.0922851562
scalar OsgEarthNet.uav[46] utilizationEnergyOverdrawMission 0
scalar OsgEarthNet.uav[46] utilizationEnergyOverdrawMaintenance 0
scalar OsgEarthNet.uav[46] utilizationCountMissions 1
scalar OsgEarthNet.uav[46] utilizationCountManeuversMission 10
scalar OsgEarthNet.uav[46] utilizationCountManeuversMaintenance 2
scalar OsgEarthNet.uav[46] utilizationCountChargeState 1
scalar OsgEarthNet.uav[46] utilizationCountOverdrawnAfterMission 0
scalar OsgEarthNet.uav[46] utilizationCountIdleState 2
scalar OsgEarthNet.uav[46] utilizationFail 0
scalar OsgEarthNet.uav[46] simulationTime 259200
scalar OsgEarthNet.uav[47] utilizationSecMission 28375.386301617
scalar OsgEarthNet.uav[47] utilizationSecMaintenance 12014.397371638
scalar OsgEarthNet.uav[47] utilizationSecCharge 149450.80362767
scalar OsgEarthNet.uav[47] utilizationSecIdle 69359.41169908
scalar OsgEarthNet.uav[47] utilizationEnergyMission 131513.459198
scalar OsgEarthNet.uav[47] utilizationEnergyMaintenance 56688.154022217
scalar OsgEarthNet.uav[47] utilizationEnergyCharge 188257.26025391
scalar OsgEarthNet.uav[47] utilizationEnergyOverdrawMission 0
scalar OsgEarthNet.uav[47] utilizationEnergyOverdrawMaintenance 13.775093078613
scalar OsgEarthNet.uav[47] utilizationCountMissions 40
scalar OsgEarthNet.uav[47] utilizationCountManeuversMission 469
scalar OsgEarthNet.uav[47] utilizationCountManeuversMaintenance 80
scalar OsgEarthNet.uav[47] utilizationCountChargeState 40
scalar OsgEarthNet.uav[47] utilizationCountOverdrawnAfterMission 1
scalar OsgEarthNet.uav[47] utilizationCountIdleState 40
scalar OsgEarthNet.uav[47] utilizationFail 0
scalar OsgEarthNet.uav[47] simulationTime 259200
scalar OsgEarthNet.uav[48] utilizationSecMission 694.00169469977
scalar OsgEarthNet.uav[48] utilizationSecMaintenance 338.49695459722
scalar OsgEarthNet.uav[48] utilizationSecCharge 3790
scalar OsgEarthNet.uav[48] utilizationSecIdle 254377.5003507
scalar OsgEarthNet.uav[48] utilizationEnergyMission 3364.9976501465
scalar OsgEarthNet.uav[48] utilizationEnergyMaintenance 1424.5841789246
scalar OsgEarthNet.uav[48] utilizationEnergyCharge 4789.58203125
scalar OsgEarthNet.uav[48] utilizationEnergyOverdrawMission 0
scalar OsgEarthNet.uav[48] utilizationEnergyOverdrawMaintenance 0
scalar OsgEarthNet.uav[48] utilizationCountMissions 1
scalar OsgEarthNet.uav[48] utilizationCountManeuversMission 13
scalar OsgEarthNet.uav[48] utilizationCountManeuversMaintenance 2
scalar OsgEarthNet.uav[48] utilizationCountChargeState 1
scalar OsgEarthNet.uav[48] utilizationCountOverdrawnAfterMission 0
scalar OsgEarthNet.uav[48] utilizationCountIdleState 2
scalar OsgEarthNet.uav[48] utilizationFail 0
scalar OsgEarthNet.uav[48] simulationTime 259200
scalar OsgEarthNet.uav[49] utilizationSecMission 27219.764587555
scalar OsgEarthNet.uav[49] utilizationSecMaintenance 13625.56856888
scalar OsgEarthNet.uav[49] utilizationSecCharge 150220.7873612
scalar OsgEarthNet.uav[49] utilizationSecIdle 68133.878482368
scalar OsgEarthNet.uav[49] utilizationEnergyMission 126514.89121246
scalar OsgEarthNet.uav[49] utilizationEnergyMaintenance 63837.553417206
scalar OsgEarthNet.uav[49] utilizationEnergyCharge 188423.68676758
scalar OsgEarthNet.uav[49] utilizationEnergyOverdrawMission 0
scalar OsgEarthNet.uav[49] utilizationEnergyOverdrawMaintenance 0
scalar OsgEarthNet.uav[49] utilizationCountMissions 41
scalar OsgEarthNet.uav[49] utilizationCountManeuversMission 453
scalar OsgEarthNet.uav[49] utilizationCountManeuversMaintenance 82
scalar OsgEarthNet.uav[49] utilizationCountChargeState 41
scalar OsgEarthNet.uav[49] utilizationCountOverdrawnAfterMission 0
scalar OsgEarthNet.uav[49] utilizationCountIdleState 41
scalar OsgEarthNet.uav[49] utilizationFail 0
scalar OsgEarthNet.uav[49] simulationTime 259200
scalar OsgEarthNet.uav[50] utilizationSecMission 760.62515258028
scalar OsgEarthNet.uav[50] utilizationSecMaintenance 291.95923480269
scalar OsgEarthNet.uav[50] utilizationSecCharge 3840
scalar OsgEarthNet.uav[50] utilizationSecIdle 254307.41461262
scalar OsgEarthNet.uav[50] utilizationEnergyMission 3387.6363677979
scalar OsgEarthNet.uav[50] utilizationEnergyMaintenance 1469.5294723511
scalar OsgEarthNet.uav[50] utilizationEnergyCharge 4857.162109375
scalar OsgEarthNet.uav[50] utilizationEnergyOverdrawMission 0
scalar OsgEarthNet.uav[50] utilizationEnergyOverdrawMaintenance 0
scalar OsgEarthNet.uav[50] utilizationCountMissions 1
scalar OsgEarthNet.uav[50] utilizationCountManeuversMission 12
scalar OsgEarthNet.uav[50] utilizationCountManeuversMaintenance 2
scalar OsgEarthNet.uav[50] utilizationCountChargeState 1
scalar OsgEarthNet.uav[50] utilizationCountOverdrawnAfterMission 0
scalar OsgEarthNet.uav[50] utilizationCountIdleState 2
scalar OsgEarthNet.uav[50] utilizationFail 0
scalar OsgEarthNet.uav[50] simulationTime 259200
scalar OsgEarthNet.uav[51] utilizationSecMission 23834.427064375
scalar OsgEarthNet.uav[51] utilizationSecMaintenance 11413.269921442
scalar OsgEarthNet.uav[51] utilizationSecCharge 127954.29469336
scalar OsgEarthNet.uav[51] utilizationSecIdle 95998.007320828
scalar OsgEarthNet.uav[51] utilizationEnergyMission 109534.19529724
scalar OsgEarthNet.uav[51] utilizationEnergyMaintenance 53571.946018219
scalar OsgEarthNet.uav[51] utilizationEnergyCharge 160719.61889648
scalar OsgEarthNet.uav[51] utilizationEnergyOverdrawMission 0
scalar OsgEarthNet.uav[51] utilizationEnergyOverdrawMaintenance 0
scalar OsgEarthNet.uav[51] utilizationCountMissions 35
scalar OsgEarthNet.uav[51] utilizationCountManeuversMission 380
scalar OsgEarthNet.uav[51] utilizationCountManeuversMaintenance 70
scalar OsgEarthNet.uav[51] utilizationCountChargeState 35
scalar OsgEarthNet.uav[51] utilizationCountOverdrawnAfterMission 0
scalar OsgEarthNet.uav[51] utilizationCountIdleState 35
scalar OsgEarthNet.uav[51] utilizationFail 0
scalar OsgEarthNet.uav[51] simulationTime 259200
scalar OsgEarthNet.uav[52] utilizationSecMission 2185.6965600157
scalar OsgEarthNet.uav[52] utilizationSecMaintenance 889.69262510556
scalar OsgEarthNet.uav[52] utilizationSecCharge 11430
scalar OsgEarthNet.uav[52] utilizationSecIdle 244694.60981488
scalar OsgEarthNet.uav[52] utilizationEnergyMission 10174.706680298
scalar OsgEarthNet.uav[52] utilizationEnergyMaintenance 4295.6668434143
scalar OsgEarthNet.uav[52] utilizationEnergyCharge 14464.481445312
scalar OsgEarthNet.uav[52] utilizationEnergyOverdrawMission 0
scalar OsgEarthNet.uav[52] utilizationEnergyOverdrawMaintenance 0
scalar OsgEarthNet.uav[52] utilizationCountMissions 3
scalar OsgEarthNet.uav[52] utilizationCountManeuversMission 33
scalar OsgEarthNet.uav[52] utilizationCountManeuversMaintenance 6
scalar OsgEarthNet.uav[52] utilizationCountChargeState 3
scalar OsgEarthNet.uav[52] utilizationCountOverdrawnAfterMission 0
scalar OsgEarthNet.uav[52] utilizationCountIdleState 4
scalar OsgEarthNet.uav[52] utilizationFail 0
scalar OsgEarthNet.uav[52] simulationTime 259200
scalar OsgEarthNet.uav[53] utilizationSecMission 684.4732299383
scalar OsgEarthNet.uav[53] utilizationSecMaintenance 298.56834692969
scalar OsgEarthNet.uav[53] utilizationSecCharge 3710
scalar OsgEarthNet.uav[53] utilizationSecIdle 254506.95742313
scalar OsgEarthNet.uav[53] utilizationEnergyMission 3221.9163970947
scalar OsgEarthNet.uav[53] utilizationEnergyMaintenance 1410.9516830444
scalar OsgEarthNet.uav[53] utilizationEnergyCharge 4632.8623046875
scalar OsgEarthNet.uav[53] utilizationEnergyOverdrawMission 0
scalar OsgEarthNet.uav[53] utilizationEnergyOverdrawMaintenance 0
scalar OsgEarthNet.uav[53] utilizationCountMissions 1
scalar OsgEarthNet.uav[53] utilizationCountManeuversMission 11
scalar OsgEarthNet.uav[53] utilizationCountManeuversMaintenance 2
scalar OsgEarthNet.uav[53] utilizationCountChargeState 1
scalar OsgEarthNet.uav[53] utilizationCountOverdrawnAfterMission 0
scalar OsgEarthNet.uav[53] utilizationCountIdleState 2
scalar OsgEarthNet.uav[53] utilizationFail 0
scalar OsgEarthNet.uav[53] simulationTime 259200
scalar OsgEarthNet.uav[54] utilizationSecMission 29655.248506257
scalar OsgEarthNet.uav[54] utilizationSecMaintenance 12586.756768231
scalar OsgEarthNet.uav[54] utilizationSecCharge 154129.38340282
scalar OsgEarthNet.uav[54] utilizationSecIdle 62828.610322687
scalar OsgEarthNet.uav[54] utilizationEnergyMission 136894.01235962
scalar OsgEarthNet.uav[54] utilizationEnergyMaintenance 59772.651065826
scalar OsgEarthNet.uav[54] utilizationEnergyCharge 193725.13220215
scalar OsgEarthNet.uav[54] utilizationEnergyOverdrawMission 0
scalar OsgEarthNet.uav[54] utilizationEnergyOverdrawMaintenance 0
scalar OsgEarthNet.uav[54] utilizationCountMissions 42
scalar OsgEarthNet.uav[54] utilizationCountManeuversMission 482
scalar OsgEarthNet.uav[54] utilizationCountManeuversMaintenance 84
scalar OsgEarthNet.uav[54] utilizationCountChargeState 42
scalar OsgEarthNet.uav[54] utilizationCountOverdrawnAfterMission 0
scalar OsgEarthNet.uav[54] utilizationCountIdleState 42
scalar OsgEarthNet.uav[54] utilizationFail 0
scalar OsgEarthNet.uav[54] simulationTime 259200
scalar OsgEarthNet.uav[55] utilizationSecMission 26229.617217629
scalar OsgEarthNet.uav[55] utilizationSecMaintenance 13530.629230604
scalar OsgEarthNet.uav[55] utilizationSecCharge 147546.59236043
scalar OsgEarthNet.uav[55] utilizationSecIdle 71893.160191334
scalar OsgEarthNet.uav[55] utilizationEnergyMission 121722.45498657
scalar OsgEarthNet.uav[55] utilizationEnergyMaintenance 63801.704986572
scalar OsgEarthNet.uav[55] utilizationEnergyCharge 185383.35839844
scalar OsgEarthNet.uav[55] utilizationEnergyOverdrawMission 0
scalar OsgEarthNet.uav[55] utilizationEnergyOverdrawMaintenance 0
scalar OsgEarthNet.uav[55] utilizationCountMissions 40
scalar OsgEarthNet.uav[55] utilizationCountManeuversMission 432
scalar OsgEarthNet.uav[55] utilizationCountManeuversMaintenance 80
scalar OsgEarthNet.uav[55] utilizationCountChargeState 40
scalar OsgEarthNet.uav[55] utilizationCountOverdrawnAfterMission 0
scalar OsgEarthNet.uav[55] utilizationCountIdleState 40
scalar OsgEarthNet.uav[55] utilizationFail 0
scalar OsgEarthNet.uav[55] simulationTime 259200
scalar OsgEarthNet.uav[56] utilizationSecMission 760.62515258028
scalar OsgEarthNet.uav[56] utilizationSecMaintenance 223.6438949726
scalar OsgEarthNet.uav[56] utilizationSecCharge 3750
scalar OsgEarthNet.uav[56] utilizationSecIdle 254465.72995245
scalar OsgEarthNet.uav[56] utilizationEnergyMission 3599.3862075806
scalar OsgEarthNet.uav[56] utilizationEnergyMaintenance 1119.543346405
scalar OsgEarthNet.uav[56] utilizationEnergyCharge 4718.9272460938
scalar OsgEarthNet.uav[56] utilizationEnergyOverdrawMission 0
scalar OsgEarthNet.uav[56] utilizationEnergyOverdrawMaintenance 0
scalar OsgEarthNet.uav[56] utilizationCountMissions 1
scalar OsgEarthNet.uav[56] utilizationCountManeuversMission 12
scalar OsgEarthNet.uav[56] utilizationCountManeuversMaintenance 2
scalar OsgEarthNet.uav[56] utilizationCountChargeState 1
scalar OsgEarthNet.uav[56] utilizationCountOverdrawnAfterMission 0
scalar OsgEarthNet.uav[56] utilizationCountIdleState 2
scalar OsgEarthNet.uav[56] utilizationFail 0
scalar OsgEarthNet.uav[56] simulationTime 259200
scalar OsgEarthNet.uav[57] utilizationSecMission 24514.551979583
scalar OsgEarthNet.uav[57] utilizationSecMaintenance 13419.242098812
scalar OsgEarthNet.uav[57] utilizationSecCharge 139389.44992235
scalar OsgEarthNet.uav[57] utilizationSecIdle 81876.75499925
scalar OsgEarthNet.uav[57] utilizationEnergyMission 113158.12970734
scalar OsgEarthNet.uav[57] utilizationEnergyMaintenance 63540.346473694
scalar OsgEarthNet.uav[57] utilizationEnergyCharge 175439.43969727
scalar OsgEarthNet.uav[57] utilizationEnergyOverdrawMission 0
scalar OsgEarthNet.uav[57] utilizationEnergyOverdrawMaintenance 0
scalar OsgEarthNet.uav[57] utilizationCountMissions 38
scalar OsgEarthNet.uav[57] utilizationCountManeuversMission 411
scalar OsgEarthNet.uav[57] utilizationCountManeuversMaintenance 76
scalar OsgEarthNet.uav[57] utilizationCountChargeState 38
scalar OsgEarthNet.uav[57] utilizationCountOverdrawnAfterMission 0
scalar OsgEarthNet.uav[57] utilizationCountIdleState 38
scalar OsgEarthNet.uav[57] utilizationFail 0
scalar OsgEarthNet.uav[57] simulationTime 259200
scalar OsgEarthNet.uav[58] utilizationSecMission 32150.687412171
scalar OsgEarthNet.uav[58] utilizationSecMaintenance 14066.027747814
scalar OsgEarthNet.uav[58] utilizationSecCharge 168061.28384002
scalar OsgEarthNet.uav[58] utilizationSecIdle 44922
scalar OsgEarthNet.uav[58] utilizationEnergyMission 147843.91390417
scalar OsgEarthNet.uav[58] utilizationEnergyMaintenance 66222.263404846
scalar OsgEarthNet.uav[58] utilizationEnergyCharge 210733.25292969
scalar OsgEarthNet.uav[58] utilizationEnergyOverdrawMission 0
scalar OsgEarthNet.uav[58] utilizationEnergyOverdrawMaintenance 0
scalar OsgEarthNet.uav[58] utilizationCountMissions 46
scalar OsgEarthNet.uav[58] utilizationCountManeuversMission 524
scalar OsgEarthNet.uav[58] utilizationCountManeuversMaintenance 91
scalar OsgEarthNet.uav[58] utilizationCountChargeState 46
scalar OsgEarthNet.uav[58] utilizationCountOverdrawnAfterMission 0
scalar OsgEarthNet.uav[58] utilizationCountIdleState 46
scalar OsgEarthNet.uav[58] utilizationFail 0
scalar OsgEarthNet.uav[58] simulationTime 259200
scalar OsgEarthNet.uav[59] utilizationSecMission 684.4732299383
scalar OsgEarthNet.uav[59] utilizationSecMaintenance 298.56834692969
scalar OsgEarthNet.uav[59] utilizationSecCharge 3720
scalar OsgEarthNet.uav[59] utilizationSecIdle 254496.95742313
scalar OsgEarthNet.uav[59] utilizationEnergyMission 3151.6244812012
scalar OsgEarthNet.uav[59] utilizationEnergyMaintenance 1478.7447738647
scalar OsgEarthNet.uav[59] utilizationEnergyCharge 4630.3657226562
scalar OsgEarthNet.uav[59] utilizationEnergyOverdrawMission 0
scalar OsgEarthNet.uav[59] utilizationEnergyOverdrawMaintenance 0
scalar OsgEarthNet.uav[59] utilizationCountMissions 1
scalar OsgEarthNet.uav[59] utilizationCountManeuversMission 11
scalar OsgEarthNet.uav[59] utilizationCountManeuversMaintenance 2
scalar OsgEarthNet.uav[59] utilizationCountChargeState 1
scalar OsgEarthNet.uav[59] utilizationCountOverdrawnAfterMission 0
scalar OsgEarthNet.uav[59] utilizationCountIdleState 2
scalar OsgEarthNet.uav[59] utilizationFail 0
scalar OsgEarthNet.uav[59] simulationTime 259200
scalar OsgEarthNet.uav[60] utilizationSecMission 684.4732299383
scalar OsgEarthNet.uav[60] utilizationSecMaintenance 298.56834692969
scalar OsgEarthNet.uav[60] utilizationSecCharge 3850
scalar OsgEarthNet.uav[60] utilizationSecIdle 254366.95742313
scalar OsgEarthNet.uav[60] utilizationEnergyMission 3494.1842193604
scalar OsgEarthNet.uav[60] utilizationEnergyMaintenance 1382.9369125366
scalar OsgEarthNet.uav[60] utilizationEnergyCharge 4877.1201171875
scalar OsgEarthNet.uav[60] utilizationEnergyOverdrawMission 0
scalar OsgEarthNet.uav[60] utilizationEnergyOverdrawMaintenance 0
scalar OsgEarthNet.uav[60] utilizationCountMissions 1
scalar OsgEarthNet.uav[60] utilizationCountManeuversMission 11
scalar OsgEarthNet.uav[60] utilizationCountManeuversMaintenance 2
scalar OsgEarthNet.uav[60] utilizationCountChargeState 1
scalar OsgEarthNet.uav[60] utilizationCountOverdrawnAfterMission 0
scalar OsgEarthNet.uav[60] utilizationCountIdleState 2
scalar OsgEarthNet.uav[60] utilizationFail 0
scalar OsgEarthNet.uav[60] simulationTime 259200
scalar OsgEarthNet.uav[61] utilizationSecMission 2268.2121979117
scalar OsgEarthNet.uav[61] utilizationSecMaintenance 1620.1774848232
scalar OsgEarthNet.uav[61] utilizationSecCharge 12498.047214915
scalar OsgEarthNet.uav[61] utilizationSecIdle 242813.56210235
scalar OsgEarthNet.uav[61] utilizationEnergyMission 10690.375915527
scalar OsgEarthNet.uav[61] utilizationEnergyMaintenance 7585.8761749268
scalar OsgEarthNet.uav[61] utilizationEnergyCharge 16321.554931641
scalar OsgEarthNet.uav[61] utilizationEnergyOverdrawMission 0
scalar OsgEarthNet.uav[61] utilizationEnergyOverdrawMaintenance 0
scalar OsgEarthNet.uav[61] utilizationCountMissions 4
scalar OsgEarthNet.uav[61] utilizationCountManeuversMission 39
scalar OsgEarthNet.uav[61] utilizationCountManeuversMaintenance 8
scalar OsgEarthNet.uav[61] utilizationCountChargeState 4
scalar OsgEarthNet.uav[61] utilizationCountOverdrawnAfterMission 0
scalar OsgEarthNet.uav[61] utilizationCountIdleState 4
scalar OsgEarthNet.uav[61] utilizationFail 0
scalar OsgEarthNet.uav[61] simulationTime 259200
scalar OsgEarthNet.uav[62] utilizationSecMission 828.1936691689
scalar OsgEarthNet.uav[62] utilizationSecMaintenance 156.97870384097
scalar OsgEarthNet.uav[62] utilizationSecCharge 3780
scalar OsgEarthNet.uav[62] utilizationSecIdle 254434.82662699
scalar OsgEarthNet.uav[62] utilizationEnergyMission 4122.9480743408
scalar OsgEarthNet.uav[62] utilizationEnergyMaintenance 712.31127166748
scalar OsgEarthNet.uav[62] utilizationEnergyCharge 4785.1713867188
scalar OsgEarthNet.uav[62] utilizationEnergyOverdrawMission 0
scalar OsgEarthNet.uav[62] utilizationEnergyOverdrawMaintenance 0
scalar OsgEarthNet.uav[62] utilizationCountMissions 1
scalar OsgEarthNet.uav[62] utilizationCountManeuversMission 13
scalar OsgEarthNet.uav[62] utilizationCountManeuversMaintenance 2
scalar OsgEarthNet.uav[62] utilizationCountChargeState 1
scalar OsgEarthNet.uav[62] utilizationCountOverdrawnAfterMission 0
scalar OsgEarthNet.uav[62] utilizationCountIdleState 2
scalar OsgEarthNet.uav[62] utilizationFail 0
scalar OsgEarthNet.uav[62] simulationTime 259200
scalar OsgEarthNet.uav[63] utilizationSecMission 27307.949084805
scalar OsgEarthNet.uav[63] utilizationSecMaintenance 14802.885878181
scalar OsgEarthNet.uav[63] utilizationSecCharge 156015.91171544
scalar OsgEarthNet.uav[63] utilizationSecIdle 61073.252321579
scalar OsgEarthNet.uav[63] utilizationEnergyMission 127047.58917999
scalar OsgEarthNet.uav[63] utilizationEnergyMaintenance 68693.426673889
scalar OsgEarthNet.uav[63] utilizationEnergyCharge 195435.17236328
scalar OsgEarthNet.uav[63] utilizationEnergyOverdrawMission 0
scalar OsgEarthNet.uav[63] utilizationEnergyOverdrawMaintenance 0
scalar OsgEarthNet.uav[63] utilizationCountMissions 42
scalar OsgEarthNet.uav[63] utilizationCountManeuversMission 455
scalar OsgEarthNet.uav[63] utilizationCountManeuversMaintenance 84
scalar OsgEarthNet.uav[63] utilizationCountChargeState 42
scalar OsgEarthNet.uav[63] utilizationCountOverdrawnAfterMission 0
scalar OsgEarthNet.uav[63] utilizationCountIdleState 42
scalar OsgEarthNet.uav[63] utilizationFail 0
scalar OsgEarthNet.uav[63] simulationTime 259200
scalar OsgEarthNet.uav[64] utilizationSecMission 31556.146719679
scalar OsgEarthNet.uav[64] utilizationSecMaintenance 13010.484678147
scalar OsgEarthNet.uav[64] utilizationSecCharge 164770
scalar OsgEarthNet.uav[64] utilizationSecIdle 49863.367602174
scalar OsgEarthNet.uav[64] utilizationEnergyMission 146729.93492889
scalar OsgEarthNet.uav[64] utilizationEnergyMaintenance 60284.001018524
scalar OsgEarthNet.uav[64] utilizationEnergyCharge 206722.07763672
scalar OsgEarthNet.uav[64] utilizationEnergyOverdrawMission 0
scalar OsgEarthNet.uav[64] utilizationEnergyOverdrawMaintenance 0
scalar OsgEarthNet.uav[64] utilizationCountMissions 44
scalar OsgEarthNet.uav[64] utilizationCountManeuversMission 519
scalar OsgEarthNet.uav[64] utilizationCountManeuversMaintenance 88
scalar OsgEarthNet.uav[64] utilizationCountChargeState 44
scalar OsgEarthNet.uav[64] utilizationCountOverdrawnAfterMission 0
scalar OsgEarthNet.uav[64] utilizationCountIdleState 45
scalar OsgEarthNet.uav[64] utilizationFail 0
scalar OsgEarthNet.uav[64] simulationTime 259200
scalar OsgEarthNet.uav[65] utilizationSecMission 621.17604176187
scalar OsgEarthNet.uav[65] utilizationSecMaintenance 313.76167006775
scalar OsgEarthNet.uav[65] utilizationSecCharge 3720
scalar OsgEarthNet.uav[65] utilizationSecIdle 254545.06128817
[...]
scalar OsgEarthNet.uav[82] utilizationSecIdle 73146.447572472
scalar OsgEarthNet.uav[82] utilizationEnergyMission 134571.9360199
scalar OsgEarthNet.uav[82] utilizationEnergyMaintenance 51584.555282593
scalar OsgEarthNet.uav[82] utilizationEnergyCharge 182717.48413086
scalar OsgEarthNet.uav[82] utilizationEnergyOverdrawMission 0
scalar OsgEarthNet.uav[82] utilizationEnergyOverdrawMaintenance 0
scalar OsgEarthNet.uav[82] utilizationCountMissions 40
scalar OsgEarthNet.uav[82] utilizationCountManeuversMission 462
scalar OsgEarthNet.uav[82] utilizationCountManeuversMaintenance 80
scalar OsgEarthNet.uav[82] utilizationCountChargeState 40
scalar OsgEarthNet.uav[82] utilizationCountOverdrawnAfterMission 0
scalar OsgEarthNet.uav[82] utilizationCountIdleState 40
scalar OsgEarthNet.uav[82] utilizationFail 0
scalar OsgEarthNet.uav[82] simulationTime 259200
scalar OsgEarthNet.uav[83] utilizationSecMission 30724.135160201
scalar OsgEarthNet.uav[83] utilizationSecMaintenance 13556.486913311
scalar OsgEarthNet.uav[83] utilizationSecCharge 160097.37692649
scalar OsgEarthNet.uav[83] utilizationSecIdle 54822
scalar OsgEarthNet.uav[83] utilizationEnergyMission 141313.30876657
scalar OsgEarthNet.uav[83] utilizationEnergyMaintenance 63358.430023193
scalar OsgEarthNet.uav[83] utilizationEnergyCharge 200481.7913208
scalar OsgEarthNet.uav[83] utilizationEnergyOverdrawMission 0
scalar OsgEarthNet.uav[83] utilizationEnergyOverdrawMaintenance 0
scalar OsgEarthNet.uav[83] utilizationCountMissions 44
scalar OsgEarthNet.uav[83] utilizationCountManeuversMission 497
scalar OsgEarthNet.uav[83] utilizationCountManeuversMaintenance 87
scalar OsgEarthNet.uav[83] utilizationCountChargeState 44
scalar OsgEarthNet.uav[83] utilizationCountOverdrawnAfterMission 0
scalar OsgEarthNet.uav[83] utilizationCountIdleState 44
scalar OsgEarthNet.uav[83] utilizationFail 0
scalar OsgEarthNet.uav[83] simulationTime 259200
scalar OsgEarthNet.uav[84] utilizationSecMission 28789.680865192
scalar OsgEarthNet.uav[84] utilizationSecMaintenance 14277.597193823
scalar OsgEarthNet.uav[84] utilizationSecCharge 158031.66511549
scalar OsgEarthNet.uav[84] utilizationSecIdle 58101.055825492
scalar OsgEarthNet.uav[84] utilizationEnergyMission 132391.17176056
scalar OsgEarthNet.uav[84] utilizationEnergyMaintenance 67108.15473938
scalar OsgEarthNet.uav[84] utilizationEnergyCharge 198701.15454102
scalar OsgEarthNet.uav[84] utilizationEnergyOverdrawMission 0
scalar OsgEarthNet.uav[84] utilizationEnergyOverdrawMaintenance 0
scalar OsgEarthNet.uav[84] utilizationCountMissions 43
scalar OsgEarthNet.uav[84] utilizationCountManeuversMission 471
scalar OsgEarthNet.uav[84] utilizationCountManeuversMaintenance 86
scalar OsgEarthNet.uav[84] utilizationCountChargeState 43
scalar OsgEarthNet.uav[84] utilizationCountOverdrawnAfterMission 0
scalar OsgEarthNet.uav[84] utilizationCountIdleState 43
scalar OsgEarthNet.uav[84] utilizationFail 0
scalar OsgEarthNet.uav[84] simulationTime 259200
scalar OsgEarthNet.uav[85] utilizationSecMission 18238.476433467
scalar OsgEarthNet.uav[85] utilizationSecMaintenance 8374.4363467985
scalar OsgEarthNet.uav[85] utilizationSecCharge 98290.021436709
scalar OsgEarthNet.uav[85] utilizationSecIdle 134297.06478303
scalar OsgEarthNet.uav[85] utilizationEnergyMission 85675.294143677
scalar OsgEarthNet.uav[85] utilizationEnergyMaintenance 40058.337417603
scalar OsgEarthNet.uav[85] utilizationEnergyCharge 123864.90234375
scalar OsgEarthNet.uav[85] utilizationEnergyOverdrawMission 0
scalar OsgEarthNet.uav[85] utilizationEnergyOverdrawMaintenance 0
scalar OsgEarthNet.uav[85] utilizationCountMissions 27
scalar OsgEarthNet.uav[85] utilizationCountManeuversMission 303
scalar OsgEarthNet.uav[85] utilizationCountManeuversMaintenance 54
scalar OsgEarthNet.uav[85] utilizationCountChargeState 27
scalar OsgEarthNet.uav[85] utilizationCountOverdrawnAfterMission 0
scalar OsgEarthNet.uav[85] utilizationCountIdleState 27
scalar OsgEarthNet.uav[85] utilizationFail 0
scalar OsgEarthNet.uav[85] simulationTime 259200
scalar OsgEarthNet.uav[86] utilizationSecMission 22928.542339699
scalar OsgEarthNet.uav[86] utilizationSecMaintenance 11614.44195932
scalar OsgEarthNet.uav[86] utilizationSecCharge 126138.56081479
scalar OsgEarthNet.uav[86] utilizationSecIdle 98518.453886187
scalar OsgEarthNet.uav[86] utilizationEnergyMission 104782.75276184
scalar OsgEarthNet.uav[86] utilizationEnergyMaintenance 54001.451038361
scalar OsgEarthNet.uav[86] utilizationEnergyCharge 158867.34521484
scalar OsgEarthNet.uav[86] utilizationEnergyOverdrawMission 0
scalar OsgEarthNet.uav[86] utilizationEnergyOverdrawMaintenance 0
scalar OsgEarthNet.uav[86] utilizationCountMissions 34
scalar OsgEarthNet.uav[86] utilizationCountManeuversMission 369
scalar OsgEarthNet.uav[86] utilizationCountManeuversMaintenance 68
scalar OsgEarthNet.uav[86] utilizationCountChargeState 34
scalar OsgEarthNet.uav[86] utilizationCountOverdrawnAfterMission 0
scalar OsgEarthNet.uav[86] utilizationCountIdleState 34
scalar OsgEarthNet.uav[86] utilizationFail 0
scalar OsgEarthNet.uav[86] simulationTime 259200
scalar OsgEarthNet.uav[87] utilizationSecMission 553.12566654921
scalar OsgEarthNet.uav[87] utilizationSecMaintenance 489.82638271256
scalar OsgEarthNet.uav[87] utilizationSecCharge 3830
scalar OsgEarthNet.uav[87] utilizationSecIdle 254327.04695074
scalar OsgEarthNet.uav[87] utilizationEnergyMission 2658.4571380615
scalar OsgEarthNet.uav[87] utilizationEnergyMaintenance 2272.45936203
scalar OsgEarthNet.uav[87] utilizationEnergyCharge 4817.7119140625
scalar OsgEarthNet.uav[87] utilizationEnergyOverdrawMission 0
scalar OsgEarthNet.uav[87] utilizationEnergyOverdrawMaintenance 0
scalar OsgEarthNet.uav[87] utilizationCountMissions 1
scalar OsgEarthNet.uav[87] utilizationCountManeuversMission 9
scalar OsgEarthNet.uav[87] utilizationCountManeuversMaintenance 2
scalar OsgEarthNet.uav[87] utilizationCountChargeState 1
scalar OsgEarthNet.uav[87] utilizationCountOverdrawnAfterMission 0
scalar OsgEarthNet.uav[87] utilizationCountIdleState 2
scalar OsgEarthNet.uav[87] utilizationFail 0
scalar OsgEarthNet.uav[87] simulationTime 259200
scalar OsgEarthNet.uav[88] utilizationSecMission 26435.781646019
scalar OsgEarthNet.uav[88] utilizationSecMaintenance 12567.564044658
scalar OsgEarthNet.uav[88] utilizationSecCharge 145690
scalar OsgEarthNet.uav[88] utilizationSecIdle 74506.653309323
scalar OsgEarthNet.uav[88] utilizationEnergyMission 121818.15658231
scalar OsgEarthNet.uav[88] utilizationEnergyMaintenance 60596.98859024
scalar OsgEarthNet.uav[88] utilizationEnergyCharge 182694.77880859
scalar OsgEarthNet.uav[88] utilizationEnergyOverdrawMission 0
scalar OsgEarthNet.uav[88] utilizationEnergyOverdrawMaintenance 0
scalar OsgEarthNet.uav[88] utilizationCountMissions 39
scalar OsgEarthNet.uav[88] utilizationCountManeuversMission 424
scalar OsgEarthNet.uav[88] utilizationCountManeuversMaintenance 79
scalar OsgEarthNet.uav[88] utilizationCountChargeState 39
scalar OsgEarthNet.uav[88] utilizationCountOverdrawnAfterMission 0
scalar OsgEarthNet.uav[88] utilizationCountIdleState 40
scalar OsgEarthNet.uav[88] utilizationFail 0
scalar OsgEarthNet.uav[88] simulationTime 259200
scalar OsgEarthNet.uav[89] utilizationSecMission 836.77707522227
scalar OsgEarthNet.uav[89] utilizationSecMaintenance 217.0347828456
scalar OsgEarthNet.uav[89] utilizationSecCharge 3630
scalar OsgEarthNet.uav[89] utilizationSecIdle 254516.18714193
scalar OsgEarthNet.uav[89] utilizationEnergyMission 3473.1789321899
scalar OsgEarthNet.uav[89] utilizationEnergyMaintenance 1038.2460136414
scalar OsgEarthNet.uav[89] utilizationEnergyCharge 4511.4248046875
scalar OsgEarthNet.uav[89] utilizationEnergyOverdrawMission 0
scalar OsgEarthNet.uav[89] utilizationEnergyOverdrawMaintenance 0
scalar OsgEarthNet.uav[89] utilizationCountMissions 1
scalar OsgEarthNet.uav[89] utilizationCountManeuversMission 13
scalar OsgEarthNet.uav[89] utilizationCountManeuversMaintenance 2
scalar OsgEarthNet.uav[89] utilizationCountChargeState 1
scalar OsgEarthNet.uav[89] utilizationCountOverdrawnAfterMission 0
scalar OsgEarthNet.uav[89] utilizationCountIdleState 2
scalar OsgEarthNet.uav[89] utilizationFail 0
scalar OsgEarthNet.uav[89] simulationTime 259200
scalar OsgEarthNet.uav[90] utilizationSecMission 760.62515258028
scalar OsgEarthNet.uav[90] utilizationSecMaintenance 291.95923480269
scalar OsgEarthNet.uav[90] utilizationSecCharge 3880
scalar OsgEarthNet.uav[90] utilizationSecIdle 254267.41461262
scalar OsgEarthNet.uav[90] utilizationEnergyMission 3447.9309844971
scalar OsgEarthNet.uav[90] utilizationEnergyMaintenance 1501.5972518921
scalar OsgEarthNet.uav[90] utilizationEnergyCharge 4949.5317382812
scalar OsgEarthNet.uav[90] utilizationEnergyOverdrawMission 0
scalar OsgEarthNet.uav[90] utilizationEnergyOverdrawMaintenance 0
scalar OsgEarthNet.uav[90] utilizationCountMissions 1
scalar OsgEarthNet.uav[90] utilizationCountManeuversMission 12
scalar OsgEarthNet.uav[90] utilizationCountManeuversMaintenance 2
scalar OsgEarthNet.uav[90] utilizationCountChargeState 1
scalar OsgEarthNet.uav[90] utilizationCountOverdrawnAfterMission 0
scalar OsgEarthNet.uav[90] utilizationCountIdleState 2
scalar OsgEarthNet.uav[90] utilizationFail 0
scalar OsgEarthNet.uav[90] simulationTime 259200
scalar OsgEarthNet.uav[91] utilizationSecMission 533.25626237336
scalar OsgEarthNet.uav[91] utilizationSecMaintenance 451.14699917938
scalar OsgEarthNet.uav[91] utilizationSecCharge 3740
scalar OsgEarthNet.uav[91] utilizationSecIdle 254475.59573845
scalar OsgEarthNet.uav[91] utilizationEnergyMission 2469.957611084
scalar OsgEarthNet.uav[91] utilizationEnergyMaintenance 2204.7981376648
scalar OsgEarthNet.uav[91] utilizationEnergyCharge 4643.7690429688
scalar OsgEarthNet.uav[91] utilizationEnergyOverdrawMission 0
scalar OsgEarthNet.uav[91] utilizationEnergyOverdrawMaintenance 0
scalar OsgEarthNet.uav[91] utilizationCountMissions 1
scalar OsgEarthNet.uav[91] utilizationCountManeuversMission 8
scalar OsgEarthNet.uav[91] utilizationCountManeuversMaintenance 2
scalar OsgEarthNet.uav[91] utilizationCountChargeState 1
scalar OsgEarthNet.uav[91] utilizationCountOverdrawnAfterMission 0
scalar OsgEarthNet.uav[91] utilizationCountIdleState 2
scalar OsgEarthNet.uav[91] utilizationFail 0
scalar OsgEarthNet.uav[91] simulationTime 259200
scalar OsgEarthNet.uav[92] utilizationSecMission 887.1741082606
scalar OsgEarthNet.uav[92] utilizationSecMaintenance 171.13387461676
scalar OsgEarthNet.uav[92] utilizationSecCharge 3950
scalar OsgEarthNet.uav[92] utilizationSecIdle 254191.69101712
scalar OsgEarthNet.uav[92] utilizationEnergyMission 4187.6999053955
scalar OsgEarthNet.uav[92] utilizationEnergyMaintenance 896.93898773193
scalar OsgEarthNet.uav[92] utilizationEnergyCharge 5049.2622070312
scalar OsgEarthNet.uav[92] utilizationEnergyOverdrawMission 0
scalar OsgEarthNet.uav[92] utilizationEnergyOverdrawMaintenance 0
scalar OsgEarthNet.uav[92] utilizationCountMissions 1
scalar OsgEarthNet.uav[92] utilizationCountManeuversMission 14
scalar OsgEarthNet.uav[92] utilizationCountManeuversMaintenance 2
scalar OsgEarthNet.uav[92] utilizationCountChargeState 1
scalar OsgEarthNet.uav[92] utilizationCountOverdrawnAfterMission 0
scalar OsgEarthNet.uav[92] utilizationCountIdleState 2
scalar OsgEarthNet.uav[92] utilizationFail 0
scalar OsgEarthNet.uav[92] simulationTime 259200
scalar OsgEarthNet.uav[93] utilizationSecMission 33077.065317354
scalar OsgEarthNet.uav[93] utilizationSecMaintenance 12556.729089598
scalar OsgEarthNet.uav[93] utilizationSecCharge 166084.20459305
scalar OsgEarthNet.uav[93] utilizationSecIdle 47482
scalar OsgEarthNet.uav[93] utilizationEnergyMission 154044.57752228
scalar OsgEarthNet.uav[93] utilizationEnergyMaintenance 58483.837486267
scalar OsgEarthNet.uav[93] utilizationEnergyCharge 209075.57495117
scalar OsgEarthNet.uav[93] utilizationEnergyOverdrawMission 0
scalar OsgEarthNet.uav[93] utilizationEnergyOverdrawMaintenance 0
scalar OsgEarthNet.uav[93] utilizationCountMissions 45
scalar OsgEarthNet.uav[93] utilizationCountManeuversMission 536
scalar OsgEarthNet.uav[93] utilizationCountManeuversMaintenance 89
scalar OsgEarthNet.uav[93] utilizationCountChargeState 45
scalar OsgEarthNet.uav[93] utilizationCountOverdrawnAfterMission 0
scalar OsgEarthNet.uav[93] utilizationCountIdleState 45
scalar OsgEarthNet.uav[93] utilizationFail 0
scalar OsgEarthNet.uav[93] simulationTime 259200
scalar OsgEarthNet.uav[94] utilizationSecMission 454.19906291044
scalar OsgEarthNet.uav[94] utilizationSecMaintenance 531.61543982806
scalar OsgEarthNet.uav[94] utilizationSecCharge 3670
scalar OsgEarthNet.uav[94] utilizationSecIdle 254544.18449726
scalar OsgEarthNet.uav[94] utilizationEnergyMission 2169.2834777832
scalar OsgEarthNet.uav[94] utilizationEnergyMaintenance 2420.7791366577
scalar OsgEarthNet.uav[94] utilizationEnergyCharge 4590.0634765625
scalar OsgEarthNet.uav[94] utilizationEnergyOverdrawMission 0
scalar OsgEarthNet.uav[94] utilizationEnergyOverdrawMaintenance 0
scalar OsgEarthNet.uav[94] utilizationCountMissions 1
scalar OsgEarthNet.uav[94] utilizationCountManeuversMission 8
scalar OsgEarthNet.uav[94] utilizationCountManeuversMaintenance 2
scalar OsgEarthNet.uav[94] utilizationCountChargeState 1
scalar OsgEarthNet.uav[94] utilizationCountOverdrawnAfterMission 0
scalar OsgEarthNet.uav[94] utilizationCountIdleState 2
scalar OsgEarthNet.uav[94] utilizationFail 0
scalar OsgEarthNet.uav[94] simulationTime 259200
scalar OsgEarthNet.uav[95] utilizationSecMission 887.1741082606
scalar OsgEarthNet.uav[95] utilizationSecMaintenance 148.2728194454
scalar OsgEarthNet.uav[95] utilizationSecCharge 3700
scalar OsgEarthNet.uav[95] utilizationSecIdle 254464.55207229
scalar OsgEarthNet.uav[95] utilizationEnergyMission 4188.6059417725
scalar OsgEarthNet.uav[95] utilizationEnergyMaintenance 627.05141448974
scalar OsgEarthNet.uav[95] utilizationEnergyCharge 4639.1782226562
scalar OsgEarthNet.uav[95] utilizationEnergyOverdrawMission 0
scalar OsgEarthNet.uav[95] utilizationEnergyOverdrawMaintenance 0
scalar OsgEarthNet.uav[95] utilizationCountMissions 1
scalar OsgEarthNet.uav[95] utilizationCountManeuversMission 14
scalar OsgEarthNet.uav[95] utilizationCountManeuversMaintenance 2
scalar OsgEarthNet.uav[95] utilizationCountChargeState 1
scalar OsgEarthNet.uav[95] utilizationCountOverdrawnAfterMission 0
scalar OsgEarthNet.uav[95] utilizationCountIdleState 2
scalar OsgEarthNet.uav[95] utilizationFail 0
scalar OsgEarthNet.uav[95] simulationTime 259200
scalar OsgEarthNet.uav[96] utilizationSecMission 3607.9813639976
scalar OsgEarthNet.uav[96] utilizationSecMaintenance 1564.8440225751
scalar OsgEarthNet.uav[96] utilizationSecCharge 16224.105966685
scalar OsgEarthNet.uav[96] utilizationSecIdle 237803.06764674
scalar OsgEarthNet.uav[96] utilizationEnergyMission 16759.052726746
scalar OsgEarthNet.uav[96] utilizationEnergyMaintenance 7305.1681900024
scalar OsgEarthNet.uav[96] utilizationEnergyCharge 20899.465576172
scalar OsgEarthNet.uav[96] utilizationEnergyOverdrawMission 0
scalar OsgEarthNet.uav[96] utilizationEnergyOverdrawMaintenance 0
scalar OsgEarthNet.uav[96] utilizationCountMissions 5
scalar OsgEarthNet.uav[96] utilizationCountManeuversMission 57
scalar OsgEarthNet.uav[96] utilizationCountManeuversMaintenance 10
scalar OsgEarthNet.uav[96] utilizationCountChargeState 5
scalar OsgEarthNet.uav[96] utilizationCountOverdrawnAfterMission 0
scalar OsgEarthNet.uav[96] utilizationCountIdleState 5
scalar OsgEarthNet.uav[96] utilizationFail 0
scalar OsgEarthNet.uav[96] simulationTime 259200
scalar OsgEarthNet.uav[97] utilizationSecMission 23611.229295955
scalar OsgEarthNet.uav[97] utilizationSecMaintenance 12881.185084001
scalar OsgEarthNet.uav[97] utilizationSecCharge 132010.16751754
scalar OsgEarthNet.uav[97] utilizationSecIdle 90697.4171025
scalar OsgEarthNet.uav[97] utilizationEnergyMission 109101.35033417
scalar OsgEarthNet.uav[97] utilizationEnergyMaintenance 60266.49168396
scalar OsgEarthNet.uav[97] utilizationEnergyCharge 166113.55322266
scalar OsgEarthNet.uav[97] utilizationEnergyOverdrawMission 0
scalar OsgEarthNet.uav[97] utilizationEnergyOverdrawMaintenance 0
scalar OsgEarthNet.uav[97] utilizationCountMissions 36
scalar OsgEarthNet.uav[97] utilizationCountManeuversMission 399
scalar OsgEarthNet.uav[97] utilizationCountManeuversMaintenance 72
scalar OsgEarthNet.uav[97] utilizationCountChargeState 36
scalar OsgEarthNet.uav[97] utilizationCountOverdrawnAfterMission 0
scalar OsgEarthNet.uav[97] utilizationCountIdleState 36
scalar OsgEarthNet.uav[97] utilizationFail 0
scalar OsgEarthNet.uav[97] simulationTime 259200
scalar OsgEarthNet.uav[98] utilizationSecMission 15360.318951982
scalar OsgEarthNet.uav[98] utilizationSecMaintenance 6971.314090758
scalar OsgEarthNet.uav[98] utilizationSecCharge 81082.896830011
scalar OsgEarthNet.uav[98] utilizationSecIdle 155785.46912725
scalar OsgEarthNet.uav[98] utilizationEnergyMission 70761.423679352
scalar OsgEarthNet.uav[98] utilizationEnergyMaintenance 32515.646320343
scalar OsgEarthNet.uav[98] utilizationEnergyCharge 102781.72363281
scalar OsgEarthNet.uav[98] utilizationEnergyOverdrawMission 0
scalar OsgEarthNet.uav[98] utilizationEnergyOverdrawMaintenance 0
scalar OsgEarthNet.uav[98] utilizationCountMissions 22
scalar OsgEarthNet.uav[98] utilizationCountManeuversMission 248
scalar OsgEarthNet.uav[98] utilizationCountManeuversMaintenance 44
scalar OsgEarthNet.uav[98] utilizationCountChargeState 22
scalar OsgEarthNet.uav[98] utilizationCountOverdrawnAfterMission 0
scalar OsgEarthNet.uav[98] utilizationCountIdleState 22
scalar OsgEarthNet.uav[98] utilizationFail 0
scalar OsgEarthNet.uav[98] simulationTime 259200
scalar OsgEarthNet.uav[99] utilizationSecMission 10626.298725661
scalar OsgEarthNet.uav[99] utilizationSecMaintenance 6200.6372034883
scalar OsgEarthNet.uav[99] utilizationSecCharge 62780
scalar OsgEarthNet.uav[99] utilizationSecIdle 179593.06307085
scalar OsgEarthNet.uav[99] utilizationEnergyMission 48655.463378906
scalar OsgEarthNet.uav[99] utilizationEnergyMaintenance 29584.74161911
scalar OsgEarthNet.uav[99] utilizationEnergyCharge 78607.986328125
scalar OsgEarthNet.uav[99] utilizationEnergyOverdrawMission 0
scalar OsgEarthNet.uav[99] utilizationEnergyOverdrawMaintenance 0
scalar OsgEarthNet.uav[99] utilizationCountMissions 17
scalar OsgEarthNet.uav[99] utilizationCountManeuversMission 173
scalar OsgEarthNet.uav[99] utilizationCountManeuversMaintenance 34
scalar OsgEarthNet.uav[99] utilizationCountChargeState 17
scalar OsgEarthNet.uav[99] utilizationCountOverdrawnAfterMission 0
scalar OsgEarthNet.uav[99] utilizationCountIdleState 17
scalar OsgEarthNet.uav[99] utilizationFail 0
scalar OsgEarthNet.uav[99] simulationTime 259200
scalar OsgEarthNet.cs[0] usedPower 559354.12440729
scalar OsgEarthNet.cs[0] chargedPower 559354.12440729
scalar OsgEarthNet.cs[0] chargedMobileNodes 117
scalar OsgEarthNet.cs[0] reservations 120
scalar OsgEarthNet.cs[1] usedPower 1075584.4837633
scalar OsgEarthNet.cs[1] chargedPower 1075584.4837633
scalar OsgEarthNet.cs[1] chargedMobileNodes 227
scalar OsgEarthNet.cs[1] reservations 231
scalar OsgEarthNet.cs[2] usedPower 2472615.8361009
scalar OsgEarthNet.cs[2] chargedPower 2472615.8361009
scalar OsgEarthNet.cs[2] chargedMobileNodes 518
scalar OsgEarthNet.cs[2] reservations 527
scalar OsgEarthNet.cs[3] usedPower 950557.23744556
scalar OsgEarthNet.cs[3] chargedPower 950557.23744556
scalar OsgEarthNet.cs[3] chargedMobileNodes 205
scalar OsgEarthNet.cs[3] reservations 207
scalar OsgEarthNet.cs[4] usedPower 733128.80388381
scalar OsgEarthNet.cs[4] chargedPower 733128.80388381
scalar OsgEarthNet.cs[4] chargedMobileNodes 158
scalar OsgEarthNet.cs[4] reservations 159
scalar OsgEarthNet.cs[5] usedPower 446870.5330477
scalar OsgEarthNet.cs[5] chargedPower 446870.5330477
scalar OsgEarthNet.cs[5] chargedMobileNodes 93
scalar OsgEarthNet.cs[5] reservations 94
scalar OsgEarthNet.cs[6] usedPower 2436003.2464138
scalar OsgEarthNet.cs[6] chargedPower 2436003.2464138
scalar OsgEarthNet.cs[6] chargedMobileNodes 517
scalar OsgEarthNet.cs[6] reservations 526

