version 2
run Szenario_Hotel_Gabelbach-6-20180709-18:13:02-38752
attr configname Szenario_Hotel_Gabelbach
attr datetime 20180709-18:13:02
attr experiment Szenario_Hotel_Gabelbach
attr inifile omnetpp.ini
attr iterationvars "$replM=2, $biWeight=0.1"
attr iterationvarsf replM=2,biWeight=0.1-
attr measurement "$replM=2, $biWeight=0.1"
attr network OsgEarthNet
attr processid 38752
attr repetition 6
attr replication #6
attr resultdir results
attr runnumber 6
attr seedset 6
itervar biWeight 0.1
itervar replM 2
param *.osgEarthScene.scene "\"Szenario_Hotel_Gabelbach.earth\""
param *.playgroundLatitude 50.6830269
param *.playgroundLongitude 10.8538055
param *.playgroundWidth 3500m
param *.playgroundHeight 3500m
param *.numUAVs 100
param *.cs[0].posX 3537m
param *.cs[0].posY 965m
param *.cs[0].posZ 538m
param *.cs[1].posX 312m
param *.cs[1].posY 1262m
param *.cs[1].posZ 539m
param *.cs[2].posX 2185m
param *.cs[2].posY 3026m
param *.cs[2].posZ 777m
param *.cs[3].posX 10m
param *.cs[3].posY 2200m
param *.cs[3].posZ 560m
param *.cs[4].posX 750m
param *.cs[4].posY 200m
param *.cs[4].posZ 540m
param *.cs[5].posX 2450m
param *.cs[5].posY 180m
param *.cs[5].posZ 524m
param *.cs[6].posX 3140m
param *.cs[6].posY 1790m
param *.cs[6].posZ 606m
param *.numCSs 7
param *.uav[*].replacementMethod 2
param *.uav[*].weightedSumWeight 0.1
param *.*.timeStep 10s
param *.uav[*].commandPreviewCommandCount 20
param *.missionControl.missionFiles "\"missions\\\\Szenario_WB_Hotel_Gabelbach_Mission_Hotel.waypoints,missions\\\\Szenario_WB_Hotel_Gabelbach_Mission_Kickelhahn.waypoints,missions\\\\Szenario_WB_Hotel_Gabelbach_Mission_Ilmenau_Sportplatz.waypoints,missions\\\\Szenario_WB_Hotel_Gabelbach_Mission_Manebach_Mitte.waypoints,missions\\\\Szenario_WB_Hotel_Gabelbach_Mission_Manebach_Sued.waypoints\""
param *.missionControl.missionFiles "\"missions\\\\Szenario_WB_Hotel_Gabelbach_Mission_Hotel.waypoints,missions\\\\Szenario_WB_Hotel_Gabelbach_Mission_Kickelhahn.waypoints,missions\\\\Szenario_WB_Hotel_Gabelbach_Mission_Ilmenau_Sportplatz.waypoints,missions\\\\Szenario_WB_Hotel_Gabelbach_Mission_Manebach_Mitte.waypoints,missions\\\\Szenario_WB_Hotel_Gabelbach_Mission_Manebach_Sued.waypoints,missions\\\\Szenario_WB_Hotel_Gabelbach_Hover_HoheSchlaufe.waypoints,missions\\\\Szenario_WB_Hotel_Gabelbach_Hover_Kickelhahn.waypoints,missions\\\\Szenario_WB_Hotel_Gabelbach_Hover_Gabelbachskopf.waypoints,missions\\\\Szenario_WB_Hotel_Gabelbach_Hover_Dachskopf.waypoints\""
param *.uav[0].startX 3537m
param *.uav[0].startY 965m
param *.uav[0].startZ 539m
param *.uav[1].startX 312m
param *.uav[1].startY 1262m
param *.uav[1].startZ 540m
param *.uav[2].startX 2185m
param *.uav[2].startY 3026m
param *.uav[2].startZ 778m
param *.uav[3].startX 3537m
param *.uav[3].startY 965m
param *.uav[3].startZ 539m
param *.uav[4].startX 312m
param *.uav[4].startY 1262m
param *.uav[4].startZ 540m
param *.uav[5].startX 2185m
param *.uav[5].startY 3026m
param *.uav[5].startZ 778m
param *.uav[6].startX 3537m
param *.uav[6].startY 965m
param *.uav[6].startZ 539m
param *.uav[7].startX 312m
param *.uav[7].startY 1262m
param *.uav[7].startZ 540m
param *.uav[8].startX 2185m
param *.uav[8].startY 3026m
param *.uav[8].startZ 778m
param *.uav[9].startX 3537m
param *.uav[9].startY 965m
param *.uav[9].startZ 539m
param *.uav[10].startX 3537m
param *.uav[10].startY 965m
param *.uav[10].startZ 539m
param *.uav[11].startX 312m
param *.uav[11].startY 1262m
param *.uav[11].startZ 540m
param *.uav[12].startX 2185m
param *.uav[12].startY 3026m
param *.uav[12].startZ 778m
param *.uav[13].startX 3537m
param *.uav[13].startY 965m
param *.uav[13].startZ 539m
param *.uav[14].startX 312m
param *.uav[14].startY 1262m
param *.uav[14].startZ 540m
param *.uav[15].startX 2185m
param *.uav[15].startY 3026m
param *.uav[15].startZ 778m
param *.uav[16].startX 3537m
param *.uav[16].startY 965m
param *.uav[16].startZ 539m
param *.uav[17].startX 312m
param *.uav[17].startY 1262m
param *.uav[17].startZ 540m
param *.uav[18].startX 2185m
param *.uav[18].startY 3026m
param *.uav[18].startZ 778m
param *.uav[19].startX 3537m
param *.uav[19].startY 965m
param *.uav[19].startZ 539m
param *.uav[20].startX 3537m
param *.uav[20].startY 965m
param *.uav[20].startZ 539m
param *.uav[21].startX 312m
param *.uav[21].startY 1262m
param *.uav[21].startZ 540m
param *.uav[22].startX 2185m
param *.uav[22].startY 3026m
param *.uav[22].startZ 778m
param *.uav[23].startX 3537m
param *.uav[23].startY 965m
param *.uav[23].startZ 539m
param *.uav[24].startX 312m
param *.uav[24].startY 1262m
param *.uav[24].startZ 540m
param *.uav[25].startX 2185m
param *.uav[25].startY 3026m
param *.uav[25].startZ 778m
param *.uav[26].startX 3537m
param *.uav[26].startY 965m
param *.uav[26].startZ 539m
param *.uav[27].startX 312m
param *.uav[27].startY 1262m
param *.uav[27].startZ 540m
param *.uav[28].startX 2185m
param *.uav[28].startY 3026m
param *.uav[28].startZ 778m
param *.uav[29].startX 3537m
param *.uav[29].startY 965m
param *.uav[29].startZ 539m
param *.uav[30].startX 3537m
param *.uav[30].startY 965m
param *.uav[30].startZ 539m
param *.uav[31].startX 312m
param *.uav[31].startY 1262m
param *.uav[31].startZ 540m
param *.uav[32].startX 2185m
param *.uav[32].startY 3026m
param *.uav[32].startZ 778m
param *.uav[33].startX 3537m
param *.uav[33].startY 965m
param *.uav[33].startZ 539m
param *.uav[34].startX 312m
param *.uav[34].startY 1262m
param *.uav[34].startZ 540m
param *.uav[35].startX 2185m
param *.uav[35].startY 3026m
param *.uav[35].startZ 778m
param *.uav[36].startX 3537m
param *.uav[36].startY 965m
param *.uav[36].startZ 539m
param *.uav[37].startX 312m
param *.uav[37].startY 1262m
param *.uav[37].startZ 540m
param *.uav[38].startX 2185m
param *.uav[38].startY 3026m
param *.uav[38].startZ 778m
param *.uav[39].startX 3537m
param *.uav[39].startY 965m
param *.uav[39].startZ 539m
param *.uav[40].startX 3537m
param *.uav[40].startY 965m
param *.uav[40].startZ 539m
param *.uav[41].startX 312m
param *.uav[41].startY 1262m
param *.uav[41].startZ 540m
param *.uav[42].startX 2185m
param *.uav[42].startY 3026m
param *.uav[42].startZ 778m
param *.uav[43].startX 3537m
param *.uav[43].startY 965m
param *.uav[43].startZ 539m
param *.uav[44].startX 312m
param *.uav[44].startY 1262m
param *.uav[44].startZ 540m
param *.uav[45].startX 2185m
param *.uav[45].startY 3026m
param *.uav[45].startZ 778m
param *.uav[46].startX 3537m
param *.uav[46].startY 965m
param *.uav[46].startZ 539m
param *.uav[47].startX 312m
param *.uav[47].startY 1262m
param *.uav[47].startZ 540m
param *.uav[48].startX 2185m
param *.uav[48].startY 3026m
param *.uav[48].startZ 778m
param *.uav[49].startX 3537m
param *.uav[49].startY 965m
param *.uav[49].startZ 539m
param *.uav[50].startX 3537m
param *.uav[50].startY 965m
param *.uav[50].startZ 539m
param *.uav[51].startX 312m
param *.uav[51].startY 1262m
param *.uav[51].startZ 540m
param *.uav[52].startX 2185m
param *.uav[52].startY 3026m
param *.uav[52].startZ 778m
param *.uav[53].startX 3537m
param *.uav[53].startY 965m
param *.uav[53].startZ 539m
param *.uav[54].startX 312m
param *.uav[54].startY 1262m
param *.uav[54].startZ 540m
param *.uav[55].startX 2185m
param *.uav[55].startY 3026m
param *.uav[55].startZ 778m
param *.uav[56].startX 3537m
param *.uav[56].startY 965m
param *.uav[56].startZ 539m
param *.uav[57].startX 312m
param *.uav[57].startY 1262m
param *.uav[57].startZ 540m
param *.uav[58].startX 2185m
param *.uav[58].startY 3026m
param *.uav[58].startZ 778m
param *.uav[59].startX 3537m
param *.uav[59].startY 965m
param *.uav[59].startZ 539m
param *.uav[60].startX 3537m
param *.uav[60].startY 965m
param *.uav[60].startZ 539m
param *.uav[61].startX 312m
param *.uav[61].startY 1262m
param *.uav[61].startZ 540m
param *.uav[62].startX 2185m
param *.uav[62].startY 3026m
param *.uav[62].startZ 778m
param *.uav[63].startX 3537m
param *.uav[63].startY 965m
param *.uav[63].startZ 539m
param *.uav[64].startX 312m
param *.uav[64].startY 1262m
param *.uav[64].startZ 540m
param *.uav[65].startX 2185m
param *.uav[65].startY 3026m
param *.uav[65].startZ 778m
param *.uav[66].startX 3537m
param *.uav[66].startY 965m
param *.uav[66].startZ 539m
param *.uav[67].startX 312m
param *.uav[67].startY 1262m
param *.uav[67].startZ 540m
param *.uav[68].startX 2185m
param *.uav[68].startY 3026m
param *.uav[68].startZ 778m
param *.uav[69].startX 3537m
param *.uav[69].startY 965m
param *.uav[69].startZ 539m
param *.uav[70].startX 3537m
param *.uav[70].startY 965m
param *.uav[70].startZ 539m
param *.uav[71].startX 312m
param *.uav[71].startY 1262m
param *.uav[71].startZ 540m
param *.uav[72].startX 2185m
param *.uav[72].startY 3026m
param *.uav[72].startZ 778m
param *.uav[73].startX 3537m
param *.uav[73].startY 965m
param *.uav[73].startZ 539m
param *.uav[74].startX 312m
param *.uav[74].startY 1262m
param *.uav[74].startZ 540m
param *.uav[75].startX 2185m
param *.uav[75].startY 3026m
param *.uav[75].startZ 778m
param *.uav[76].startX 3537m
param *.uav[76].startY 965m
param *.uav[76].startZ 539m
param *.uav[77].startX 312m
param *.uav[77].startY 1262m
param *.uav[77].startZ 540m
param *.uav[78].startX 2185m
param *.uav[78].startY 3026m
param *.uav[78].startZ 778m
param *.uav[79].startX 3537m
param *.uav[79].startY 965m
param *.uav[79].startZ 539m
param *.uav[80].startX 3537m
param *.uav[80].startY 965m
param *.uav[80].startZ 539m
param *.uav[81].startX 312m
param *.uav[81].startY 1262m
param *.uav[81].startZ 540m
param *.uav[82].startX 2185m
param *.uav[82].startY 3026m
param *.uav[82].startZ 778m
param *.uav[83].startX 3537m
param *.uav[83].startY 965m
param *.uav[83].startZ 539m
param *.uav[84].startX 312m
param *.uav[84].startY 1262m
param *.uav[84].startZ 540m
param *.uav[85].startX 2185m
param *.uav[85].startY 3026m
param *.uav[85].startZ 778m
param *.uav[86].startX 3537m
param *.uav[86].startY 965m
param *.uav[86].startZ 539m
param *.uav[87].startX 312m
param *.uav[87].startY 1262m
param *.uav[87].startZ 540m
param *.uav[88].startX 2185m
param *.uav[88].startY 3026m
param *.uav[88].startZ 778m
param *.uav[89].startX 3537m
param *.uav[89].startY 965m
param *.uav[89].startZ 539m
param *.uav[90].startX 3537m
param *.uav[90].startY 965m
param *.uav[90].startZ 539m
param *.uav[91].startX 312m
param *.uav[91].startY 1262m
param *.uav[91].startZ 540m
param *.uav[92].startX 2185m
param *.uav[92].startY 3026m
param *.uav[92].startZ 778m
param *.uav[93].startX 3537m
param *.uav[93].startY 965m
param *.uav[93].startZ 539m
param *.uav[94].startX 312m
param *.uav[94].startY 1262m
param *.uav[94].startZ 540m
param *.uav[95].startX 2185m
param *.uav[95].startY 3026m
param *.uav[95].startZ 778m
param *.uav[96].startX 3537m
param *.uav[96].startY 965m
param *.uav[96].startZ 539m
param *.uav[97].startX 312m
param *.uav[97].startY 1262m
param *.uav[97].startZ 540m
param *.uav[98].startX 2185m
param *.uav[98].startY 3026m
param *.uav[98].startZ 778m
param *.uav[99].startX 3537m
param *.uav[99].startY 965m
param *.uav[99].startZ 539m
param *.osgEarthScene.scene "\"boston.earth\""
param *.playgroundLatitude 42.3558
param *.playgroundLongitude -71.0677
param *.playgroundWidth 400m
param *.playgroundHeight 200m
param *.channelController.connectionColor "\"#0000FF40\""
param *.channelController.showConnections false
param *.uav[*].modelURL "\"quadrocopter.small.obj.15.scale.0,0,90.rot\""
param *.uav[*].labelColor "\"#FF7C00CC\""
param *.uav[*].label2Color "\"#FF7C00EE\""
param *.uav[*].batteryCapacity 5200mAh
param *.uav[*].batteryRemaining uav[index].batteryCapacity
param *.uav[*].predictionQuantile 0.95
param *.uav[*].replacementMethod 2
param *.uav[*].weightedSumWeight 0.5
param *.cs[*].modelURL "\"chargingstation_v1.osgt.2.scale.0,0,0.rot.0,0,-15e-1.trans\""
param *.cs[*].spotsWaiting 999
param *.cs[*].spotsCharging 999
param *.cs[*].chargeEffectivenessPercentage 100
param *.cs[*].nonLinearPhaseStartPercentage 85
param *.cs[*].chargeCurrent 6.0A
param *.cs[*].prioritizeFastCharge true
param *.missionControl.replacementSearchMethod 0
param *.*.timeStep 9s

scalar OsgEarthNet.uav[0] utilizationSecMission 9191.3764350191
scalar OsgEarthNet.uav[0] utilizationSecMaintenance 2870.3888774181
scalar OsgEarthNet.uav[0] utilizationSecCharge 44242.305054882
scalar OsgEarthNet.uav[0] utilizationSecIdle 202895.92863268
scalar OsgEarthNet.uav[0] utilizationEnergyMission 41886.87966156
scalar OsgEarthNet.uav[0] utilizationEnergyMaintenance 13373.661434174
scalar OsgEarthNet.uav[0] utilizationEnergyCharge 54618.945068359
scalar OsgEarthNet.uav[0] utilizationEnergyOverdrawMission 0
scalar OsgEarthNet.uav[0] utilizationEnergyOverdrawMaintenance 0
scalar OsgEarthNet.uav[0] utilizationCountMissions 13
scalar OsgEarthNet.uav[0] utilizationCountManeuversMission 145
scalar OsgEarthNet.uav[0] utilizationCountManeuversMaintenance 26
scalar OsgEarthNet.uav[0] utilizationCountChargeState 13
scalar OsgEarthNet.uav[0] utilizationCountOverdrawnAfterMission 0
scalar OsgEarthNet.uav[0] utilizationCountIdleState 13
scalar OsgEarthNet.uav[0] utilizationFail 0
scalar OsgEarthNet.uav[0] simulationTime 259200
scalar OsgEarthNet.uav[1] utilizationSecMission 22708.200231251
scalar OsgEarthNet.uav[1] utilizationSecMaintenance 11132.129297065
scalar OsgEarthNet.uav[1] utilizationSecCharge 129398.62124985
scalar OsgEarthNet.uav[1] utilizationSecIdle 95961.048221833
scalar OsgEarthNet.uav[1] utilizationEnergyMission 105633.48619843
scalar OsgEarthNet.uav[1] utilizationEnergyMaintenance 53159.035572052
scalar OsgEarthNet.uav[1] utilizationEnergyCharge 155908.95996094
scalar OsgEarthNet.uav[1] utilizationEnergyOverdrawMission 0
scalar OsgEarthNet.uav[1] utilizationEnergyOverdrawMaintenance 0
scalar OsgEarthNet.uav[1] utilizationCountMissions 40
scalar OsgEarthNet.uav[1] utilizationCountManeuversMission 379
scalar OsgEarthNet.uav[1] utilizationCountManeuversMaintenance 80
scalar OsgEarthNet.uav[1] utilizationCountChargeState 40
scalar OsgEarthNet.uav[1] utilizationCountOverdrawnAfterMission 0
scalar OsgEarthNet.uav[1] utilizationCountIdleState 40
scalar OsgEarthNet.uav[1] utilizationFail 0
scalar OsgEarthNet.uav[1] simulationTime 259200
scalar OsgEarthNet.uav[2] utilizationSecMission 21457.077470725
scalar OsgEarthNet.uav[2] utilizationSecMaintenance 8096.1964873379
scalar OsgEarthNet.uav[2] utilizationSecCharge 113560
scalar OsgEarthNet.uav[2] utilizationSecIdle 116086.72504194
scalar OsgEarthNet.uav[2] utilizationEnergyMission 98660.93976593
scalar OsgEarthNet.uav[2] utilizationEnergyMaintenance 38143.634559631
scalar OsgEarthNet.uav[2] utilizationEnergyCharge 137175.63085938
scalar OsgEarthNet.uav[2] utilizationEnergyOverdrawMission 0
scalar OsgEarthNet.uav[2] utilizationEnergyOverdrawMaintenance 0
scalar OsgEarthNet.uav[2] utilizationCountMissions 34
scalar OsgEarthNet.uav[2] utilizationCountManeuversMission 347
scalar OsgEarthNet.uav[2] utilizationCountManeuversMaintenance 68
scalar OsgEarthNet.uav[2] utilizationCountChargeState 34
scalar OsgEarthNet.uav[2] utilizationCountOverdrawnAfterMission 0
scalar OsgEarthNet.uav[2] utilizationCountIdleState 35
scalar OsgEarthNet.uav[2] utilizationFail 0
scalar OsgEarthNet.uav[2] simulationTime 259200
scalar OsgEarthNet.uav[3] utilizationSecMission 24506.198195333
scalar OsgEarthNet.uav[3] utilizationSecMaintenance 11635.749265769
scalar OsgEarthNet.uav[3] utilizationSecCharge 134820
scalar OsgEarthNet.uav[3] utilizationSecIdle 88238.051538898
scalar OsgEarthNet.uav[3] utilizationEnergyMission 113500.64393443
scalar OsgEarthNet.uav[3] utilizationEnergyMaintenance 54021.968921661
scalar OsgEarthNet.uav[3] utilizationEnergyCharge 165387.41308594
scalar OsgEarthNet.uav[3] utilizationEnergyOverdrawMission 0
scalar OsgEarthNet.uav[3] utilizationEnergyOverdrawMaintenance 0
scalar OsgEarthNet.uav[3] utilizationCountMissions 39
scalar OsgEarthNet.uav[3] utilizationCountManeuversMission 399
scalar OsgEarthNet.uav[3] utilizationCountManeuversMaintenance 79
scalar OsgEarthNet.uav[3] utilizationCountChargeState 39
scalar OsgEarthNet.uav[3] utilizationCountOverdrawnAfterMission 0
scalar OsgEarthNet.uav[3] utilizationCountIdleState 40
scalar OsgEarthNet.uav[3] utilizationFail 0
scalar OsgEarthNet.uav[3] simulationTime 259200
scalar OsgEarthNet.uav[4] utilizationSecMission 24728.830169559
scalar OsgEarthNet.uav[4] utilizationSecMaintenance 11551.563013749
scalar OsgEarthNet.uav[4] utilizationSecCharge 137752.56029657
scalar OsgEarthNet.uav[4] utilizationSecIdle 85167.045520123
scalar OsgEarthNet.uav[4] utilizationEnergyMission 113961.28553009
scalar OsgEarthNet.uav[4] utilizationEnergyMaintenance 54190.794456482
scalar OsgEarthNet.uav[4] utilizationEnergyCharge 168228.20996094
scalar OsgEarthNet.uav[4] utilizationEnergyOverdrawMission 0
scalar OsgEarthNet.uav[4] utilizationEnergyOverdrawMaintenance 0
scalar OsgEarthNet.uav[4] utilizationCountMissions 41
scalar OsgEarthNet.uav[4] utilizationCountManeuversMission 409
scalar OsgEarthNet.uav[4] utilizationCountManeuversMaintenance 82
scalar OsgEarthNet.uav[4] utilizationCountChargeState 41
scalar OsgEarthNet.uav[4] utilizationCountOverdrawnAfterMission 0
scalar OsgEarthNet.uav[4] utilizationCountIdleState 41
scalar OsgEarthNet.uav[4] utilizationFail 0
scalar OsgEarthNet.uav[4] simulationTime 259200
scalar OsgEarthNet.uav[5] utilizationSecMission 14659.844354527
scalar OsgEarthNet.uav[5] utilizationSecMaintenance 4714.7328209775
scalar OsgEarthNet.uav[5] utilizationSecCharge 72444.517355643
scalar OsgEarthNet.uav[5] utilizationSecIdle 167380.90446885
scalar OsgEarthNet.uav[5] utilizationEnergyMission 66907.21529007
scalar OsgEarthNet.uav[5] utilizationEnergyMaintenance 22198.392818451
scalar OsgEarthNet.uav[5] utilizationEnergyCharge 88742.716796875
scalar OsgEarthNet.uav[5] utilizationEnergyOverdrawMission 0
scalar OsgEarthNet.uav[5] utilizationEnergyOverdrawMaintenance 0
scalar OsgEarthNet.uav[5] utilizationCountMissions 21
scalar OsgEarthNet.uav[5] utilizationCountManeuversMission 226
scalar OsgEarthNet.uav[5] utilizationCountManeuversMaintenance 42
scalar OsgEarthNet.uav[5] utilizationCountChargeState 21
scalar OsgEarthNet.uav[5] utilizationCountOverdrawnAfterMission 0
scalar OsgEarthNet.uav[5] utilizationCountIdleState 21
scalar OsgEarthNet.uav[5] utilizationFail 0
scalar OsgEarthNet.uav[5] simulationTime 259200
scalar OsgEarthNet.uav[6] utilizationSecMission 750.20472747826
scalar OsgEarthNet.uav[6] utilizationSecMaintenance 261.68051383311
scalar OsgEarthNet.uav[6] utilizationSecCharge 3580
scalar OsgEarthNet.uav[6] utilizationSecIdle 254608.11375869
scalar OsgEarthNet.uav[6] utilizationEnergyMission 3253.9585266113
scalar OsgEarthNet.uav[6] utilizationEnergyMaintenance 1150.2519645691
scalar OsgEarthNet.uav[6] utilizationEnergyCharge 4404.20703125
scalar OsgEarthNet.uav[6] utilizationEnergyOverdrawMission 0
scalar OsgEarthNet.uav[6] utilizationEnergyOverdrawMaintenance 0
scalar OsgEarthNet.uav[6] utilizationCountMissions 1
scalar OsgEarthNet.uav[6] utilizationCountManeuversMission 11
scalar OsgEarthNet.uav[6] utilizationCountManeuversMaintenance 2
scalar OsgEarthNet.uav[6] utilizationCountChargeState 1
scalar OsgEarthNet.uav[6] utilizationCountOverdrawnAfterMission 0
scalar OsgEarthNet.uav[6] utilizationCountIdleState 2
scalar OsgEarthNet.uav[6] utilizationFail 0
scalar OsgEarthNet.uav[6] simulationTime 259200
scalar OsgEarthNet.uav[7] utilizationSecMission 9377.807746624
scalar OsgEarthNet.uav[7] utilizationSecMaintenance 4346.7422955357
scalar OsgEarthNet.uav[7] utilizationSecCharge 52460
scalar OsgEarthNet.uav[7] utilizationSecIdle 193015.44895784
scalar OsgEarthNet.uav[7] utilizationEnergyMission 42614.832832336
scalar OsgEarthNet.uav[7] utilizationEnergyMaintenance 20268.621173859
scalar OsgEarthNet.uav[7] utilizationEnergyCharge 62874.979980469
scalar OsgEarthNet.uav[7] utilizationEnergyOverdrawMission 0
scalar OsgEarthNet.uav[7] utilizationEnergyOverdrawMaintenance 0
scalar OsgEarthNet.uav[7] utilizationCountMissions 16
scalar OsgEarthNet.uav[7] utilizationCountManeuversMission 151
scalar OsgEarthNet.uav[7] utilizationCountManeuversMaintenance 32
scalar OsgEarthNet.uav[7] utilizationCountChargeState 16
scalar OsgEarthNet.uav[7] utilizationCountOverdrawnAfterMission 0
scalar OsgEarthNet.uav[7] utilizationCountIdleState 17
scalar OsgEarthNet.uav[7] utilizationFail 0
scalar OsgEarthNet.uav[7] simulationTime 259200
scalar OsgEarthNet.uav[8] utilizationSecMission 28282.205580059
scalar OsgEarthNet.uav[8] utilizationSecMaintenance 12261.046378802
scalar OsgEarthNet.uav[8] utilizationSecCharge 155790
scalar OsgEarthNet.uav[8] utilizationSecIdle 62866.747041139
scalar OsgEarthNet.uav[8] utilizationEnergyMission 130081.49186707
scalar OsgEarthNet.uav[8] utilizationEnergyMaintenance 58971.250461578
scalar OsgEarthNet.uav[8] utilizationEnergyCharge 189345.73828125
scalar OsgEarthNet.uav[8] utilizationEnergyOverdrawMission 0
scalar OsgEarthNet.uav[8] utilizationEnergyOverdrawMaintenance 0
scalar OsgEarthNet.uav[8] utilizationCountMissions 46
scalar OsgEarthNet.uav[8] utilizationCountManeuversMission 461
scalar OsgEarthNet.uav[8] utilizationCountManeuversMaintenance 92
scalar OsgEarthNet.uav[8] utilizationCountChargeState 46
scalar OsgEarthNet.uav[8] utilizationCountOverdrawnAfterMission 0
scalar OsgEarthNet.uav[8] utilizationCountIdleState 47
scalar OsgEarthNet.uav[8] utilizationFail 0
scalar OsgEarthNet.uav[8] simulationTime 259200
scalar OsgEarthNet.uav[9] utilizationSecMission 760.62515258028
scalar OsgEarthNet.uav[9] utilizationSecMaintenance 245.74410321072
scalar OsgEarthNet.uav[9] utilizationSecCharge 3700
scalar OsgEarthNet.uav[9] utilizationSecIdle 254493.62974421
scalar OsgEarthNet.uav[9] utilizationEnergyMission 3542.3487091064
scalar OsgEarthNet.uav[9] utilizationEnergyMaintenance 1105.7952384949
scalar OsgEarthNet.uav[9] utilizationEnergyCharge 4648.14453125
scalar OsgEarthNet.uav[9] utilizationEnergyOverdrawMission 0
scalar OsgEarthNet.uav[9] utilizationEnergyOverdrawMaintenance 0
scalar OsgEarthNet.uav[9] utilizationCountMissions 1
scalar OsgEarthNet.uav[9] utilizationCountManeuversMission 12
scalar OsgEarthNet.uav[9] utilizationCountManeuversMaintenance 2
scalar OsgEarthNet.uav[9] utilizationCountChargeState 1
scalar OsgEarthNet.uav[9] utilizationCountOverdrawnAfterMission 0
scalar OsgEarthNet.uav[9] utilizationCountIdleState 2
scalar OsgEarthNet.uav[9] utilizationFail 0
scalar OsgEarthNet.uav[9] simulationTime 259200
scalar OsgEarthNet.uav[10] utilizationSecMission 26946.365965365
scalar OsgEarthNet.uav[10] utilizationSecMaintenance 14006.110353125
scalar OsgEarthNet.uav[10] utilizationSecCharge 159220
scalar OsgEarthNet.uav[10] utilizationSecIdle 59027.52268151
scalar OsgEarthNet.uav[10] utilizationEnergyMission 124313.33238983
scalar OsgEarthNet.uav[10] utilizationEnergyMaintenance 65519.125495911
scalar OsgEarthNet.uav[10] utilizationEnergyCharge 190080.67797852
scalar OsgEarthNet.uav[10] utilizationEnergyOverdrawMission 0
scalar OsgEarthNet.uav[10] utilizationEnergyOverdrawMaintenance 0
scalar OsgEarthNet.uav[10] utilizationCountMissions 49
scalar OsgEarthNet.uav[10] utilizationCountManeuversMission 454
scalar OsgEarthNet.uav[10] utilizationCountManeuversMaintenance 98
scalar OsgEarthNet.uav[10] utilizationCountChargeState 49
scalar OsgEarthNet.uav[10] utilizationCountOverdrawnAfterMission 0
scalar OsgEarthNet.uav[10] utilizationCountIdleState 50
scalar OsgEarthNet.uav[10] utilizationFail 0
scalar OsgEarthNet.uav[10] simulationTime 259200
scalar OsgEarthNet.uav[11] utilizationSecMission 30369.196548564
scalar OsgEarthNet.uav[11] utilizationSecMaintenance 13013.18837613
scalar OsgEarthNet.uav[11] utilizationSecCharge 166345.61407531
scalar OsgEarthNet.uav[11] utilizationSecIdle 49472
scalar OsgEarthNet.uav[11] utilizationEnergyMission 141488.10135269
scalar OsgEarthNet.uav[11] utilizationEnergyMaintenance 62571.226360321
scalar OsgEarthNet.uav[11] utilizationEnergyCharge 200539.84661865
scalar OsgEarthNet.uav[11] utilizationEnergyOverdrawMission 0
scalar OsgEarthNet.uav[11] utilizationEnergyOverdrawMaintenance 0
scalar OsgEarthNet.uav[11] utilizationCountMissions 51
scalar OsgEarthNet.uav[11] utilizationCountManeuversMission 518
scalar OsgEarthNet.uav[11] utilizationCountManeuversMaintenance 101
scalar OsgEarthNet.uav[11] utilizationCountChargeState 51
scalar OsgEarthNet.uav[11] utilizationCountOverdrawnAfterMission 0
scalar OsgEarthNet.uav[11] utilizationCountIdleState 51
scalar OsgEarthNet.uav[11] utilizationFail 0
scalar OsgEarthNet.uav[11] simulationTime 259200
scalar OsgEarthNet.uav[12] utilizationSecMission 29095.676422103
scalar OsgEarthNet.uav[12] utilizationSecMaintenance 12697.470887458
scalar OsgEarthNet.uav[12] utilizationSecCharge 160172.75702666
scalar OsgEarthNet.uav[12] utilizationSecIdle 57234.094663781
scalar OsgEarthNet.uav[12] utilizationEnergyMission 133711.71250153
scalar OsgEarthNet.uav[12] utilizationEnergyMaintenance 60184.370788574
scalar OsgEarthNet.uav[12] utilizationEnergyCharge 191797.0098877
scalar OsgEarthNet.uav[12] utilizationEnergyOverdrawMission 0
scalar OsgEarthNet.uav[12] utilizationEnergyOverdrawMaintenance 0
scalar OsgEarthNet.uav[12] utilizationCountMissions 50
scalar OsgEarthNet.uav[12] utilizationCountManeuversMission 465
scalar OsgEarthNet.uav[12] utilizationCountManeuversMaintenance 100
scalar OsgEarthNet.uav[12] utilizationCountChargeState 50
scalar OsgEarthNet.uav[12] utilizationCountOverdrawnAfterMission 0
scalar OsgEarthNet.uav[12] utilizationCountIdleState 50
scalar OsgEarthNet.uav[12] utilizationFail 0
scalar OsgEarthNet.uav[12] simulationTime 259200
scalar OsgEarthNet.uav[13] utilizationSecMission 760.62515258028
scalar OsgEarthNet.uav[13] utilizationSecMaintenance 223.6438949726
scalar OsgEarthNet.uav[13] utilizationSecCharge 3890
scalar OsgEarthNet.uav[13] utilizationSecIdle 254325.72995245
scalar OsgEarthNet.uav[13] utilizationEnergyMission 3828.5608978272
scalar OsgEarthNet.uav[13] utilizationEnergyMaintenance 1095.4316825867
scalar OsgEarthNet.uav[13] utilizationEnergyCharge 4923.9951171875
scalar OsgEarthNet.uav[13] utilizationEnergyOverdrawMission 0
scalar OsgEarthNet.uav[13] utilizationEnergyOverdrawMaintenance 0
scalar OsgEarthNet.uav[13] utilizationCountMissions 1
scalar OsgEarthNet.uav[13] utilizationCountManeuversMission 12
scalar OsgEarthNet.uav[13] utilizationCountManeuversMaintenance 2
scalar OsgEarthNet.uav[13] utilizationCountChargeState 1
scalar OsgEarthNet.uav[13] utilizationCountOverdrawnAfterMission 0
scalar OsgEarthNet.uav[13] utilizationCountIdleState 2
scalar OsgEarthNet.uav[13] utilizationFail 0
scalar OsgEarthNet.uav[13] simulationTime 259200
scalar OsgEarthNet.uav[14] utilizationSecMission 20834.536928754
scalar OsgEarthNet.uav[14] utilizationSecMaintenance 11937.807452263
scalar OsgEarthNet.uav[14] utilizationSecCharge 127140
scalar OsgEarthNet.uav[14] utilizationSecIdle 99287.654618983
scalar OsgEarthNet.uav[14] utilizationEnergyMission 95848.856315613
scalar OsgEarthNet.uav[14] utilizationEnergyMaintenance 55668.591217041
scalar OsgEarthNet.uav[14] utilizationEnergyCharge 151589.27514648
scalar OsgEarthNet.uav[14] utilizationEnergyOverdrawMission 0
scalar OsgEarthNet.uav[14] utilizationEnergyOverdrawMaintenance 0
scalar OsgEarthNet.uav[14] utilizationCountMissions 39
scalar OsgEarthNet.uav[14] utilizationCountManeuversMission 344
scalar OsgEarthNet.uav[14] utilizationCountManeuversMaintenance 78
scalar OsgEarthNet.uav[14] utilizationCountChargeState 39
scalar OsgEarthNet.uav[14] utilizationCountOverdrawnAfterMission 0
scalar OsgEarthNet.uav[14] utilizationCountIdleState 40
scalar OsgEarthNet.uav[14] utilizationFail 0
scalar OsgEarthNet.uav[14] simulationTime 259200
scalar OsgEarthNet.uav[15] utilizationSecMission 27083.555337917
scalar OsgEarthNet.uav[15] utilizationSecMaintenance 10904.347679234
scalar OsgEarthNet.uav[15] utilizationSecCharge 147080
scalar OsgEarthNet.uav[15] utilizationSecIdle 74132.095982849
scalar OsgEarthNet.uav[15] utilizationEnergyMission 124620.23222351
scalar OsgEarthNet.uav[15] utilizationEnergyMaintenance 51465.325828552
scalar OsgEarthNet.uav[15] utilizationEnergyCharge 175774.68896484
scalar OsgEarthNet.uav[15] utilizationEnergyOverdrawMission 0
scalar OsgEarthNet.uav[15] utilizationEnergyOverdrawMaintenance 0
scalar OsgEarthNet.uav[15] utilizationCountMissions 45
scalar OsgEarthNet.uav[15] utilizationCountManeuversMission 423
scalar OsgEarthNet.uav[15] utilizationCountManeuversMaintenance 90
scalar OsgEarthNet.uav[15] utilizationCountChargeState 45
scalar OsgEarthNet.uav[15] utilizationCountOverdrawnAfterMission 0
scalar OsgEarthNet.uav[15] utilizationCountIdleState 46
scalar OsgEarthNet.uav[15] utilizationFail 0
scalar OsgEarthNet.uav[15] simulationTime 259200
scalar OsgEarthNet.uav[16] utilizationSecMission 750.20472747826
scalar OsgEarthNet.uav[16] utilizationSecMaintenance 261.68051383311
scalar OsgEarthNet.uav[16] utilizationSecCharge 3630
scalar OsgEarthNet.uav[16] utilizationSecIdle 254558.11375869
scalar OsgEarthNet.uav[16] utilizationEnergyMission 3545.221786499
scalar OsgEarthNet.uav[16] utilizationEnergyMaintenance 1002.3972892761
scalar OsgEarthNet.uav[16] utilizationEnergyCharge 4547.6259765625
scalar OsgEarthNet.uav[16] utilizationEnergyOverdrawMission 0
scalar OsgEarthNet.uav[16] utilizationEnergyOverdrawMaintenance 0
scalar OsgEarthNet.uav[16] utilizationCountMissions 1
scalar OsgEarthNet.uav[16] utilizationCountManeuversMission 11
scalar OsgEarthNet.uav[16] utilizationCountManeuversMaintenance 2
scalar OsgEarthNet.uav[16] utilizationCountChargeState 1
scalar OsgEarthNet.uav[16] utilizationCountOverdrawnAfterMission 0
scalar OsgEarthNet.uav[16] utilizationCountIdleState 2
scalar OsgEarthNet.uav[16] utilizationFail 0
scalar OsgEarthNet.uav[16] simulationTime 259200
scalar OsgEarthNet.uav[17] utilizationSecMission 21195.150924643
scalar OsgEarthNet.uav[17] utilizationSecMaintenance 7013.6423038788
scalar OsgEarthNet.uav[17] utilizationSecCharge 106480
scalar OsgEarthNet.uav[17] utilizationSecIdle 124511.20577148
scalar OsgEarthNet.uav[17] utilizationEnergyMission 96587.702186584
scalar OsgEarthNet.uav[17] utilizationEnergyMaintenance 33279.477733612
scalar OsgEarthNet.uav[17] utilizationEnergyCharge 130211.61010742
scalar OsgEarthNet.uav[17] utilizationEnergyOverdrawMission 0
scalar OsgEarthNet.uav[17] utilizationEnergyOverdrawMaintenance 0
scalar OsgEarthNet.uav[17] utilizationCountMissions 31
scalar OsgEarthNet.uav[17] utilizationCountManeuversMission 339
scalar OsgEarthNet.uav[17] utilizationCountManeuversMaintenance 62
scalar OsgEarthNet.uav[17] utilizationCountChargeState 31
scalar OsgEarthNet.uav[17] utilizationCountOverdrawnAfterMission 0
scalar OsgEarthNet.uav[17] utilizationCountIdleState 32
scalar OsgEarthNet.uav[17] utilizationFail 0
scalar OsgEarthNet.uav[17] simulationTime 259200
scalar OsgEarthNet.uav[18] utilizationSecMission 887.1741082606
scalar OsgEarthNet.uav[18] utilizationSecMaintenance 125.81102573108
scalar OsgEarthNet.uav[18] utilizationSecCharge 3740
scalar OsgEarthNet.uav[18] utilizationSecIdle 254447.01386601
scalar OsgEarthNet.uav[18] utilizationEnergyMission 3845.6504669189
scalar OsgEarthNet.uav[18] utilizationEnergyMaintenance 626.88341522217
scalar OsgEarthNet.uav[18] utilizationEnergyCharge 4688.90234375
scalar OsgEarthNet.uav[18] utilizationEnergyOverdrawMission 0
scalar OsgEarthNet.uav[18] utilizationEnergyOverdrawMaintenance 0
scalar OsgEarthNet.uav[18] utilizationCountMissions 1
scalar OsgEarthNet.uav[18] utilizationCountManeuversMission 14
scalar OsgEarthNet.uav[18] utilizationCountManeuversMaintenance 2
scalar OsgEarthNet.uav[18] utilizationCountChargeState 1
scalar OsgEarthNet.uav[18] utilizationCountOverdrawnAfterMission 0
scalar OsgEarthNet.uav[18] utilizationCountIdleState 2
scalar OsgEarthNet.uav[18] utilizationFail 0
scalar OsgEarthNet.uav[18] simulationTime 259200
scalar OsgEarthNet.uav[19] utilizationSecMission 16487.708938182
scalar OsgEarthNet.uav[19] utilizationSecMaintenance 8103.0873158366
scalar OsgEarthNet.uav[19] utilizationSecCharge 96070
scalar OsgEarthNet.uav[19] utilizationSecIdle 138539.20274598
scalar OsgEarthNet.uav[19] utilizationEnergyMission 76063.350811005
scalar OsgEarthNet.uav[19] utilizationEnergyMaintenance 38991.939884186
scalar OsgEarthNet.uav[19] utilizationEnergyCharge 115496.34912109
scalar OsgEarthNet.uav[19] utilizationEnergyOverdrawMission 0
scalar OsgEarthNet.uav[19] utilizationEnergyOverdrawMaintenance 0
scalar OsgEarthNet.uav[19] utilizationCountMissions 29
scalar OsgEarthNet.uav[19] utilizationCountManeuversMission 276
scalar OsgEarthNet.uav[19] utilizationCountManeuversMaintenance 58
scalar OsgEarthNet.uav[19] utilizationCountChargeState 29
scalar OsgEarthNet.uav[19] utilizationCountOverdrawnAfterMission 0
scalar OsgEarthNet.uav[19] utilizationCountIdleState 30
scalar OsgEarthNet.uav[19] utilizationFail 0
scalar OsgEarthNet.uav[19] simulationTime 259200
scalar OsgEarthNet.uav[20] utilizationSecMission 213.40226662092
scalar OsgEarthNet.uav[20] utilizationSecMaintenance 474.30151219871
scalar OsgEarthNet.uav[20] utilizationSecCharge 2890
scalar OsgEarthNet.uav[20] utilizationSecIdle 255622.29522118
scalar OsgEarthNet.uav[20] utilizationEnergyMission 1089.6800231934
scalar OsgEarthNet.uav[20] utilizationEnergyMaintenance 2167.4939804077
scalar OsgEarthNet.uav[20] utilizationEnergyCharge 3257.1733398438
scalar OsgEarthNet.uav[20] utilizationEnergyOverdrawMission 0
scalar OsgEarthNet.uav[20] utilizationEnergyOverdrawMaintenance 0
scalar OsgEarthNet.uav[20] utilizationCountMissions 1
scalar OsgEarthNet.uav[20] utilizationCountManeuversMission 3
scalar OsgEarthNet.uav[20] utilizationCountManeuversMaintenance 2
scalar OsgEarthNet.uav[20] utilizationCountChargeState 1
scalar OsgEarthNet.uav[20] utilizationCountOverdrawnAfterMission 0
scalar OsgEarthNet.uav[20] utilizationCountIdleState 2
scalar OsgEarthNet.uav[20] utilizationFail 0
scalar OsgEarthNet.uav[20] simulationTime 259200
scalar OsgEarthNet.uav[21] utilizationSecMission 682.94783150361
scalar OsgEarthNet.uav[21] utilizationSecMaintenance 228.1606024445
scalar OsgEarthNet.uav[21] utilizationSecCharge 3620
scalar OsgEarthNet.uav[21] utilizationSecIdle 254668.89056605
scalar OsgEarthNet.uav[21] utilizationEnergyMission 3343.931060791
scalar OsgEarthNet.uav[21] utilizationEnergyMaintenance 1172.4649276733
scalar OsgEarthNet.uav[21] utilizationEnergyCharge 4516.3916015625
scalar OsgEarthNet.uav[21] utilizationEnergyOverdrawMission 0
scalar OsgEarthNet.uav[21] utilizationEnergyOverdrawMaintenance 0
scalar OsgEarthNet.uav[21] utilizationCountMissions 1
scalar OsgEarthNet.uav[21] utilizationCountManeuversMission 12
scalar OsgEarthNet.uav[21] utilizationCountManeuversMaintenance 2
scalar OsgEarthNet.uav[21] utilizationCountChargeState 1
scalar OsgEarthNet.uav[21] utilizationCountOverdrawnAfterMission 0
scalar OsgEarthNet.uav[21] utilizationCountIdleState 2
scalar OsgEarthNet.uav[21] utilizationFail 0
scalar OsgEarthNet.uav[21] simulationTime 259200
scalar OsgEarthNet.uav[22] utilizationSecMission 887.1741082606
scalar OsgEarthNet.uav[22] utilizationSecMaintenance 125.81102573108
scalar OsgEarthNet.uav[22] utilizationSecCharge 3640
scalar OsgEarthNet.uav[22] utilizationSecIdle 254547.01386601
scalar OsgEarthNet.uav[22] utilizationEnergyMission 4186.1996459961
scalar OsgEarthNet.uav[22] utilizationEnergyMaintenance 523.78325653076
scalar OsgEarthNet.uav[22] utilizationEnergyCharge 4511.404296875
scalar OsgEarthNet.uav[22] utilizationEnergyOverdrawMission 0
scalar OsgEarthNet.uav[22] utilizationEnergyOverdrawMaintenance 0
scalar OsgEarthNet.uav[22] utilizationCountMissions 1
scalar OsgEarthNet.uav[22] utilizationCountManeuversMission 14
scalar OsgEarthNet.uav[22] utilizationCountManeuversMaintenance 2
scalar OsgEarthNet.uav[22] utilizationCountChargeState 1
scalar OsgEarthNet.uav[22] utilizationCountOverdrawnAfterMission 0
scalar OsgEarthNet.uav[22] utilizationCountIdleState 2
scalar OsgEarthNet.uav[22] utilizationFail 0
scalar OsgEarthNet.uav[22] simulationTime 259200
scalar OsgEarthNet.uav[23] utilizationSecMission 29685.32393546
scalar OsgEarthNet.uav[23] utilizationSecMaintenance 14751.047418517
scalar OsgEarthNet.uav[23] utilizationSecCharge 169421.62764602
scalar OsgEarthNet.uav[23] utilizationSecIdle 45342
scalar OsgEarthNet.uav[23] utilizationEnergyMission 137914.27263365
scalar OsgEarthNet.uav[23] utilizationEnergyMaintenance 69078.334442139
scalar OsgEarthNet.uav[23] utilizationEnergyCharge 203953.29833984
scalar OsgEarthNet.uav[23] utilizationEnergyOverdrawMission 0
scalar OsgEarthNet.uav[23] utilizationEnergyOverdrawMaintenance 0
scalar OsgEarthNet.uav[23] utilizationCountMissions 52
scalar OsgEarthNet.uav[23] utilizationCountManeuversMission 487
scalar OsgEarthNet.uav[23] utilizationCountManeuversMaintenance 103
scalar OsgEarthNet.uav[23] utilizationCountChargeState 52
scalar OsgEarthNet.uav[23] utilizationCountOverdrawnAfterMission 0
scalar OsgEarthNet.uav[23] utilizationCountIdleState 52
scalar OsgEarthNet.uav[23] utilizationFail 0
scalar OsgEarthNet.uav[23] simulationTime 259200
scalar OsgEarthNet.uav[24] utilizationSecMission 3553.10191764
scalar OsgEarthNet.uav[24] utilizationSecMaintenance 1654.4484358664
scalar OsgEarthNet.uav[24] utilizationSecCharge 20490
scalar OsgEarthNet.uav[24] utilizationSecIdle 233502.44864649
scalar OsgEarthNet.uav[24] utilizationEnergyMission 16923.559532166
scalar OsgEarthNet.uav[24] utilizationEnergyMaintenance 7871.7262916565
scalar OsgEarthNet.uav[24] utilizationEnergyCharge 24846.471191406
scalar OsgEarthNet.uav[24] utilizationEnergyOverdrawMission 0
scalar OsgEarthNet.uav[24] utilizationEnergyOverdrawMaintenance 0
scalar OsgEarthNet.uav[24] utilizationCountMissions 6
scalar OsgEarthNet.uav[24] utilizationCountManeuversMission 56
scalar OsgEarthNet.uav[24] utilizationCountManeuversMaintenance 12
scalar OsgEarthNet.uav[24] utilizationCountChargeState 6
scalar OsgEarthNet.uav[24] utilizationCountOverdrawnAfterMission 0
scalar OsgEarthNet.uav[24] utilizationCountIdleState 7
scalar OsgEarthNet.uav[24] utilizationFail 0
scalar OsgEarthNet.uav[24] simulationTime 259200
scalar OsgEarthNet.uav[25] utilizationSecMission 15004.915772738
scalar OsgEarthNet.uav[25] utilizationSecMaintenance 10348.80845273
scalar OsgEarthNet.uav[25] utilizationSecCharge 98780
scalar OsgEarthNet.uav[25] utilizationSecIdle 135066.27477453
scalar OsgEarthNet.uav[25] utilizationEnergyMission 69778.580825806
scalar OsgEarthNet.uav[25] utilizationEnergyMaintenance 48693.016056061
scalar OsgEarthNet.uav[25] utilizationEnergyCharge 118389.34619141
scalar OsgEarthNet.uav[25] utilizationEnergyOverdrawMission 0
scalar OsgEarthNet.uav[25] utilizationEnergyOverdrawMaintenance 0
scalar OsgEarthNet.uav[25] utilizationCountMissions 30
scalar OsgEarthNet.uav[25] utilizationCountManeuversMission 244
scalar OsgEarthNet.uav[25] utilizationCountManeuversMaintenance 60
scalar OsgEarthNet.uav[25] utilizationCountChargeState 30
scalar OsgEarthNet.uav[25] utilizationCountOverdrawnAfterMission 0
scalar OsgEarthNet.uav[25] utilizationCountIdleState 31
scalar OsgEarthNet.uav[25] utilizationFail 0
scalar OsgEarthNet.uav[25] simulationTime 259200
scalar OsgEarthNet.uav[26] utilizationSecMission 443.5870541303
scalar OsgEarthNet.uav[26] utilizationSecMaintenance 425.80795651079
scalar OsgEarthNet.uav[26] utilizationSecCharge 3270
scalar OsgEarthNet.uav[26] utilizationSecIdle 255060.60398936
scalar OsgEarthNet.uav[26] utilizationEnergyMission 2018.3046417236
scalar OsgEarthNet.uav[26] utilizationEnergyMaintenance 1880.7492027283
scalar OsgEarthNet.uav[26] utilizationEnergyCharge 3885.5148925781
scalar OsgEarthNet.uav[26] utilizationEnergyOverdrawMission 0
scalar OsgEarthNet.uav[26] utilizationEnergyOverdrawMaintenance 0
scalar OsgEarthNet.uav[26] utilizationCountMissions 1
scalar OsgEarthNet.uav[26] utilizationCountManeuversMission 7
scalar OsgEarthNet.uav[26] utilizationCountManeuversMaintenance 2
scalar OsgEarthNet.uav[26] utilizationCountChargeState 1
scalar OsgEarthNet.uav[26] utilizationCountOverdrawnAfterMission 0
scalar OsgEarthNet.uav[26] utilizationCountIdleState 2
scalar OsgEarthNet.uav[26] utilizationFail 0
scalar OsgEarthNet.uav[26] simulationTime 259200
scalar OsgEarthNet.uav[27] utilizationSecMission 26740.368168859
scalar OsgEarthNet.uav[27] utilizationSecMaintenance 10361.619795879
scalar OsgEarthNet.uav[27] utilizationSecCharge 137186.95324007
scalar OsgEarthNet.uav[27] utilizationSecIdle 84911.057795193
scalar OsgEarthNet.uav[27] utilizationEnergyMission 123651.78621674
scalar OsgEarthNet.uav[27] utilizationEnergyMaintenance 48338.72138977
scalar OsgEarthNet.uav[27] utilizationEnergyCharge 167688.67736816
scalar OsgEarthNet.uav[27] utilizationEnergyOverdrawMission 0
scalar OsgEarthNet.uav[27] utilizationEnergyOverdrawMaintenance 0
scalar OsgEarthNet.uav[27] utilizationCountMissions 41
scalar OsgEarthNet.uav[27] utilizationCountManeuversMission 438
scalar OsgEarthNet.uav[27] utilizationCountManeuversMaintenance 82
scalar OsgEarthNet.uav[27] utilizationCountChargeState 41
scalar OsgEarthNet.uav[27] utilizationCountOverdrawnAfterMission 0
scalar OsgEarthNet.uav[27] utilizationCountIdleState 41
scalar OsgEarthNet.uav[27] utilizationFail 0
scalar OsgEarthNet.uav[27] simulationTime 259200
scalar OsgEarthNet.uav[28] utilizationSecMission 10009.513915068
scalar OsgEarthNet.uav[28] utilizationSecMaintenance 6415.7552908198
scalar OsgEarthNet.uav[28] utilizationSecCharge 63530
scalar OsgEarthNet.uav[28] utilizationSecIdle 179244.72979411
scalar OsgEarthNet.uav[28] utilizationEnergyMission 46663.212505341
scalar OsgEarthNet.uav[28] utilizationEnergyMaintenance 30146.980564117
scalar OsgEarthNet.uav[28] utilizationEnergyCharge 76910.898681641
scalar OsgEarthNet.uav[28] utilizationEnergyOverdrawMission 0
scalar OsgEarthNet.uav[28] utilizationEnergyOverdrawMaintenance 0
scalar OsgEarthNet.uav[28] utilizationCountMissions 19
scalar OsgEarthNet.uav[28] utilizationCountManeuversMission 171
scalar OsgEarthNet.uav[28] utilizationCountManeuversMaintenance 38
scalar OsgEarthNet.uav[28] utilizationCountChargeState 19
scalar OsgEarthNet.uav[28] utilizationCountOverdrawnAfterMission 0
scalar OsgEarthNet.uav[28] utilizationCountIdleState 20
scalar OsgEarthNet.uav[28] utilizationFail 0
scalar OsgEarthNet.uav[28] simulationTime 259200
scalar OsgEarthNet.uav[29] utilizationSecMission 760.62515258028
scalar OsgEarthNet.uav[29] utilizationSecMaintenance 245.74410321072
scalar OsgEarthNet.uav[29] utilizationSecCharge 3760
scalar OsgEarthNet.uav[29] utilizationSecIdle 254433.62974421
scalar OsgEarthNet.uav[29] utilizationEnergyMission 3439.3743286133
scalar OsgEarthNet.uav[29] utilizationEnergyMaintenance 1280.4889945984
scalar OsgEarthNet.uav[29] utilizationEnergyCharge 4719.865234375
scalar OsgEarthNet.uav[29] utilizationEnergyOverdrawMission 0
scalar OsgEarthNet.uav[29] utilizationEnergyOverdrawMaintenance 0
scalar OsgEarthNet.uav[29] utilizationCountMissions 1
scalar OsgEarthNet.uav[29] utilizationCountManeuversMission 12
scalar OsgEarthNet.uav[29] utilizationCountManeuversMaintenance 2
scalar OsgEarthNet.uav[29] utilizationCountChargeState 1
scalar OsgEarthNet.uav[29] utilizationCountOverdrawnAfterMission 0
scalar OsgEarthNet.uav[29] utilizationCountIdleState 2
scalar OsgEarthNet.uav[29] utilizationFail 0
scalar OsgEarthNet.uav[29] simulationTime 259200
scalar OsgEarthNet.uav[30] utilizationSecMission 24921.847082875
scalar OsgEarthNet.uav[30] utilizationSecMaintenance 11459.80949835
scalar OsgEarthNet.uav[30] utilizationSecCharge 141210
scalar OsgEarthNet.uav[30] utilizationSecIdle 81608.342418775
scalar OsgEarthNet.uav[30] utilizationEnergyMission 116030.49845886
scalar OsgEarthNet.uav[30] utilizationEnergyMaintenance 53182.789253235
scalar OsgEarthNet.uav[30] utilizationEnergyCharge 169396.99780273
scalar OsgEarthNet.uav[30] utilizationEnergyOverdrawMission 0
scalar OsgEarthNet.uav[30] utilizationEnergyOverdrawMaintenance 0
scalar OsgEarthNet.uav[30] utilizationCountMissions 43
scalar OsgEarthNet.uav[30] utilizationCountManeuversMission 398
scalar OsgEarthNet.uav[30] utilizationCountManeuversMaintenance 86
scalar OsgEarthNet.uav[30] utilizationCountChargeState 43
scalar OsgEarthNet.uav[30] utilizationCountOverdrawnAfterMission 0
scalar OsgEarthNet.uav[30] utilizationCountIdleState 44
scalar OsgEarthNet.uav[30] utilizationFail 0
scalar OsgEarthNet.uav[30] simulationTime 259200
scalar OsgEarthNet.uav[31] utilizationSecMission 25803.566388292
scalar OsgEarthNet.uav[31] utilizationSecMaintenance 11933.389793296
scalar OsgEarthNet.uav[31] utilizationSecCharge 147410
scalar OsgEarthNet.uav[31] utilizationSecIdle 74053.042818413
scalar OsgEarthNet.uav[31] utilizationEnergyMission 119046.63261414
scalar OsgEarthNet.uav[31] utilizationEnergyMaintenance 57691.11992621
scalar OsgEarthNet.uav[31] utilizationEnergyCharge 176652.01318359
scalar OsgEarthNet.uav[31] utilizationEnergyOverdrawMission 0
scalar OsgEarthNet.uav[31] utilizationEnergyOverdrawMaintenance 0
scalar OsgEarthNet.uav[31] utilizationCountMissions 45
scalar OsgEarthNet.uav[31] utilizationCountManeuversMission 418
scalar OsgEarthNet.uav[31] utilizationCountManeuversMaintenance 91
scalar OsgEarthNet.uav[31] utilizationCountChargeState 45
scalar OsgEarthNet.uav[31] utilizationCountOverdrawnAfterMission 0
scalar OsgEarthNet.uav[31] utilizationCountIdleState 46
scalar OsgEarthNet.uav[31] utilizationFail 0
scalar OsgEarthNet.uav[31] simulationTime 259200
scalar OsgEarthNet.uav[32] utilizationSecMission 694.00169469977
scalar OsgEarthNet.uav[32] utilizationSecMaintenance 223.34597234416
scalar OsgEarthNet.uav[32] utilizationSecCharge 3490
scalar OsgEarthNet.uav[32] utilizationSecIdle 254792.65133296
scalar OsgEarthNet.uav[32] utilizationEnergyMission 3291.4303207397
scalar OsgEarthNet.uav[32] utilizationEnergyMaintenance 911.90418624878
scalar OsgEarthNet.uav[32] utilizationEnergyCharge 4254.6137695312
scalar OsgEarthNet.uav[32] utilizationEnergyOverdrawMission 0
scalar OsgEarthNet.uav[32] utilizationEnergyOverdrawMaintenance 0
scalar OsgEarthNet.uav[32] utilizationCountMissions 1
scalar OsgEarthNet.uav[32] utilizationCountManeuversMission 13
scalar OsgEarthNet.uav[32] utilizationCountManeuversMaintenance 2
scalar OsgEarthNet.uav[32] utilizationCountChargeState 1
scalar OsgEarthNet.uav[32] utilizationCountOverdrawnAfterMission 0
scalar OsgEarthNet.uav[32] utilizationCountIdleState 2
scalar OsgEarthNet.uav[32] utilizationFail 0
scalar OsgEarthNet.uav[32] simulationTime 259200
scalar OsgEarthNet.uav[33] utilizationSecMission 974.02741920121
scalar OsgEarthNet.uav[33] utilizationSecMaintenance 644.86201791861
scalar OsgEarthNet.uav[33] utilizationSecCharge 6400
scalar OsgEarthNet.uav[33] utilizationSecIdle 251181.10956288
scalar OsgEarthNet.uav[33] utilizationEnergyMission 4453.0134124756
scalar OsgEarthNet.uav[33] utilizationEnergyMaintenance 3135.0421562195
scalar OsgEarthNet.uav[33] utilizationEnergyCharge 7588.0661621094
scalar OsgEarthNet.uav[33] utilizationEnergyOverdrawMission 0
scalar OsgEarthNet.uav[33] utilizationEnergyOverdrawMaintenance 0
scalar OsgEarthNet.uav[33] utilizationCountMissions 2
scalar OsgEarthNet.uav[33] utilizationCountManeuversMission 15
scalar OsgEarthNet.uav[33] utilizationCountManeuversMaintenance 4
scalar OsgEarthNet.uav[33] utilizationCountChargeState 2
scalar OsgEarthNet.uav[33] utilizationCountOverdrawnAfterMission 0
scalar OsgEarthNet.uav[33] utilizationCountIdleState 3
scalar OsgEarthNet.uav[33] utilizationFail 0
scalar OsgEarthNet.uav[33] simulationTime 259200
scalar OsgEarthNet.uav[34] utilizationSecMission 896.35009812453
scalar OsgEarthNet.uav[34] utilizationSecMaintenance 506.05208261933
scalar OsgEarthNet.uav[34] utilizationSecCharge 6020
scalar OsgEarthNet.uav[34] utilizationSecIdle 251777.59681926
scalar OsgEarthNet.uav[34] utilizationEnergyMission 4277.58934021
scalar OsgEarthNet.uav[34] utilizationEnergyMaintenance 2636.5081710815
scalar OsgEarthNet.uav[34] utilizationEnergyCharge 6914.0981445312
scalar OsgEarthNet.uav[34] utilizationEnergyOverdrawMission 0
scalar OsgEarthNet.uav[34] utilizationEnergyOverdrawMaintenance 0
scalar OsgEarthNet.uav[34] utilizationCountMissions 2
scalar OsgEarthNet.uav[34] utilizationCountManeuversMission 15
scalar OsgEarthNet.uav[34] utilizationCountManeuversMaintenance 4
scalar OsgEarthNet.uav[34] utilizationCountChargeState 2
scalar OsgEarthNet.uav[34] utilizationCountOverdrawnAfterMission 0
scalar OsgEarthNet.uav[34] utilizationCountIdleState 3
scalar OsgEarthNet.uav[34] utilizationFail 0
scalar OsgEarthNet.uav[34] simulationTime 259200
scalar OsgEarthNet.uav[35] utilizationSecMission 694.00169469977
scalar OsgEarthNet.uav[35] utilizationSecMaintenance 223.34597234416
scalar OsgEarthNet.uav[35] utilizationSecCharge 3510
scalar OsgEarthNet.uav[35] utilizationSecIdle 254772.65133296
scalar OsgEarthNet.uav[35] utilizationEnergyMission 3181.4823226929
scalar OsgEarthNet.uav[35] utilizationEnergyMaintenance 1101.4726676941
scalar OsgEarthNet.uav[35] utilizationEnergyCharge 4290.6455078125
scalar OsgEarthNet.uav[35] utilizationEnergyOverdrawMission 0
scalar OsgEarthNet.uav[35] utilizationEnergyOverdrawMaintenance 0
scalar OsgEarthNet.uav[35] utilizationCountMissions 1
scalar OsgEarthNet.uav[35] utilizationCountManeuversMission 13
scalar OsgEarthNet.uav[35] utilizationCountManeuversMaintenance 2
scalar OsgEarthNet.uav[35] utilizationCountChargeState 1
scalar OsgEarthNet.uav[35] utilizationCountOverdrawnAfterMission 0
scalar OsgEarthNet.uav[35] utilizationCountIdleState 2
scalar OsgEarthNet.uav[35] utilizationFail 0
scalar OsgEarthNet.uav[35] simulationTime 259200
scalar OsgEarthNet.uav[36] utilizationSecMission 28090.670431887
scalar OsgEarthNet.uav[36] utilizationSecMaintenance 13019.732056306
scalar OsgEarthNet.uav[36] utilizationSecCharge 156202.79728773
scalar OsgEarthNet.uav[36] utilizationSecIdle 61886.799224078
scalar OsgEarthNet.uav[36] utilizationEnergyMission 128784.05617523
scalar OsgEarthNet.uav[36] utilizationEnergyMaintenance 60953.166332245
scalar OsgEarthNet.uav[36] utilizationEnergyCharge 188176.10131836
scalar OsgEarthNet.uav[36] utilizationEnergyOverdrawMission 0
scalar OsgEarthNet.uav[36] utilizationEnergyOverdrawMaintenance 0
scalar OsgEarthNet.uav[36] utilizationCountMissions 48
scalar OsgEarthNet.uav[36] utilizationCountManeuversMission 465
scalar OsgEarthNet.uav[36] utilizationCountManeuversMaintenance 96
scalar OsgEarthNet.uav[36] utilizationCountChargeState 48
scalar OsgEarthNet.uav[36] utilizationCountOverdrawnAfterMission 0
scalar OsgEarthNet.uav[36] utilizationCountIdleState 48
scalar OsgEarthNet.uav[36] utilizationFail 0
scalar OsgEarthNet.uav[36] simulationTime 259200
scalar OsgEarthNet.uav[37] utilizationSecMission 10779.711107416
scalar OsgEarthNet.uav[37] utilizationSecMaintenance 3977.3222800476
scalar OsgEarthNet.uav[37] utilizationSecCharge 56980
scalar OsgEarthNet.uav[37] utilizationSecIdle 187462.96561254
scalar OsgEarthNet.uav[37] utilizationEnergyMission 49657.796707153
scalar OsgEarthNet.uav[37] utilizationEnergyMaintenance 18829.546318054
scalar OsgEarthNet.uav[37] utilizationEnergyCharge 68954.727783203
scalar OsgEarthNet.uav[37] utilizationEnergyOverdrawMission 0
scalar OsgEarthNet.uav[37] utilizationEnergyOverdrawMaintenance 0
scalar OsgEarthNet.uav[37] utilizationCountMissions 17
scalar OsgEarthNet.uav[37] utilizationCountManeuversMission 173
scalar OsgEarthNet.uav[37] utilizationCountManeuversMaintenance 34
scalar OsgEarthNet.uav[37] utilizationCountChargeState 17
scalar OsgEarthNet.uav[37] utilizationCountOverdrawnAfterMission 0
scalar OsgEarthNet.uav[37] utilizationCountIdleState 18
scalar OsgEarthNet.uav[37] utilizationFail 0
scalar OsgEarthNet.uav[37] simulationTime 259200
scalar OsgEarthNet.uav[38] utilizationSecMission 31288.707344027
scalar OsgEarthNet.uav[38] utilizationSecMaintenance 12972.187279236
scalar OsgEarthNet.uav[38] utilizationSecCharge 166637.10437674
scalar OsgEarthNet.uav[38] utilizationSecIdle 48302
scalar OsgEarthNet.uav[38] utilizationEnergyMission 144121.33123029
scalar OsgEarthNet.uav[38] utilizationEnergyMaintenance 60490.787624359
scalar OsgEarthNet.uav[38] utilizationEnergyCharge 203918.51245117
scalar OsgEarthNet.uav[38] utilizationEnergyOverdrawMission 0
scalar OsgEarthNet.uav[38] utilizationEnergyOverdrawMaintenance 0
scalar OsgEarthNet.uav[38] utilizationCountMissions 49
scalar OsgEarthNet.uav[38] utilizationCountManeuversMission 503
scalar OsgEarthNet.uav[38] utilizationCountManeuversMaintenance 97
scalar OsgEarthNet.uav[38] utilizationCountChargeState 49
scalar OsgEarthNet.uav[38] utilizationCountOverdrawnAfterMission 0
scalar OsgEarthNet.uav[38] utilizationCountIdleState 49
scalar OsgEarthNet.uav[38] utilizationFail 0
scalar OsgEarthNet.uav[38] simulationTime 259200
scalar OsgEarthNet.uav[39] utilizationSecMission 28266.907105049
scalar OsgEarthNet.uav[39] utilizationSecMaintenance 13789.33022
scalar OsgEarthNet.uav[39] utilizationSecCharge 162591.76167495
scalar OsgEarthNet.uav[39] utilizationSecIdle 54552
scalar OsgEarthNet.uav[39] utilizationEnergyMission 130567.49720764
scalar OsgEarthNet.uav[39] utilizationEnergyMaintenance 64137.030353546
scalar OsgEarthNet.uav[39] utilizationEnergyCharge 193885.15600586
scalar OsgEarthNet.uav[39] utilizationEnergyOverdrawMission 0
scalar OsgEarthNet.uav[39] utilizationEnergyOverdrawMaintenance 0
scalar OsgEarthNet.uav[39] utilizationCountMissions 51
scalar OsgEarthNet.uav[39] utilizationCountManeuversMission 447
scalar OsgEarthNet.uav[39] utilizationCountManeuversMaintenance 101
scalar OsgEarthNet.uav[39] utilizationCountChargeState 51
scalar OsgEarthNet.uav[39] utilizationCountOverdrawnAfterMission 0
scalar OsgEarthNet.uav[39] utilizationCountIdleState 51
scalar OsgEarthNet.uav[39] utilizationFail 0
scalar OsgEarthNet.uav[39] simulationTime 259200
scalar OsgEarthNet.uav[40] utilizationSecMission 213.40226662092
scalar OsgEarthNet.uav[40] utilizationSecMaintenance 474.30151219871
scalar OsgEarthNet.uav[40] utilizationSecCharge 2780
scalar OsgEarthNet.uav[40] utilizationSecIdle 255732.29522118
scalar OsgEarthNet.uav[40] utilizationEnergyMission 975.63626098633
scalar OsgEarthNet.uav[40] utilizationEnergyMaintenance 2052.065574646
scalar OsgEarthNet.uav[40] utilizationEnergyCharge 3027.7062988281
scalar OsgEarthNet.uav[40] utilizationEnergyOverdrawMission 0
scalar OsgEarthNet.uav[40] utilizationEnergyOverdrawMaintenance 0
scalar OsgEarthNet.uav[40] utilizationCountMissions 1
scalar OsgEarthNet.uav[40] utilizationCountManeuversMission 3
scalar OsgEarthNet.uav[40] utilizationCountManeuversMaintenance 2
scalar OsgEarthNet.uav[40] utilizationCountChargeState 1
scalar OsgEarthNet.uav[40] utilizationCountOverdrawnAfterMission 0
scalar OsgEarthNet.uav[40] utilizationCountIdleState 2
scalar OsgEarthNet.uav[40] utilizationFail 0
scalar OsgEarthNet.uav[40] simulationTime 259200
scalar OsgEarthNet.uav[41] utilizationSecMission 443.5870541303
scalar OsgEarthNet.uav[41] utilizationSecMaintenance 465.20364065929
scalar OsgEarthNet.uav[41] utilizationSecCharge 3340
scalar OsgEarthNet.uav[41] utilizationSecIdle 254951.20830521
scalar OsgEarthNet.uav[41] utilizationEnergyMission 1873.6622467041
scalar OsgEarthNet.uav[41] utilizationEnergyMaintenance 2128.8309745789
scalar OsgEarthNet.uav[41] utilizationEnergyCharge 4020.7219238281
scalar OsgEarthNet.uav[41] utilizationEnergyOverdrawMission 0
scalar OsgEarthNet.uav[41] utilizationEnergyOverdrawMaintenance 0
scalar OsgEarthNet.uav[41] utilizationCountMissions 1
scalar OsgEarthNet.uav[41] utilizationCountManeuversMission 7
scalar OsgEarthNet.uav[41] utilizationCountManeuversMaintenance 2
scalar OsgEarthNet.uav[41] utilizationCountChargeState 1
scalar OsgEarthNet.uav[41] utilizationCountOverdrawnAfterMission 0
scalar OsgEarthNet.uav[41] utilizationCountIdleState 2
scalar OsgEarthNet.uav[41] utilizationFail 0
scalar OsgEarthNet.uav[41] simulationTime 259200
scalar OsgEarthNet.uav[42] utilizationSecMission 2345.33692897
scalar OsgEarthNet.uav[42] utilizationSecMaintenance 536.94221793518
scalar OsgEarthNet.uav[42] utilizationSecCharge 8987.7102115247
scalar OsgEarthNet.uav[42] utilizationSecIdle 247330.00964157
scalar OsgEarthNet.uav[42] utilizationEnergyMission 11114.679702759
scalar OsgEarthNet.uav[42] utilizationEnergyMaintenance 2468.6125488281
scalar OsgEarthNet.uav[42] utilizationEnergyCharge 12048.917236328
scalar OsgEarthNet.uav[42] utilizationEnergyOverdrawMission 0
scalar OsgEarthNet.uav[42] utilizationEnergyOverdrawMaintenance 0
scalar OsgEarthNet.uav[42] utilizationCountMissions 3
scalar OsgEarthNet.uav[42] utilizationCountManeuversMission 36
scalar OsgEarthNet.uav[42] utilizationCountManeuversMaintenance 6
scalar OsgEarthNet.uav[42] utilizationCountChargeState 3
scalar OsgEarthNet.uav[42] utilizationCountOverdrawnAfterMission 0
scalar OsgEarthNet.uav[42] utilizationCountIdleState 3
scalar OsgEarthNet.uav[42] utilizationFail 0
scalar OsgEarthNet.uav[42] simulationTime 259200
scalar OsgEarthNet.uav[43] utilizationSecMission 213.40226662092
scalar OsgEarthNet.uav[43] utilizationSecMaintenance 474.30151219871
scalar OsgEarthNet.uav[43] utilizationSecCharge 2910
scalar OsgEarthNet.uav[43] utilizationSecIdle 255602.29522118
scalar OsgEarthNet.uav[43] utilizationEnergyMission 1029.8683166504
scalar OsgEarthNet.uav[43] utilizationEnergyMaintenance 2268.3777694702
scalar OsgEarthNet.uav[43] utilizationEnergyCharge 3298.2443847656
scalar OsgEarthNet.uav[43] utilizationEnergyOverdrawMission 0
scalar OsgEarthNet.uav[43] utilizationEnergyOverdrawMaintenance 0
scalar OsgEarthNet.uav[43] utilizationCountMissions 1
scalar OsgEarthNet.uav[43] utilizationCountManeuversMission 3
scalar OsgEarthNet.uav[43] utilizationCountManeuversMaintenance 2
scalar OsgEarthNet.uav[43] utilizationCountChargeState 1
scalar OsgEarthNet.uav[43] utilizationCountOverdrawnAfterMission 0
scalar OsgEarthNet.uav[43] utilizationCountIdleState 2
scalar OsgEarthNet.uav[43] utilizationFail 0
scalar OsgEarthNet.uav[43] simulationTime 259200
scalar OsgEarthNet.uav[44] utilizationSecMission 26415.901690208
scalar OsgEarthNet.uav[44] utilizationSecMaintenance 14035.057193089
scalar OsgEarthNet.uav[44] utilizationSecCharge 151580
scalar OsgEarthNet.uav[44] utilizationSecIdle 67169.040116703
scalar OsgEarthNet.uav[44] utilizationEnergyMission 121828.65672302
scalar OsgEarthNet.uav[44] utilizationEnergyMaintenance 66413.460948601
scalar OsgEarthNet.uav[44] utilizationEnergyCharge 183839.67236328
scalar OsgEarthNet.uav[44] utilizationEnergyOverdrawMission 0
scalar OsgEarthNet.uav[44] utilizationEnergyOverdrawMaintenance 0
scalar OsgEarthNet.uav[44] utilizationCountMissions 46
scalar OsgEarthNet.uav[44] utilizationCountManeuversMission 462
scalar OsgEarthNet.uav[44] utilizationCountManeuversMaintenance 92
scalar OsgEarthNet.uav[44] utilizationCountChargeState 45
scalar OsgEarthNet.uav[44] utilizationCountOverdrawnAfterMission 0
scalar OsgEarthNet.uav[44] utilizationCountIdleState 46
scalar OsgEarthNet.uav[44] utilizationFail 0
scalar OsgEarthNet.uav[44] simulationTime 259200
scalar OsgEarthNet.uav[45] utilizationSecMission 14526.999293474
scalar OsgEarthNet.uav[45] utilizationSecMaintenance 8988.0451164197
scalar OsgEarthNet.uav[45] utilizationSecCharge 92330
scalar OsgEarthNet.uav[45] utilizationSecIdle 143354.95459011
scalar OsgEarthNet.uav[45] utilizationEnergyMission 66307.706993103
scalar OsgEarthNet.uav[45] utilizationEnergyMaintenance 43042.425872803
scalar OsgEarthNet.uav[45] utilizationEnergyCharge 109171.08886719
scalar OsgEarthNet.uav[45] utilizationEnergyOverdrawMission 0
scalar OsgEarthNet.uav[45] utilizationEnergyOverdrawMaintenance 0
scalar OsgEarthNet.uav[45] utilizationCountMissions 29
scalar OsgEarthNet.uav[45] utilizationCountManeuversMission 247
scalar OsgEarthNet.uav[45] utilizationCountManeuversMaintenance 58
scalar OsgEarthNet.uav[45] utilizationCountChargeState 29
scalar OsgEarthNet.uav[45] utilizationCountOverdrawnAfterMission 0
scalar OsgEarthNet.uav[45] utilizationCountIdleState 30
scalar OsgEarthNet.uav[45] utilizationFail 0
scalar OsgEarthNet.uav[45] simulationTime 259200
scalar OsgEarthNet.uav[46] utilizationSecMission 29424.593648758
scalar OsgEarthNet.uav[46] utilizationSecMaintenance 13656.465077931
scalar OsgEarthNet.uav[46] utilizationSecCharge 165050
scalar OsgEarthNet.uav[46] utilizationSecIdle 51068.940273311
scalar OsgEarthNet.uav[46] utilizationEnergyMission 135571.79582214
scalar OsgEarthNet.uav[46] utilizationEnergyMaintenance 64456.880947113
scalar OsgEarthNet.uav[46] utilizationEnergyCharge 200007.5559082
scalar OsgEarthNet.uav[46] utilizationEnergyOverdrawMission 0
scalar OsgEarthNet.uav[46] utilizationEnergyOverdrawMaintenance 0
scalar OsgEarthNet.uav[46] utilizationCountMissions 49
scalar OsgEarthNet.uav[46] utilizationCountManeuversMission 484
scalar OsgEarthNet.uav[46] utilizationCountManeuversMaintenance 98
scalar OsgEarthNet.uav[46] utilizationCountChargeState 49
scalar OsgEarthNet.uav[46] utilizationCountOverdrawnAfterMission 0
scalar OsgEarthNet.uav[46] utilizationCountIdleState 50
scalar OsgEarthNet.uav[46] utilizationFail 0
scalar OsgEarthNet.uav[46] simulationTime 259200
scalar OsgEarthNet.uav[47] utilizationSecMission 21201.972453527
scalar OsgEarthNet.uav[47] utilizationSecMaintenance 11714.331590346
scalar OsgEarthNet.uav[47] utilizationSecCharge 127750
scalar OsgEarthNet.uav[47] utilizationSecIdle 98533.694956127
scalar OsgEarthNet.uav[47] utilizationEnergyMission 97490.35295105
scalar OsgEarthNet.uav[47] utilizationEnergyMaintenance 55711.294834137
scalar OsgEarthNet.uav[47] utilizationEnergyCharge 153087.24536133
scalar OsgEarthNet.uav[47] utilizationEnergyOverdrawMission 0
scalar OsgEarthNet.uav[47] utilizationEnergyOverdrawMaintenance 0
scalar OsgEarthNet.uav[47] utilizationCountMissions 39
scalar OsgEarthNet.uav[47] utilizationCountManeuversMission 354
scalar OsgEarthNet.uav[47] utilizationCountManeuversMaintenance 78
scalar OsgEarthNet.uav[47] utilizationCountChargeState 39
scalar OsgEarthNet.uav[47] utilizationCountOverdrawnAfterMission 0
scalar OsgEarthNet.uav[47] utilizationCountIdleState 40
scalar OsgEarthNet.uav[47] utilizationFail 0
scalar OsgEarthNet.uav[47] simulationTime 259200
scalar OsgEarthNet.uav[48] utilizationSecMission 694.00169469977
scalar OsgEarthNet.uav[48] utilizationSecMaintenance 223.34597234416
scalar OsgEarthNet.uav[48] utilizationSecCharge 3550
scalar OsgEarthNet.uav[48] utilizationSecIdle 254732.65133296
scalar OsgEarthNet.uav[48] utilizationEnergyMission 3252.8201141357
scalar OsgEarthNet.uav[48] utilizationEnergyMaintenance 1060.116191864
scalar OsgEarthNet.uav[48] utilizationEnergyCharge 4354.1684570312
scalar OsgEarthNet.uav[48] utilizationEnergyOverdrawMission 0
scalar OsgEarthNet.uav[48] utilizationEnergyOverdrawMaintenance 0
scalar OsgEarthNet.uav[48] utilizationCountMissions 1
scalar OsgEarthNet.uav[48] utilizationCountManeuversMission 13
scalar OsgEarthNet.uav[48] utilizationCountManeuversMaintenance 2
scalar OsgEarthNet.uav[48] utilizationCountChargeState 1
scalar OsgEarthNet.uav[48] utilizationCountOverdrawnAfterMission 0
scalar OsgEarthNet.uav[48] utilizationCountIdleState 2
scalar OsgEarthNet.uav[48] utilizationFail 0
scalar OsgEarthNet.uav[48] simulationTime 259200
scalar OsgEarthNet.uav[49] utilizationSecMission 2343.3659375613
scalar OsgEarthNet.uav[49] utilizationSecMaintenance 1317.5563798963
scalar OsgEarthNet.uav[49] utilizationSecCharge 13520
scalar OsgEarthNet.uav[49] utilizationSecIdle 242019.07668254
scalar OsgEarthNet.uav[49] utilizationEnergyMission 10698.467842102
scalar OsgEarthNet.uav[49] utilizationEnergyMaintenance 6008.2018280029
scalar OsgEarthNet.uav[49] utilizationEnergyCharge 16404.177246094
scalar OsgEarthNet.uav[49] utilizationEnergyOverdrawMission 0
scalar OsgEarthNet.uav[49] utilizationEnergyOverdrawMaintenance 0
scalar OsgEarthNet.uav[49] utilizationCountMissions 4
scalar OsgEarthNet.uav[49] utilizationCountManeuversMission 39
scalar OsgEarthNet.uav[49] utilizationCountManeuversMaintenance 8
scalar OsgEarthNet.uav[49] utilizationCountChargeState 4
scalar OsgEarthNet.uav[49] utilizationCountOverdrawnAfterMission 0
scalar OsgEarthNet.uav[49] utilizationCountIdleState 5
scalar OsgEarthNet.uav[49] utilizationFail 0
scalar OsgEarthNet.uav[49] simulationTime 259200
scalar OsgEarthNet.uav[50] utilizationSecMission 760.62515258028
scalar OsgEarthNet.uav[50] utilizationSecMaintenance 291.95923480269
scalar OsgEarthNet.uav[50] utilizationSecCharge 3820
scalar OsgEarthNet.uav[50] utilizationSecIdle 254327.41461262
scalar OsgEarthNet.uav[50] utilizationEnergyMission 3500.0665130615
scalar OsgEarthNet.uav[50] utilizationEnergyMaintenance 1398.8077926636
scalar OsgEarthNet.uav[50] utilizationEnergyCharge 4898.8740234375
scalar OsgEarthNet.uav[50] utilizationEnergyOverdrawMission 0
scalar OsgEarthNet.uav[50] utilizationEnergyOverdrawMaintenance 0
scalar OsgEarthNet.uav[50] utilizationCountMissions 1
scalar OsgEarthNet.uav[50] utilizationCountManeuversMission 12
scalar OsgEarthNet.uav[50] utilizationCountManeuversMaintenance 2
scalar OsgEarthNet.uav[50] utilizationCountChargeState 1
scalar OsgEarthNet.uav[50] utilizationCountOverdrawnAfterMission 0
scalar OsgEarthNet.uav[50] utilizationCountIdleState 2
scalar OsgEarthNet.uav[50] utilizationFail 0
scalar OsgEarthNet.uav[50] simulationTime 259200
scalar OsgEarthNet.uav[51] utilizationSecMission 28150.580636036
scalar OsgEarthNet.uav[51] utilizationSecMaintenance 13055.473647678
scalar OsgEarthNet.uav[51] utilizationSecCharge 160292.98073061
scalar OsgEarthNet.uav[51] utilizationSecIdle 57700.963985674
scalar OsgEarthNet.uav[51] utilizationEnergyMission 130031.74755478
scalar OsgEarthNet.uav[51] utilizationEnergyMaintenance 62281.204841614
scalar OsgEarthNet.uav[51] utilizationEnergyCharge 191722.49194336
scalar OsgEarthNet.uav[51] utilizationEnergyOverdrawMission 0
scalar OsgEarthNet.uav[51] utilizationEnergyOverdrawMaintenance 0
scalar OsgEarthNet.uav[51] utilizationCountMissions 49
scalar OsgEarthNet.uav[51] utilizationCountManeuversMission 472
scalar OsgEarthNet.uav[51] utilizationCountManeuversMaintenance 98
scalar OsgEarthNet.uav[51] utilizationCountChargeState 49
scalar OsgEarthNet.uav[51] utilizationCountOverdrawnAfterMission 0
scalar OsgEarthNet.uav[51] utilizationCountIdleState 49
scalar OsgEarthNet.uav[51] utilizationFail 0
scalar OsgEarthNet.uav[51] simulationTime 259200
scalar OsgEarthNet.uav[52] utilizationSecMission 26637.4370797
scalar OsgEarthNet.uav[52] utilizationSecMaintenance 11449.725211195
scalar OsgEarthNet.uav[52] utilizationSecCharge 145110
scalar OsgEarthNet.uav[52] utilizationSecIdle 76002.836709106
scalar OsgEarthNet.uav[52] utilizationEnergyMission 122609.69782639
scalar OsgEarthNet.uav[52] utilizationEnergyMaintenance 53589.083911896
scalar OsgEarthNet.uav[52] utilizationEnergyCharge 175990.69970703
scalar OsgEarthNet.uav[52] utilizationEnergyOverdrawMission 0
scalar OsgEarthNet.uav[52] utilizationEnergyOverdrawMaintenance 0
scalar OsgEarthNet.uav[52] utilizationCountMissions 43
scalar OsgEarthNet.uav[52] utilizationCountManeuversMission 421
scalar OsgEarthNet.uav[52] utilizationCountManeuversMaintenance 86
scalar OsgEarthNet.uav[52] utilizationCountChargeState 43
scalar OsgEarthNet.uav[52] utilizationCountOverdrawnAfterMission 0
scalar OsgEarthNet.uav[52] utilizationCountIdleState 44
scalar OsgEarthNet.uav[52] utilizationFail 0
scalar OsgEarthNet.uav[52] simulationTime 259200
scalar OsgEarthNet.uav[53] utilizationSecMission 1948.0548384024
scalar OsgEarthNet.uav[53] utilizationSecMaintenance 1011.6384592043
scalar OsgEarthNet.uav[53] utilizationSecCharge 12130
scalar OsgEarthNet.uav[53] utilizationSecIdle 244110.30570239
scalar OsgEarthNet.uav[53] utilizationEnergyMission 9055.0238876343
scalar OsgEarthNet.uav[53] utilizationEnergyMaintenance 4802.1584320068
scalar OsgEarthNet.uav[53] utilizationEnergyCharge 13890.125488281
scalar OsgEarthNet.uav[53] utilizationEnergyOverdrawMission 0
scalar OsgEarthNet.uav[53] utilizationEnergyOverdrawMaintenance 0
scalar OsgEarthNet.uav[53] utilizationCountMissions 4
scalar OsgEarthNet.uav[53] utilizationCountManeuversMission 30
scalar OsgEarthNet.uav[53] utilizationCountManeuversMaintenance 8
scalar OsgEarthNet.uav[53] utilizationCountChargeState 4
scalar OsgEarthNet.uav[53] utilizationCountOverdrawnAfterMission 0
scalar OsgEarthNet.uav[53] utilizationCountIdleState 5
scalar OsgEarthNet.uav[53] utilizationFail 0
scalar OsgEarthNet.uav[53] simulationTime 259200
scalar OsgEarthNet.uav[54] utilizationSecMission 443.5870541303
scalar OsgEarthNet.uav[54] utilizationSecMaintenance 465.20364065929
scalar OsgEarthNet.uav[54] utilizationSecCharge 3430
scalar OsgEarthNet.uav[54] utilizationSecIdle 254861.20830521
scalar OsgEarthNet.uav[54] utilizationEnergyMission 1959.4159088135
scalar OsgEarthNet.uav[54] utilizationEnergyMaintenance 2191.1964836121
scalar OsgEarthNet.uav[54] utilizationEnergyCharge 4150.7490234375
scalar OsgEarthNet.uav[54] utilizationEnergyOverdrawMission 0
scalar OsgEarthNet.uav[54] utilizationEnergyOverdrawMaintenance 0
scalar OsgEarthNet.uav[54] utilizationCountMissions 1
scalar OsgEarthNet.uav[54] utilizationCountManeuversMission 7
scalar OsgEarthNet.uav[54] utilizationCountManeuversMaintenance 2
scalar OsgEarthNet.uav[54] utilizationCountChargeState 1
scalar OsgEarthNet.uav[54] utilizationCountOverdrawnAfterMission 0
scalar OsgEarthNet.uav[54] utilizationCountIdleState 2
scalar OsgEarthNet.uav[54] utilizationFail 0
scalar OsgEarthNet.uav[54] simulationTime 259200
scalar OsgEarthNet.uav[55] utilizationSecMission 26943.589093118
scalar OsgEarthNet.uav[55] utilizationSecMaintenance 11992.117732015
scalar OsgEarthNet.uav[55] utilizationSecCharge 145021.45763803
scalar OsgEarthNet.uav[55] utilizationSecIdle 75242.834536841
scalar OsgEarthNet.uav[55] utilizationEnergyMission 124268.66815948
scalar OsgEarthNet.uav[55] utilizationEnergyMaintenance 55776.584644318
scalar OsgEarthNet.uav[55] utilizationEnergyCharge 179459.32250977
scalar OsgEarthNet.uav[55] utilizationEnergyOverdrawMission 0
scalar OsgEarthNet.uav[55] utilizationEnergyOverdrawMaintenance 0
scalar OsgEarthNet.uav[55] utilizationCountMissions 42
scalar OsgEarthNet.uav[55] utilizationCountManeuversMission 443
scalar OsgEarthNet.uav[55] utilizationCountManeuversMaintenance 84
scalar OsgEarthNet.uav[55] utilizationCountChargeState 42
scalar OsgEarthNet.uav[55] utilizationCountOverdrawnAfterMission 0
scalar OsgEarthNet.uav[55] utilizationCountIdleState 42
scalar OsgEarthNet.uav[55] utilizationFail 0
scalar OsgEarthNet.uav[55] simulationTime 259200
scalar OsgEarthNet.uav[56] utilizationSecMission 750.20472747826
scalar OsgEarthNet.uav[56] utilizationSecMaintenance 261.68051383311
scalar OsgEarthNet.uav[56] utilizationSecCharge 3720
scalar OsgEarthNet.uav[56] utilizationSecIdle 254468.11375869
scalar OsgEarthNet.uav[56] utilizationEnergyMission 3465.0238342285
scalar OsgEarthNet.uav[56] utilizationEnergyMaintenance 1244.8824272156
scalar OsgEarthNet.uav[56] utilizationEnergyCharge 4709.9091796875
scalar OsgEarthNet.uav[56] utilizationEnergyOverdrawMission 0
scalar OsgEarthNet.uav[56] utilizationEnergyOverdrawMaintenance 0
scalar OsgEarthNet.uav[56] utilizationCountMissions 1
scalar OsgEarthNet.uav[56] utilizationCountManeuversMission 11
scalar OsgEarthNet.uav[56] utilizationCountManeuversMaintenance 2
scalar OsgEarthNet.uav[56] utilizationCountChargeState 1
scalar OsgEarthNet.uav[56] utilizationCountOverdrawnAfterMission 0
scalar OsgEarthNet.uav[56] utilizationCountIdleState 2
scalar OsgEarthNet.uav[56] utilizationFail 0
scalar OsgEarthNet.uav[56] simulationTime 259200
scalar OsgEarthNet.uav[57] utilizationSecMission 27966.413234891
scalar OsgEarthNet.uav[57] utilizationSecMaintenance 13698.915232115
scalar OsgEarthNet.uav[57] utilizationSecCharge 159629.633118
scalar OsgEarthNet.uav[57] utilizationSecIdle 57905.037414992
scalar OsgEarthNet.uav[57] utilizationEnergyMission 129075.93299866
scalar OsgEarthNet.uav[57] utilizationEnergyMaintenance 64490.755378723
scalar OsgEarthNet.uav[57] utilizationEnergyCharge 192870.82885742
scalar OsgEarthNet.uav[57] utilizationEnergyOverdrawMission 0
scalar OsgEarthNet.uav[57] utilizationEnergyOverdrawMaintenance 0
scalar OsgEarthNet.uav[57] utilizationCountMissions 48
scalar OsgEarthNet.uav[57] utilizationCountManeuversMission 456
scalar OsgEarthNet.uav[57] utilizationCountManeuversMaintenance 96
scalar OsgEarthNet.uav[57] utilizationCountChargeState 48
scalar OsgEarthNet.uav[57] utilizationCountOverdrawnAfterMission 0
scalar OsgEarthNet.uav[57] utilizationCountIdleState 48
scalar OsgEarthNet.uav[57] utilizationFail 0
scalar OsgEarthNet.uav[57] simulationTime 259200
scalar OsgEarthNet.uav[58] utilizationSecMission 31074.872649835
scalar OsgEarthNet.uav[58] utilizationSecMaintenance 10626.229975021
scalar OsgEarthNet.uav[58] utilizationSecCharge 157330
scalar OsgEarthNet.uav[58] utilizationSecIdle 60168.896375144
scalar OsgEarthNet.uav[58] utilizationEnergyMission 143825.1969221
scalar OsgEarthNet.uav[58] utilizationEnergyMaintenance 50676.2942276
scalar OsgEarthNet.uav[58] utilizationEnergyCharge 191848.91503906
scalar OsgEarthNet.uav[58] utilizationEnergyOverdrawMission 0
scalar OsgEarthNet.uav[58] utilizationEnergyOverdrawMaintenance 0
scalar OsgEarthNet.uav[58] utilizationCountMissions 46
scalar OsgEarthNet.uav[58] utilizationCountManeuversMission 480
scalar OsgEarthNet.uav[58] utilizationCountManeuversMaintenance 93
scalar OsgEarthNet.uav[58] utilizationCountChargeState 46
scalar OsgEarthNet.uav[58] utilizationCountOverdrawnAfterMission 0
scalar OsgEarthNet.uav[58] utilizationCountIdleState 47
scalar OsgEarthNet.uav[58] utilizationFail 0
scalar OsgEarthNet.uav[58] simulationTime 259200
scalar OsgEarthNet.uav[59] utilizationSecMission 760.62515258028
scalar OsgEarthNet.uav[59] utilizationSecMaintenance 245.74410321072
scalar OsgEarthNet.uav[59] utilizationSecCharge 3660
scalar OsgEarthNet.uav[59] utilizationSecIdle 254533.62974421
scalar OsgEarthNet.uav[59] utilizationEnergyMission 3511.4374389648
scalar OsgEarthNet.uav[59] utilizationEnergyMaintenance 1070.7629203796
scalar OsgEarthNet.uav[59] utilizationEnergyCharge 4582.2016601562
scalar OsgEarthNet.uav[59] utilizationEnergyOverdrawMission 0
scalar OsgEarthNet.uav[59] utilizationEnergyOverdrawMaintenance 0
scalar OsgEarthNet.uav[59] utilizationCountMissions 1
scalar OsgEarthNet.uav[59] utilizationCountManeuversMission 12
scalar OsgEarthNet.uav[59] utilizationCountManeuversMaintenance 2
scalar OsgEarthNet.uav[59] utilizationCountChargeState 1
scalar OsgEarthNet.uav[59] utilizationCountOverdrawnAfterMission 0
scalar OsgEarthNet.uav[59] utilizationCountIdleState 2
scalar OsgEarthNet.uav[59] utilizationFail 0
scalar OsgEarthNet.uav[59] simulationTime 259200
scalar OsgEarthNet.uav[60] utilizationSecMission 750.20472747826
scalar OsgEarthNet.uav[60] utilizationSecMaintenance 261.68051383311
scalar OsgEarthNet.uav[60] utilizationSecCharge 3630
scalar OsgEarthNet.uav[60] utilizationSecIdle 254558.11375869
scalar OsgEarthNet.uav[60] utilizationEnergyMission 3199.5594024658
scalar OsgEarthNet.uav[60] utilizationEnergyMaintenance 1283.2041435242
scalar OsgEarthNet.uav[60] utilizationEnergyCharge 4482.7646484375
scalar OsgEarthNet.uav[60] utilizationEnergyOverdrawMission 0
scalar OsgEarthNet.uav[60] utilizationEnergyOverdrawMaintenance 0
scalar OsgEarthNet.uav[60] utilizationCountMissions 1
scalar OsgEarthNet.uav[60] utilizationCountManeuversMission 11
scalar OsgEarthNet.uav[60] utilizationCountManeuversMaintenance 2
scalar OsgEarthNet.uav[60] utilizationCountChargeState 1
scalar OsgEarthNet.uav[60] utilizationCountOverdrawnAfterMission 0
scalar OsgEarthNet.uav[60] utilizationCountIdleState 2
scalar OsgEarthNet.uav[60] utilizationFail 0
scalar OsgEarthNet.uav[60] simulationTime 259200
scalar OsgEarthNet.uav[61] utilizationSecMission 28398.895760042
scalar OsgEarthNet.uav[61] utilizationSecMaintenance 13196.113799375
scalar OsgEarthNet.uav[61] utilizationSecCharge 162350.37755107
scalar OsgEarthNet.uav[61] utilizationSecIdle 55254.611889516
scalar OsgEarthNet.uav[61] utilizationEnergyMission 132683.81632996
scalar OsgEarthNet.uav[61] utilizationEnergyMaintenance 62751.261764526
scalar OsgEarthNet.uav[61] utilizationEnergyCharge 193588.60668945
scalar OsgEarthNet.uav[61] utilizationEnergyOverdrawMission 0
scalar OsgEarthNet.uav[61] utilizationEnergyOverdrawMaintenance 0
scalar OsgEarthNet.uav[61] utilizationCountMissions 51
scalar OsgEarthNet.uav[61] utilizationCountManeuversMission 458
scalar OsgEarthNet.uav[61] utilizationCountManeuversMaintenance 102
scalar OsgEarthNet.uav[61] utilizationCountChargeState 51
scalar OsgEarthNet.uav[61] utilizationCountOverdrawnAfterMission 0
scalar OsgEarthNet.uav[61] utilizationCountIdleState 51
scalar OsgEarthNet.uav[61] utilizationFail 0
scalar OsgEarthNet.uav[61] simulationTime 259200
scalar OsgEarthNet.uav[62] utilizationSecMission 694.00169469977
scalar OsgEarthNet.uav[62] utilizationSecMaintenance 223.34597234416
scalar OsgEarthNet.uav[62] utilizationSecCharge 3600
scalar OsgEarthNet.uav[62] utilizationSecIdle 254682.65133296
scalar OsgEarthNet.uav[62] utilizationEnergyMission 3456.3600540161
scalar OsgEarthNet.uav[62] utilizationEnergyMaintenance 1055.7380485535
scalar OsgEarthNet.uav[62] utilizationEnergyCharge 4458.1806640625
scalar OsgEarthNet.uav[62] utilizationEnergyOverdrawMission 0
scalar OsgEarthNet.uav[62] utilizationEnergyOverdrawMaintenance 0
scalar OsgEarthNet.uav[62] utilizationCountMissions 1
scalar OsgEarthNet.uav[62] utilizationCountManeuversMission 13
scalar OsgEarthNet.uav[62] utilizationCountManeuversMaintenance 2
scalar OsgEarthNet.uav[62] utilizationCountChargeState 1
scalar OsgEarthNet.uav[62] utilizationCountOverdrawnAfterMission 0
scalar OsgEarthNet.uav[62] utilizationCountIdleState 2
scalar OsgEarthNet.uav[62] utilizationFail 0
scalar OsgEarthNet.uav[62] simulationTime 259200
scalar OsgEarthNet.uav[63] utilizationSecMission 760.62515258028
scalar OsgEarthNet.uav[63] utilizationSecMaintenance 245.74410321072
scalar OsgEarthNet.uav[63] utilizationSecCharge 3650
scalar OsgEarthNet.uav[63] utilizationSecIdle 254543.62974421
scalar OsgEarthNet.uav[63] utilizationEnergyMission 3405.2223205566
scalar OsgEarthNet.uav[63] utilizationEnergyMaintenance 1104.773021698
scalar OsgEarthNet.uav[63] utilizationEnergyCharge 4509.9897460938
scalar OsgEarthNet.uav[63] utilizationEnergyOverdrawMission 0
scalar OsgEarthNet.uav[63] utilizationEnergyOverdrawMaintenance 0
scalar OsgEarthNet.uav[63] utilizationCountMissions 1
scalar OsgEarthNet.uav[63] utilizationCountManeuversMission 12
scalar OsgEarthNet.uav[63] utilizationCountManeuversMaintenance 2
scalar OsgEarthNet.uav[63] utilizationCountChargeState 1
scalar OsgEarthNet.uav[63] utilizationCountOverdrawnAfterMission 0
scalar OsgEarthNet.uav[63] utilizationCountIdleState 2
scalar OsgEarthNet.uav[63] utilizationFail 0
scalar OsgEarthNet.uav[63] simulationTime 259200
scalar OsgEarthNet.uav[64] utilizationSecMission 25819.923350516
scalar OsgEarthNet.uav[64] utilizationSecMaintenance 12906.407471496
scalar OsgEarthNet.uav[64] utilizationSecCharge 147840
scalar OsgEarthNet.uav[64] utilizationSecIdle 72633.668177988
scalar OsgEarthNet.uav[64] utilizationEnergyMission 120007.97342485
scalar OsgEarthNet.uav[64] utilizationEnergyMaintenance 60888.339130402
scalar OsgEarthNet.uav[64] utilizationEnergyCharge 177349.96728516
scalar OsgEarthNet.uav[64] utilizationEnergyOverdrawMission 0
scalar OsgEarthNet.uav[64] utilizationEnergyOverdrawMaintenance 0
scalar OsgEarthNet.uav[64] utilizationCountMissions 45
scalar OsgEarthNet.uav[64] utilizationCountManeuversMission 437
scalar OsgEarthNet.uav[64] utilizationCountManeuversMaintenance 91
scalar OsgEarthNet.uav[64] utilizationCountChargeState 45
scalar OsgEarthNet.uav[64] utilizationCountOverdrawnAfterMission 0
scalar OsgEarthNet.uav[64] utilizationCountIdleState 46
scalar OsgEarthNet.uav[64] utilizationFail 0
scalar OsgEarthNet.uav[64] simulationTime 259200
scalar OsgEarthNet.uav[65] utilizationSecMission 5809.3448463474
scalar OsgEarthNet.uav[65] utilizationSecMaintenance 2693.0142199779
scalar OsgEarthNet.uav[65] utilizationSecCharge 33270
scalar OsgEarthNet.uav[65] utilizationSecIdle 217427.63993367
[...]
scalar OsgEarthNet.uav[82] utilizationSecIdle 254762.65133296
scalar OsgEarthNet.uav[82] utilizationEnergyMission 3363.1691818237
scalar OsgEarthNet.uav[82] utilizationEnergyMaintenance 915.04142379761
scalar OsgEarthNet.uav[82] utilizationEnergyCharge 4311.9638671875
scalar OsgEarthNet.uav[82] utilizationEnergyOverdrawMission 0
scalar OsgEarthNet.uav[82] utilizationEnergyOverdrawMaintenance 0
scalar OsgEarthNet.uav[82] utilizationCountMissions 1
scalar OsgEarthNet.uav[82] utilizationCountManeuversMission 13
scalar OsgEarthNet.uav[82] utilizationCountManeuversMaintenance 2
scalar OsgEarthNet.uav[82] utilizationCountChargeState 1
scalar OsgEarthNet.uav[82] utilizationCountOverdrawnAfterMission 0
scalar OsgEarthNet.uav[82] utilizationCountIdleState 2
scalar OsgEarthNet.uav[82] utilizationFail 0
scalar OsgEarthNet.uav[82] simulationTime 259200
scalar OsgEarthNet.uav[83] utilizationSecMission 760.62515258028
scalar OsgEarthNet.uav[83] utilizationSecMaintenance 245.74410321072
scalar OsgEarthNet.uav[83] utilizationSecCharge 3860
scalar OsgEarthNet.uav[83] utilizationSecIdle 254333.62974421
scalar OsgEarthNet.uav[83] utilizationEnergyMission 3623.12059021
scalar OsgEarthNet.uav[83] utilizationEnergyMaintenance 1257.0117607117
scalar OsgEarthNet.uav[83] utilizationEnergyCharge 4880.134765625
scalar OsgEarthNet.uav[83] utilizationEnergyOverdrawMission 0
scalar OsgEarthNet.uav[83] utilizationEnergyOverdrawMaintenance 0
scalar OsgEarthNet.uav[83] utilizationCountMissions 1
scalar OsgEarthNet.uav[83] utilizationCountManeuversMission 12
scalar OsgEarthNet.uav[83] utilizationCountManeuversMaintenance 2
scalar OsgEarthNet.uav[83] utilizationCountChargeState 1
scalar OsgEarthNet.uav[83] utilizationCountOverdrawnAfterMission 0
scalar OsgEarthNet.uav[83] utilizationCountIdleState 2
scalar OsgEarthNet.uav[83] utilizationFail 0
scalar OsgEarthNet.uav[83] simulationTime 259200
scalar OsgEarthNet.uav[84] utilizationSecMission 26548.966583262
scalar OsgEarthNet.uav[84] utilizationSecMaintenance 11641.012142593
scalar OsgEarthNet.uav[84] utilizationSecCharge 145810
scalar OsgEarthNet.uav[84] utilizationSecIdle 75200.020274145
scalar OsgEarthNet.uav[84] utilizationEnergyMission 123204.14073944
scalar OsgEarthNet.uav[84] utilizationEnergyMaintenance 54651.78364797
scalar OsgEarthNet.uav[84] utilizationEnergyCharge 177214.59692383
scalar OsgEarthNet.uav[84] utilizationEnergyOverdrawMission 0
scalar OsgEarthNet.uav[84] utilizationEnergyOverdrawMaintenance 0
scalar OsgEarthNet.uav[84] utilizationCountMissions 43
scalar OsgEarthNet.uav[84] utilizationCountManeuversMission 452
scalar OsgEarthNet.uav[84] utilizationCountManeuversMaintenance 87
scalar OsgEarthNet.uav[84] utilizationCountChargeState 43
scalar OsgEarthNet.uav[84] utilizationCountOverdrawnAfterMission 0
scalar OsgEarthNet.uav[84] utilizationCountIdleState 44
scalar OsgEarthNet.uav[84] utilizationFail 0
scalar OsgEarthNet.uav[84] simulationTime 259200
scalar OsgEarthNet.uav[85] utilizationSecMission 25885.476487055
scalar OsgEarthNet.uav[85] utilizationSecMaintenance 12552.873956293
scalar OsgEarthNet.uav[85] utilizationSecCharge 147368.74948361
scalar OsgEarthNet.uav[85] utilizationSecIdle 73392.899073046
scalar OsgEarthNet.uav[85] utilizationEnergyMission 120142.73451996
scalar OsgEarthNet.uav[85] utilizationEnergyMaintenance 59589.889774323
scalar OsgEarthNet.uav[85] utilizationEnergyCharge 179337.90454102
scalar OsgEarthNet.uav[85] utilizationEnergyOverdrawMission 0
scalar OsgEarthNet.uav[85] utilizationEnergyOverdrawMaintenance 0
scalar OsgEarthNet.uav[85] utilizationCountMissions 44
scalar OsgEarthNet.uav[85] utilizationCountManeuversMission 416
scalar OsgEarthNet.uav[85] utilizationCountManeuversMaintenance 88
scalar OsgEarthNet.uav[85] utilizationCountChargeState 44
scalar OsgEarthNet.uav[85] utilizationCountOverdrawnAfterMission 0
scalar OsgEarthNet.uav[85] utilizationCountIdleState 44
scalar OsgEarthNet.uav[85] utilizationFail 0
scalar OsgEarthNet.uav[85] simulationTime 259200
scalar OsgEarthNet.uav[86] utilizationSecMission 21321.566407492
scalar OsgEarthNet.uav[86] utilizationSecMaintenance 10656.741948959
scalar OsgEarthNet.uav[86] utilizationSecCharge 122820
scalar OsgEarthNet.uav[86] utilizationSecIdle 104401.69064355
scalar OsgEarthNet.uav[86] utilizationEnergyMission 97847.747001648
scalar OsgEarthNet.uav[86] utilizationEnergyMaintenance 50279.657596588
scalar OsgEarthNet.uav[86] utilizationEnergyCharge 147980.61499023
scalar OsgEarthNet.uav[86] utilizationEnergyOverdrawMission 0
scalar OsgEarthNet.uav[86] utilizationEnergyOverdrawMaintenance 0
scalar OsgEarthNet.uav[86] utilizationCountMissions 37
scalar OsgEarthNet.uav[86] utilizationCountManeuversMission 359
scalar OsgEarthNet.uav[86] utilizationCountManeuversMaintenance 74
scalar OsgEarthNet.uav[86] utilizationCountChargeState 37
scalar OsgEarthNet.uav[86] utilizationCountOverdrawnAfterMission 0
scalar OsgEarthNet.uav[86] utilizationCountIdleState 38
scalar OsgEarthNet.uav[86] utilizationFail 0
scalar OsgEarthNet.uav[86] simulationTime 259200
scalar OsgEarthNet.uav[87] utilizationSecMission 213.40226662093
scalar OsgEarthNet.uav[87] utilizationSecMaintenance 292.41944606525
scalar OsgEarthNet.uav[87] utilizationSecCharge 2440
scalar OsgEarthNet.uav[87] utilizationSecIdle 256254.17728731
scalar OsgEarthNet.uav[87] utilizationEnergyMission 1050.5724182129
scalar OsgEarthNet.uav[87] utilizationEnergyMaintenance 1400.4632797241
scalar OsgEarthNet.uav[87] utilizationEnergyCharge 2451.0361328125
scalar OsgEarthNet.uav[87] utilizationEnergyOverdrawMission 0
scalar OsgEarthNet.uav[87] utilizationEnergyOverdrawMaintenance 0
scalar OsgEarthNet.uav[87] utilizationCountMissions 1
scalar OsgEarthNet.uav[87] utilizationCountManeuversMission 3
scalar OsgEarthNet.uav[87] utilizationCountManeuversMaintenance 2
scalar OsgEarthNet.uav[87] utilizationCountChargeState 1
scalar OsgEarthNet.uav[87] utilizationCountOverdrawnAfterMission 0
scalar OsgEarthNet.uav[87] utilizationCountIdleState 2
scalar OsgEarthNet.uav[87] utilizationFail 0
scalar OsgEarthNet.uav[87] simulationTime 259200
scalar OsgEarthNet.uav[88] utilizationSecMission 887.1741082606
scalar OsgEarthNet.uav[88] utilizationSecMaintenance 125.81102573108
scalar OsgEarthNet.uav[88] utilizationSecCharge 3530
scalar OsgEarthNet.uav[88] utilizationSecIdle 254657.01386601
scalar OsgEarthNet.uav[88] utilizationEnergyMission 3732.7359924316
scalar OsgEarthNet.uav[88] utilizationEnergyMaintenance 600.4790725708
scalar OsgEarthNet.uav[88] utilizationEnergyCharge 4348.3129882812
scalar OsgEarthNet.uav[88] utilizationEnergyOverdrawMission 0
scalar OsgEarthNet.uav[88] utilizationEnergyOverdrawMaintenance 0
scalar OsgEarthNet.uav[88] utilizationCountMissions 1
scalar OsgEarthNet.uav[88] utilizationCountManeuversMission 14
scalar OsgEarthNet.uav[88] utilizationCountManeuversMaintenance 2
scalar OsgEarthNet.uav[88] utilizationCountChargeState 1
scalar OsgEarthNet.uav[88] utilizationCountOverdrawnAfterMission 0
scalar OsgEarthNet.uav[88] utilizationCountIdleState 2
scalar OsgEarthNet.uav[88] utilizationFail 0
scalar OsgEarthNet.uav[88] simulationTime 259200
scalar OsgEarthNet.uav[89] utilizationSecMission 10448.708996566
scalar OsgEarthNet.uav[89] utilizationSecMaintenance 5083.6345498099
scalar OsgEarthNet.uav[89] utilizationSecCharge 58620
scalar OsgEarthNet.uav[89] utilizationSecIdle 185047.65545362
scalar OsgEarthNet.uav[89] utilizationEnergyMission 47967.296188354
scalar OsgEarthNet.uav[89] utilizationEnergyMaintenance 23718.24741745
scalar OsgEarthNet.uav[89] utilizationEnergyCharge 71791.470703125
scalar OsgEarthNet.uav[89] utilizationEnergyOverdrawMission 0
scalar OsgEarthNet.uav[89] utilizationEnergyOverdrawMaintenance 0
scalar OsgEarthNet.uav[89] utilizationCountMissions 17
scalar OsgEarthNet.uav[89] utilizationCountManeuversMission 174
scalar OsgEarthNet.uav[89] utilizationCountManeuversMaintenance 34
scalar OsgEarthNet.uav[89] utilizationCountChargeState 17
scalar OsgEarthNet.uav[89] utilizationCountOverdrawnAfterMission 0
scalar OsgEarthNet.uav[89] utilizationCountIdleState 18
scalar OsgEarthNet.uav[89] utilizationFail 0
scalar OsgEarthNet.uav[89] simulationTime 259200
scalar OsgEarthNet.uav[90] utilizationSecMission 750.20472747826
scalar OsgEarthNet.uav[90] utilizationSecMaintenance 261.68051383311
scalar OsgEarthNet.uav[90] utilizationSecCharge 3650
scalar OsgEarthNet.uav[90] utilizationSecIdle 254538.11375869
scalar OsgEarthNet.uav[90] utilizationEnergyMission 3331.7769317627
scalar OsgEarthNet.uav[90] utilizationEnergyMaintenance 1233.3139457703
scalar OsgEarthNet.uav[90] utilizationEnergyCharge 4565.087890625
scalar OsgEarthNet.uav[90] utilizationEnergyOverdrawMission 0
scalar OsgEarthNet.uav[90] utilizationEnergyOverdrawMaintenance 0
scalar OsgEarthNet.uav[90] utilizationCountMissions 1
scalar OsgEarthNet.uav[90] utilizationCountManeuversMission 11
scalar OsgEarthNet.uav[90] utilizationCountManeuversMaintenance 2
scalar OsgEarthNet.uav[90] utilizationCountChargeState 1
scalar OsgEarthNet.uav[90] utilizationCountOverdrawnAfterMission 0
scalar OsgEarthNet.uav[90] utilizationCountIdleState 2
scalar OsgEarthNet.uav[90] utilizationFail 0
scalar OsgEarthNet.uav[90] simulationTime 259200
scalar OsgEarthNet.uav[91] utilizationSecMission 30546.47253589
scalar OsgEarthNet.uav[91] utilizationSecMaintenance 12398.560608197
scalar OsgEarthNet.uav[91] utilizationSecCharge 162549.72915818
scalar OsgEarthNet.uav[91] utilizationSecIdle 53705.236697737
scalar OsgEarthNet.uav[91] utilizationEnergyMission 138447.37508011
scalar OsgEarthNet.uav[91] utilizationEnergyMaintenance 58436.425731659
scalar OsgEarthNet.uav[91] utilizationEnergyCharge 198770.14599609
scalar OsgEarthNet.uav[91] utilizationEnergyOverdrawMission 0
scalar OsgEarthNet.uav[91] utilizationEnergyOverdrawMaintenance 0
scalar OsgEarthNet.uav[91] utilizationCountMissions 48
scalar OsgEarthNet.uav[91] utilizationCountManeuversMission 495
scalar OsgEarthNet.uav[91] utilizationCountManeuversMaintenance 96
scalar OsgEarthNet.uav[91] utilizationCountChargeState 48
scalar OsgEarthNet.uav[91] utilizationCountOverdrawnAfterMission 0
scalar OsgEarthNet.uav[91] utilizationCountIdleState 48
scalar OsgEarthNet.uav[91] utilizationFail 0
scalar OsgEarthNet.uav[91] simulationTime 259200
scalar OsgEarthNet.uav[92] utilizationSecMission 28398.76896244
scalar OsgEarthNet.uav[92] utilizationSecMaintenance 12995.193938791
scalar OsgEarthNet.uav[92] utilizationSecCharge 156950
scalar OsgEarthNet.uav[92] utilizationSecIdle 60856.036098769
scalar OsgEarthNet.uav[92] utilizationEnergyMission 132074.5230327
scalar OsgEarthNet.uav[92] utilizationEnergyMaintenance 61448.402576447
scalar OsgEarthNet.uav[92] utilizationEnergyCharge 191204.64599609
scalar OsgEarthNet.uav[92] utilizationEnergyOverdrawMission 0
scalar OsgEarthNet.uav[92] utilizationEnergyOverdrawMaintenance 0
scalar OsgEarthNet.uav[92] utilizationCountMissions 46
scalar OsgEarthNet.uav[92] utilizationCountManeuversMission 448
scalar OsgEarthNet.uav[92] utilizationCountManeuversMaintenance 93
scalar OsgEarthNet.uav[92] utilizationCountChargeState 46
scalar OsgEarthNet.uav[92] utilizationCountOverdrawnAfterMission 0
scalar OsgEarthNet.uav[92] utilizationCountIdleState 47
scalar OsgEarthNet.uav[92] utilizationFail 0
scalar OsgEarthNet.uav[92] simulationTime 259200
scalar OsgEarthNet.uav[93] utilizationSecMission 760.62515258028
scalar OsgEarthNet.uav[93] utilizationSecMaintenance 245.74410321072
scalar OsgEarthNet.uav[93] utilizationSecCharge 3780
scalar OsgEarthNet.uav[93] utilizationSecIdle 254413.62974421
scalar OsgEarthNet.uav[93] utilizationEnergyMission 3609.6357879639
scalar OsgEarthNet.uav[93] utilizationEnergyMaintenance 1177.3723564148
scalar OsgEarthNet.uav[93] utilizationEnergyCharge 4787.009765625
scalar OsgEarthNet.uav[93] utilizationEnergyOverdrawMission 0
scalar OsgEarthNet.uav[93] utilizationEnergyOverdrawMaintenance 0
scalar OsgEarthNet.uav[93] utilizationCountMissions 1
scalar OsgEarthNet.uav[93] utilizationCountManeuversMission 12
scalar OsgEarthNet.uav[93] utilizationCountManeuversMaintenance 2
scalar OsgEarthNet.uav[93] utilizationCountChargeState 1
scalar OsgEarthNet.uav[93] utilizationCountOverdrawnAfterMission 0
scalar OsgEarthNet.uav[93] utilizationCountIdleState 2
scalar OsgEarthNet.uav[93] utilizationFail 0
scalar OsgEarthNet.uav[93] simulationTime 259200
scalar OsgEarthNet.uav[94] utilizationSecMission 2979.2572270001
scalar OsgEarthNet.uav[94] utilizationSecMaintenance 1893.579332593
scalar OsgEarthNet.uav[94] utilizationSecCharge 18113.172080999
scalar OsgEarthNet.uav[94] utilizationSecIdle 236213.99035941
scalar OsgEarthNet.uav[94] utilizationEnergyMission 13504.987663269
scalar OsgEarthNet.uav[94] utilizationEnergyMaintenance 9108.4014892578
scalar OsgEarthNet.uav[94] utilizationEnergyCharge 20798.563964844
scalar OsgEarthNet.uav[94] utilizationEnergyOverdrawMission 0
scalar OsgEarthNet.uav[94] utilizationEnergyOverdrawMaintenance 0
scalar OsgEarthNet.uav[94] utilizationCountMissions 7
scalar OsgEarthNet.uav[94] utilizationCountManeuversMission 50
scalar OsgEarthNet.uav[94] utilizationCountManeuversMaintenance 14
scalar OsgEarthNet.uav[94] utilizationCountChargeState 7
scalar OsgEarthNet.uav[94] utilizationCountOverdrawnAfterMission 0
scalar OsgEarthNet.uav[94] utilizationCountIdleState 7
scalar OsgEarthNet.uav[94] utilizationFail 0
scalar OsgEarthNet.uav[94] simulationTime 259200
scalar OsgEarthNet.uav[95] utilizationSecMission 20251.549159262
scalar OsgEarthNet.uav[95] utilizationSecMaintenance 9870.1419885165
scalar OsgEarthNet.uav[95] utilizationSecCharge 115371.24108385
scalar OsgEarthNet.uav[95] utilizationSecIdle 113707.06676837
scalar OsgEarthNet.uav[95] utilizationEnergyMission 93835.911132812
scalar OsgEarthNet.uav[95] utilizationEnergyMaintenance 47247.82995224
scalar OsgEarthNet.uav[95] utilizationEnergyCharge 138538.09960938
scalar OsgEarthNet.uav[95] utilizationEnergyOverdrawMission 0
scalar OsgEarthNet.uav[95] utilizationEnergyOverdrawMaintenance 0
scalar OsgEarthNet.uav[95] utilizationCountMissions 36
scalar OsgEarthNet.uav[95] utilizationCountManeuversMission 329
scalar OsgEarthNet.uav[95] utilizationCountManeuversMaintenance 72
scalar OsgEarthNet.uav[95] utilizationCountChargeState 36
scalar OsgEarthNet.uav[95] utilizationCountOverdrawnAfterMission 0
scalar OsgEarthNet.uav[95] utilizationCountIdleState 36
scalar OsgEarthNet.uav[95] utilizationFail 0
scalar OsgEarthNet.uav[95] simulationTime 259200
scalar OsgEarthNet.uav[96] utilizationSecMission 2233.6367021319
scalar OsgEarthNet.uav[96] utilizationSecMaintenance 764.87617981463
scalar OsgEarthNet.uav[96] utilizationSecCharge 7536.1078412175
scalar OsgEarthNet.uav[96] utilizationSecIdle 248665.37827684
scalar OsgEarthNet.uav[96] utilizationEnergyMission 10493.438232422
scalar OsgEarthNet.uav[96] utilizationEnergyMaintenance 3425.2260780335
scalar OsgEarthNet.uav[96] utilizationEnergyCharge 9490.0647583008
scalar OsgEarthNet.uav[96] utilizationEnergyOverdrawMission 0
scalar OsgEarthNet.uav[96] utilizationEnergyOverdrawMaintenance 0
scalar OsgEarthNet.uav[96] utilizationCountMissions 3
scalar OsgEarthNet.uav[96] utilizationCountManeuversMission 34
scalar OsgEarthNet.uav[96] utilizationCountManeuversMaintenance 6
scalar OsgEarthNet.uav[96] utilizationCountChargeState 3
scalar OsgEarthNet.uav[96] utilizationCountOverdrawnAfterMission 0
scalar OsgEarthNet.uav[96] utilizationCountIdleState 3
scalar OsgEarthNet.uav[96] utilizationFail 0
scalar OsgEarthNet.uav[96] simulationTime 259200
scalar OsgEarthNet.uav[97] utilizationSecMission 27357.530583505
scalar OsgEarthNet.uav[97] utilizationSecMaintenance 13215.869762423
scalar OsgEarthNet.uav[97] utilizationSecCharge 154969.28257224
scalar OsgEarthNet.uav[97] utilizationSecIdle 63657.316081831
scalar OsgEarthNet.uav[97] utilizationEnergyMission 125889.10368347
scalar OsgEarthNet.uav[97] utilizationEnergyMaintenance 62695.194129944
scalar OsgEarthNet.uav[97] utilizationEnergyCharge 185990.61962891
scalar OsgEarthNet.uav[97] utilizationEnergyOverdrawMission 0
scalar OsgEarthNet.uav[97] utilizationEnergyOverdrawMaintenance 0
scalar OsgEarthNet.uav[97] utilizationCountMissions 48
scalar OsgEarthNet.uav[97] utilizationCountManeuversMission 459
scalar OsgEarthNet.uav[97] utilizationCountManeuversMaintenance 96
scalar OsgEarthNet.uav[97] utilizationCountChargeState 48
scalar OsgEarthNet.uav[97] utilizationCountOverdrawnAfterMission 0
scalar OsgEarthNet.uav[97] utilizationCountIdleState 48
scalar OsgEarthNet.uav[97] utilizationFail 0
scalar OsgEarthNet.uav[97] simulationTime 259200
scalar OsgEarthNet.uav[98] utilizationSecMission 3129.0492296108
scalar OsgEarthNet.uav[98] utilizationSecMaintenance 1464.6358620927
scalar OsgEarthNet.uav[98] utilizationSecCharge 13734.778952538
scalar OsgEarthNet.uav[98] utilizationSecIdle 240871.53495576
scalar OsgEarthNet.uav[98] utilizationEnergyMission 14697.149238586
scalar OsgEarthNet.uav[98] utilizationEnergyMaintenance 6473.0837173462
scalar OsgEarthNet.uav[98] utilizationEnergyCharge 16633.70916748
scalar OsgEarthNet.uav[98] utilizationEnergyOverdrawMission 0
scalar OsgEarthNet.uav[98] utilizationEnergyOverdrawMaintenance 0
scalar OsgEarthNet.uav[98] utilizationCountMissions 5
scalar OsgEarthNet.uav[98] utilizationCountManeuversMission 51
scalar OsgEarthNet.uav[98] utilizationCountManeuversMaintenance 10
scalar OsgEarthNet.uav[98] utilizationCountChargeState 5
scalar OsgEarthNet.uav[98] utilizationCountOverdrawnAfterMission 0
scalar OsgEarthNet.uav[98] utilizationCountIdleState 5
scalar OsgEarthNet.uav[98] utilizationFail 0
scalar OsgEarthNet.uav[98] simulationTime 259200
scalar OsgEarthNet.uav[99] utilizationSecMission 5960.1979866449
scalar OsgEarthNet.uav[99] utilizationSecMaintenance 4160.5809921017
scalar OsgEarthNet.uav[99] utilizationSecCharge 35262.187557808
scalar OsgEarthNet.uav[99] utilizationSecIdle 213817.03246345
scalar OsgEarthNet.uav[99] utilizationEnergyMission 28037.156044006
scalar OsgEarthNet.uav[99] utilizationEnergyMaintenance 18897.202312469
scalar OsgEarthNet.uav[99] utilizationEnergyCharge 43552.827636719
scalar OsgEarthNet.uav[99] utilizationEnergyOverdrawMission 0
scalar OsgEarthNet.uav[99] utilizationEnergyOverdrawMaintenance 0
scalar OsgEarthNet.uav[99] utilizationCountMissions 11
scalar OsgEarthNet.uav[99] utilizationCountManeuversMission 99
scalar OsgEarthNet.uav[99] utilizationCountManeuversMaintenance 22
scalar OsgEarthNet.uav[99] utilizationCountChargeState 11
scalar OsgEarthNet.uav[99] utilizationCountOverdrawnAfterMission 0
scalar OsgEarthNet.uav[99] utilizationCountIdleState 11
scalar OsgEarthNet.uav[99] utilizationFail 0
scalar OsgEarthNet.uav[99] simulationTime 259200
scalar OsgEarthNet.cs[0] usedPower 0
scalar OsgEarthNet.cs[0] chargedPower 0
scalar OsgEarthNet.cs[0] chargedMobileNodes 0
scalar OsgEarthNet.cs[0] reservations 0
scalar OsgEarthNet.cs[1] usedPower 828564.11766912
scalar OsgEarthNet.cs[1] chargedPower 828564.11766912
scalar OsgEarthNet.cs[1] chargedMobileNodes 295
scalar OsgEarthNet.cs[1] reservations 298
scalar OsgEarthNet.cs[2] usedPower 2565321.9282679
scalar OsgEarthNet.cs[2] chargedPower 2565321.9282679
scalar OsgEarthNet.cs[2] chargedMobileNodes 608
scalar OsgEarthNet.cs[2] reservations 615
scalar OsgEarthNet.cs[3] usedPower 1048959.3531736
scalar OsgEarthNet.cs[3] chargedPower 1048959.3531736
scalar OsgEarthNet.cs[3] chargedMobileNodes 239
scalar OsgEarthNet.cs[3] reservations 243
scalar OsgEarthNet.cs[4] usedPower 1102603.8683121
scalar OsgEarthNet.cs[4] chargedPower 1102603.8683121
scalar OsgEarthNet.cs[4] chargedMobileNodes 247
scalar OsgEarthNet.cs[4] reservations 249
scalar OsgEarthNet.cs[5] usedPower 889252.97539885
scalar OsgEarthNet.cs[5] chargedPower 889252.97539885
scalar OsgEarthNet.cs[5] chargedMobileNodes 202
scalar OsgEarthNet.cs[5] reservations 204
scalar OsgEarthNet.cs[6] usedPower 2175421.6845973
scalar OsgEarthNet.cs[6] chargedPower 2175421.6845973
scalar OsgEarthNet.cs[6] chargedMobileNodes 528
scalar OsgEarthNet.cs[6] reservations 537

