version 2
run Szenario_Hotel_Gabelbach-1-20180710-00:38:57-35256
attr configname Szenario_Hotel_Gabelbach
attr datetime 20180710-00:38:57
attr experiment Szenario_Hotel_Gabelbach
attr inifile omnetpp.ini
attr iterationvars "$replM=2, $biWeight=0.35"
attr iterationvarsf replM=2,biWeight=0.35-
attr measurement "$replM=2, $biWeight=0.35"
attr network OsgEarthNet
attr processid 35256
attr repetition 1
attr replication #1
attr resultdir results
attr runnumber 1
attr seedset 1
itervar biWeight 0.35
itervar replM 2
param *.osgEarthScene.scene "\"Szenario_Hotel_Gabelbach.earth\""
param *.playgroundLatitude 50.6830269
param *.playgroundLongitude 10.8538055
param *.playgroundWidth 3500m
param *.playgroundHeight 3500m
param *.numUAVs 100
param *.cs[0].posX 3537m
param *.cs[0].posY 965m
param *.cs[0].posZ 538m
param *.cs[1].posX 312m
param *.cs[1].posY 1262m
param *.cs[1].posZ 539m
param *.cs[2].posX 2185m
param *.cs[2].posY 3026m
param *.cs[2].posZ 777m
param *.cs[3].posX 10m
param *.cs[3].posY 2200m
param *.cs[3].posZ 560m
param *.cs[4].posX 750m
param *.cs[4].posY 200m
param *.cs[4].posZ 540m
param *.cs[5].posX 2450m
param *.cs[5].posY 180m
param *.cs[5].posZ 524m
param *.cs[6].posX 3140m
param *.cs[6].posY 1790m
param *.cs[6].posZ 606m
param *.numCSs 7
param *.uav[*].replacementMethod 2
param *.uav[*].weightedSumWeight 0.35
param *.*.timeStep 10s
param *.uav[*].commandPreviewCommandCount 20
param *.missionControl.missionFiles "\"missions\\\\Szenario_WB_Hotel_Gabelbach_Mission_Hotel.waypoints,missions\\\\Szenario_WB_Hotel_Gabelbach_Mission_Kickelhahn.waypoints,missions\\\\Szenario_WB_Hotel_Gabelbach_Mission_Ilmenau_Sportplatz.waypoints,missions\\\\Szenario_WB_Hotel_Gabelbach_Mission_Manebach_Mitte.waypoints,missions\\\\Szenario_WB_Hotel_Gabelbach_Mission_Manebach_Sued.waypoints\""
param *.missionControl.missionFiles "\"missions\\\\Szenario_WB_Hotel_Gabelbach_Mission_Hotel.waypoints,missions\\\\Szenario_WB_Hotel_Gabelbach_Mission_Kickelhahn.waypoints,missions\\\\Szenario_WB_Hotel_Gabelbach_Mission_Ilmenau_Sportplatz.waypoints,missions\\\\Szenario_WB_Hotel_Gabelbach_Mission_Manebach_Mitte.waypoints,missions\\\\Szenario_WB_Hotel_Gabelbach_Mission_Manebach_Sued.waypoints,missions\\\\Szenario_WB_Hotel_Gabelbach_Hover_HoheSchlaufe.waypoints,missions\\\\Szenario_WB_Hotel_Gabelbach_Hover_Kickelhahn.waypoints,missions\\\\Szenario_WB_Hotel_Gabelbach_Hover_Gabelbachskopf.waypoints,missions\\\\Szenario_WB_Hotel_Gabelbach_Hover_Dachskopf.waypoints\""
param *.uav[0].startX 3537m
param *.uav[0].startY 965m
param *.uav[0].startZ 539m
param *.uav[1].startX 312m
param *.uav[1].startY 1262m
param *.uav[1].startZ 540m
param *.uav[2].startX 2185m
param *.uav[2].startY 3026m
param *.uav[2].startZ 778m
param *.uav[3].startX 3537m
param *.uav[3].startY 965m
param *.uav[3].startZ 539m
param *.uav[4].startX 312m
param *.uav[4].startY 1262m
param *.uav[4].startZ 540m
param *.uav[5].startX 2185m
param *.uav[5].startY 3026m
param *.uav[5].startZ 778m
param *.uav[6].startX 3537m
param *.uav[6].startY 965m
param *.uav[6].startZ 539m
param *.uav[7].startX 312m
param *.uav[7].startY 1262m
param *.uav[7].startZ 540m
param *.uav[8].startX 2185m
param *.uav[8].startY 3026m
param *.uav[8].startZ 778m
param *.uav[9].startX 3537m
param *.uav[9].startY 965m
param *.uav[9].startZ 539m
param *.uav[10].startX 3537m
param *.uav[10].startY 965m
param *.uav[10].startZ 539m
param *.uav[11].startX 312m
param *.uav[11].startY 1262m
param *.uav[11].startZ 540m
param *.uav[12].startX 2185m
param *.uav[12].startY 3026m
param *.uav[12].startZ 778m
param *.uav[13].startX 3537m
param *.uav[13].startY 965m
param *.uav[13].startZ 539m
param *.uav[14].startX 312m
param *.uav[14].startY 1262m
param *.uav[14].startZ 540m
param *.uav[15].startX 2185m
param *.uav[15].startY 3026m
param *.uav[15].startZ 778m
param *.uav[16].startX 3537m
param *.uav[16].startY 965m
param *.uav[16].startZ 539m
param *.uav[17].startX 312m
param *.uav[17].startY 1262m
param *.uav[17].startZ 540m
param *.uav[18].startX 2185m
param *.uav[18].startY 3026m
param *.uav[18].startZ 778m
param *.uav[19].startX 3537m
param *.uav[19].startY 965m
param *.uav[19].startZ 539m
param *.uav[20].startX 3537m
param *.uav[20].startY 965m
param *.uav[20].startZ 539m
param *.uav[21].startX 312m
param *.uav[21].startY 1262m
param *.uav[21].startZ 540m
param *.uav[22].startX 2185m
param *.uav[22].startY 3026m
param *.uav[22].startZ 778m
param *.uav[23].startX 3537m
param *.uav[23].startY 965m
param *.uav[23].startZ 539m
param *.uav[24].startX 312m
param *.uav[24].startY 1262m
param *.uav[24].startZ 540m
param *.uav[25].startX 2185m
param *.uav[25].startY 3026m
param *.uav[25].startZ 778m
param *.uav[26].startX 3537m
param *.uav[26].startY 965m
param *.uav[26].startZ 539m
param *.uav[27].startX 312m
param *.uav[27].startY 1262m
param *.uav[27].startZ 540m
param *.uav[28].startX 2185m
param *.uav[28].startY 3026m
param *.uav[28].startZ 778m
param *.uav[29].startX 3537m
param *.uav[29].startY 965m
param *.uav[29].startZ 539m
param *.uav[30].startX 3537m
param *.uav[30].startY 965m
param *.uav[30].startZ 539m
param *.uav[31].startX 312m
param *.uav[31].startY 1262m
param *.uav[31].startZ 540m
param *.uav[32].startX 2185m
param *.uav[32].startY 3026m
param *.uav[32].startZ 778m
param *.uav[33].startX 3537m
param *.uav[33].startY 965m
param *.uav[33].startZ 539m
param *.uav[34].startX 312m
param *.uav[34].startY 1262m
param *.uav[34].startZ 540m
param *.uav[35].startX 2185m
param *.uav[35].startY 3026m
param *.uav[35].startZ 778m
param *.uav[36].startX 3537m
param *.uav[36].startY 965m
param *.uav[36].startZ 539m
param *.uav[37].startX 312m
param *.uav[37].startY 1262m
param *.uav[37].startZ 540m
param *.uav[38].startX 2185m
param *.uav[38].startY 3026m
param *.uav[38].startZ 778m
param *.uav[39].startX 3537m
param *.uav[39].startY 965m
param *.uav[39].startZ 539m
param *.uav[40].startX 3537m
param *.uav[40].startY 965m
param *.uav[40].startZ 539m
param *.uav[41].startX 312m
param *.uav[41].startY 1262m
param *.uav[41].startZ 540m
param *.uav[42].startX 2185m
param *.uav[42].startY 3026m
param *.uav[42].startZ 778m
param *.uav[43].startX 3537m
param *.uav[43].startY 965m
param *.uav[43].startZ 539m
param *.uav[44].startX 312m
param *.uav[44].startY 1262m
param *.uav[44].startZ 540m
param *.uav[45].startX 2185m
param *.uav[45].startY 3026m
param *.uav[45].startZ 778m
param *.uav[46].startX 3537m
param *.uav[46].startY 965m
param *.uav[46].startZ 539m
param *.uav[47].startX 312m
param *.uav[47].startY 1262m
param *.uav[47].startZ 540m
param *.uav[48].startX 2185m
param *.uav[48].startY 3026m
param *.uav[48].startZ 778m
param *.uav[49].startX 3537m
param *.uav[49].startY 965m
param *.uav[49].startZ 539m
param *.uav[50].startX 3537m
param *.uav[50].startY 965m
param *.uav[50].startZ 539m
param *.uav[51].startX 312m
param *.uav[51].startY 1262m
param *.uav[51].startZ 540m
param *.uav[52].startX 2185m
param *.uav[52].startY 3026m
param *.uav[52].startZ 778m
param *.uav[53].startX 3537m
param *.uav[53].startY 965m
param *.uav[53].startZ 539m
param *.uav[54].startX 312m
param *.uav[54].startY 1262m
param *.uav[54].startZ 540m
param *.uav[55].startX 2185m
param *.uav[55].startY 3026m
param *.uav[55].startZ 778m
param *.uav[56].startX 3537m
param *.uav[56].startY 965m
param *.uav[56].startZ 539m
param *.uav[57].startX 312m
param *.uav[57].startY 1262m
param *.uav[57].startZ 540m
param *.uav[58].startX 2185m
param *.uav[58].startY 3026m
param *.uav[58].startZ 778m
param *.uav[59].startX 3537m
param *.uav[59].startY 965m
param *.uav[59].startZ 539m
param *.uav[60].startX 3537m
param *.uav[60].startY 965m
param *.uav[60].startZ 539m
param *.uav[61].startX 312m
param *.uav[61].startY 1262m
param *.uav[61].startZ 540m
param *.uav[62].startX 2185m
param *.uav[62].startY 3026m
param *.uav[62].startZ 778m
param *.uav[63].startX 3537m
param *.uav[63].startY 965m
param *.uav[63].startZ 539m
param *.uav[64].startX 312m
param *.uav[64].startY 1262m
param *.uav[64].startZ 540m
param *.uav[65].startX 2185m
param *.uav[65].startY 3026m
param *.uav[65].startZ 778m
param *.uav[66].startX 3537m
param *.uav[66].startY 965m
param *.uav[66].startZ 539m
param *.uav[67].startX 312m
param *.uav[67].startY 1262m
param *.uav[67].startZ 540m
param *.uav[68].startX 2185m
param *.uav[68].startY 3026m
param *.uav[68].startZ 778m
param *.uav[69].startX 3537m
param *.uav[69].startY 965m
param *.uav[69].startZ 539m
param *.uav[70].startX 3537m
param *.uav[70].startY 965m
param *.uav[70].startZ 539m
param *.uav[71].startX 312m
param *.uav[71].startY 1262m
param *.uav[71].startZ 540m
param *.uav[72].startX 2185m
param *.uav[72].startY 3026m
param *.uav[72].startZ 778m
param *.uav[73].startX 3537m
param *.uav[73].startY 965m
param *.uav[73].startZ 539m
param *.uav[74].startX 312m
param *.uav[74].startY 1262m
param *.uav[74].startZ 540m
param *.uav[75].startX 2185m
param *.uav[75].startY 3026m
param *.uav[75].startZ 778m
param *.uav[76].startX 3537m
param *.uav[76].startY 965m
param *.uav[76].startZ 539m
param *.uav[77].startX 312m
param *.uav[77].startY 1262m
param *.uav[77].startZ 540m
param *.uav[78].startX 2185m
param *.uav[78].startY 3026m
param *.uav[78].startZ 778m
param *.uav[79].startX 3537m
param *.uav[79].startY 965m
param *.uav[79].startZ 539m
param *.uav[80].startX 3537m
param *.uav[80].startY 965m
param *.uav[80].startZ 539m
param *.uav[81].startX 312m
param *.uav[81].startY 1262m
param *.uav[81].startZ 540m
param *.uav[82].startX 2185m
param *.uav[82].startY 3026m
param *.uav[82].startZ 778m
param *.uav[83].startX 3537m
param *.uav[83].startY 965m
param *.uav[83].startZ 539m
param *.uav[84].startX 312m
param *.uav[84].startY 1262m
param *.uav[84].startZ 540m
param *.uav[85].startX 2185m
param *.uav[85].startY 3026m
param *.uav[85].startZ 778m
param *.uav[86].startX 3537m
param *.uav[86].startY 965m
param *.uav[86].startZ 539m
param *.uav[87].startX 312m
param *.uav[87].startY 1262m
param *.uav[87].startZ 540m
param *.uav[88].startX 2185m
param *.uav[88].startY 3026m
param *.uav[88].startZ 778m
param *.uav[89].startX 3537m
param *.uav[89].startY 965m
param *.uav[89].startZ 539m
param *.uav[90].startX 3537m
param *.uav[90].startY 965m
param *.uav[90].startZ 539m
param *.uav[91].startX 312m
param *.uav[91].startY 1262m
param *.uav[91].startZ 540m
param *.uav[92].startX 2185m
param *.uav[92].startY 3026m
param *.uav[92].startZ 778m
param *.uav[93].startX 3537m
param *.uav[93].startY 965m
param *.uav[93].startZ 539m
param *.uav[94].startX 312m
param *.uav[94].startY 1262m
param *.uav[94].startZ 540m
param *.uav[95].startX 2185m
param *.uav[95].startY 3026m
param *.uav[95].startZ 778m
param *.uav[96].startX 3537m
param *.uav[96].startY 965m
param *.uav[96].startZ 539m
param *.uav[97].startX 312m
param *.uav[97].startY 1262m
param *.uav[97].startZ 540m
param *.uav[98].startX 2185m
param *.uav[98].startY 3026m
param *.uav[98].startZ 778m
param *.uav[99].startX 3537m
param *.uav[99].startY 965m
param *.uav[99].startZ 539m
param *.osgEarthScene.scene "\"boston.earth\""
param *.playgroundLatitude 42.3558
param *.playgroundLongitude -71.0677
param *.playgroundWidth 400m
param *.playgroundHeight 200m
param *.channelController.connectionColor "\"#0000FF40\""
param *.channelController.showConnections false
param *.uav[*].modelURL "\"quadrocopter.small.obj.15.scale.0,0,90.rot\""
param *.uav[*].labelColor "\"#FF7C00CC\""
param *.uav[*].label2Color "\"#FF7C00EE\""
param *.uav[*].batteryCapacity 5200mAh
param *.uav[*].batteryRemaining uav[index].batteryCapacity
param *.uav[*].predictionQuantile 0.95
param *.uav[*].replacementMethod 2
param *.uav[*].weightedSumWeight 0.5
param *.cs[*].modelURL "\"chargingstation_v1.osgt.2.scale.0,0,0.rot.0,0,-15e-1.trans\""
param *.cs[*].spotsWaiting 999
param *.cs[*].spotsCharging 999
param *.cs[*].chargeEffectivenessPercentage 100
param *.cs[*].nonLinearPhaseStartPercentage 85
param *.cs[*].chargeCurrent 6.0A
param *.cs[*].prioritizeFastCharge true
param *.missionControl.replacementSearchMethod 0
param *.*.timeStep 9s

scalar OsgEarthNet.uav[0] utilizationSecMission 27690.218616512
scalar OsgEarthNet.uav[0] utilizationSecMaintenance 14178.83030698
scalar OsgEarthNet.uav[0] utilizationSecCharge 160430
scalar OsgEarthNet.uav[0] utilizationSecIdle 56900.950076507
scalar OsgEarthNet.uav[0] utilizationEnergyMission 127427.48001985
scalar OsgEarthNet.uav[0] utilizationEnergyMaintenance 66683.660202026
scalar OsgEarthNet.uav[0] utilizationEnergyCharge 194534.91943359
scalar OsgEarthNet.uav[0] utilizationEnergyOverdrawMission 0
scalar OsgEarthNet.uav[0] utilizationEnergyOverdrawMaintenance 0
scalar OsgEarthNet.uav[0] utilizationCountMissions 47
scalar OsgEarthNet.uav[0] utilizationCountManeuversMission 452
scalar OsgEarthNet.uav[0] utilizationCountManeuversMaintenance 93
scalar OsgEarthNet.uav[0] utilizationCountChargeState 47
scalar OsgEarthNet.uav[0] utilizationCountOverdrawnAfterMission 0
scalar OsgEarthNet.uav[0] utilizationCountIdleState 48
scalar OsgEarthNet.uav[0] utilizationFail 0
scalar OsgEarthNet.uav[0] simulationTime 259200
scalar OsgEarthNet.uav[1] utilizationSecMission 26494.399122097
scalar OsgEarthNet.uav[1] utilizationSecMaintenance 10696.926086645
scalar OsgEarthNet.uav[1] utilizationSecCharge 135630
scalar OsgEarthNet.uav[1] utilizationSecIdle 86378.673791257
scalar OsgEarthNet.uav[1] utilizationEnergyMission 123124.0479126
scalar OsgEarthNet.uav[1] utilizationEnergyMaintenance 51394.615407365
scalar OsgEarthNet.uav[1] utilizationEnergyCharge 169498.56982422
scalar OsgEarthNet.uav[1] utilizationEnergyOverdrawMission 0
scalar OsgEarthNet.uav[1] utilizationEnergyOverdrawMaintenance 0
scalar OsgEarthNet.uav[1] utilizationCountMissions 38
scalar OsgEarthNet.uav[1] utilizationCountManeuversMission 443
scalar OsgEarthNet.uav[1] utilizationCountManeuversMaintenance 76
scalar OsgEarthNet.uav[1] utilizationCountChargeState 37
scalar OsgEarthNet.uav[1] utilizationCountOverdrawnAfterMission 0
scalar OsgEarthNet.uav[1] utilizationCountIdleState 38
scalar OsgEarthNet.uav[1] utilizationFail 0
scalar OsgEarthNet.uav[1] simulationTime 259200
scalar OsgEarthNet.uav[2] utilizationSecMission 25436.061028555
scalar OsgEarthNet.uav[2] utilizationSecMaintenance 12471.91943234
scalar OsgEarthNet.uav[2] utilizationSecCharge 143890
scalar OsgEarthNet.uav[2] utilizationSecIdle 77402.018539106
scalar OsgEarthNet.uav[2] utilizationEnergyMission 117237.83681107
scalar OsgEarthNet.uav[2] utilizationEnergyMaintenance 58904.994457245
scalar OsgEarthNet.uav[2] utilizationEnergyCharge 176570.80712891
scalar OsgEarthNet.uav[2] utilizationEnergyOverdrawMission 0
scalar OsgEarthNet.uav[2] utilizationEnergyOverdrawMaintenance 0
scalar OsgEarthNet.uav[2] utilizationCountMissions 41
scalar OsgEarthNet.uav[2] utilizationCountManeuversMission 415
scalar OsgEarthNet.uav[2] utilizationCountManeuversMaintenance 82
scalar OsgEarthNet.uav[2] utilizationCountChargeState 41
scalar OsgEarthNet.uav[2] utilizationCountOverdrawnAfterMission 0
scalar OsgEarthNet.uav[2] utilizationCountIdleState 42
scalar OsgEarthNet.uav[2] utilizationFail 0
scalar OsgEarthNet.uav[2] simulationTime 259200
scalar OsgEarthNet.uav[3] utilizationSecMission 29815.361916744
scalar OsgEarthNet.uav[3] utilizationSecMaintenance 11823.090969261
scalar OsgEarthNet.uav[3] utilizationSecCharge 155990.03245305
scalar OsgEarthNet.uav[3] utilizationSecIdle 61571.51366095
scalar OsgEarthNet.uav[3] utilizationEnergyMission 139041.55685425
scalar OsgEarthNet.uav[3] utilizationEnergyMaintenance 56175.6328125
scalar OsgEarthNet.uav[3] utilizationEnergyCharge 194551.60961914
scalar OsgEarthNet.uav[3] utilizationEnergyOverdrawMission 0
scalar OsgEarthNet.uav[3] utilizationEnergyOverdrawMaintenance 0
scalar OsgEarthNet.uav[3] utilizationCountMissions 43
scalar OsgEarthNet.uav[3] utilizationCountManeuversMission 485
scalar OsgEarthNet.uav[3] utilizationCountManeuversMaintenance 86
scalar OsgEarthNet.uav[3] utilizationCountChargeState 43
scalar OsgEarthNet.uav[3] utilizationCountOverdrawnAfterMission 0
scalar OsgEarthNet.uav[3] utilizationCountIdleState 43
scalar OsgEarthNet.uav[3] utilizationFail 0
scalar OsgEarthNet.uav[3] simulationTime 259200
scalar OsgEarthNet.uav[4] utilizationSecMission 16475.141583544
scalar OsgEarthNet.uav[4] utilizationSecMaintenance 7000.7369033378
scalar OsgEarthNet.uav[4] utilizationSecCharge 85153.49210799
scalar OsgEarthNet.uav[4] utilizationSecIdle 150570.62840513
scalar OsgEarthNet.uav[4] utilizationEnergyMission 75426.47605896
scalar OsgEarthNet.uav[4] utilizationEnergyMaintenance 33611.863384247
scalar OsgEarthNet.uav[4] utilizationEnergyCharge 105015.18719482
scalar OsgEarthNet.uav[4] utilizationEnergyOverdrawMission 0
scalar OsgEarthNet.uav[4] utilizationEnergyOverdrawMaintenance 0
scalar OsgEarthNet.uav[4] utilizationCountMissions 25
scalar OsgEarthNet.uav[4] utilizationCountManeuversMission 265
scalar OsgEarthNet.uav[4] utilizationCountManeuversMaintenance 50
scalar OsgEarthNet.uav[4] utilizationCountChargeState 25
scalar OsgEarthNet.uav[4] utilizationCountOverdrawnAfterMission 0
scalar OsgEarthNet.uav[4] utilizationCountIdleState 25
scalar OsgEarthNet.uav[4] utilizationFail 0
scalar OsgEarthNet.uav[4] simulationTime 259200
scalar OsgEarthNet.uav[5] utilizationSecMission 694.00169469977
scalar OsgEarthNet.uav[5] utilizationSecMaintenance 338.49695459722
scalar OsgEarthNet.uav[5] utilizationSecCharge 3780
scalar OsgEarthNet.uav[5] utilizationSecIdle 254387.5003507
scalar OsgEarthNet.uav[5] utilizationEnergyMission 3331.7796478271
scalar OsgEarthNet.uav[5] utilizationEnergyMaintenance 1481.5560417175
scalar OsgEarthNet.uav[5] utilizationEnergyCharge 4813.337890625
scalar OsgEarthNet.uav[5] utilizationEnergyOverdrawMission 0
scalar OsgEarthNet.uav[5] utilizationEnergyOverdrawMaintenance 0
scalar OsgEarthNet.uav[5] utilizationCountMissions 1
scalar OsgEarthNet.uav[5] utilizationCountManeuversMission 13
scalar OsgEarthNet.uav[5] utilizationCountManeuversMaintenance 2
scalar OsgEarthNet.uav[5] utilizationCountChargeState 1
scalar OsgEarthNet.uav[5] utilizationCountOverdrawnAfterMission 0
scalar OsgEarthNet.uav[5] utilizationCountIdleState 2
scalar OsgEarthNet.uav[5] utilizationFail 0
scalar OsgEarthNet.uav[5] simulationTime 259200
scalar OsgEarthNet.uav[6] utilizationSecMission 684.4732299383
scalar OsgEarthNet.uav[6] utilizationSecMaintenance 298.56834692969
scalar OsgEarthNet.uav[6] utilizationSecCharge 3750
scalar OsgEarthNet.uav[6] utilizationSecIdle 254466.95742313
scalar OsgEarthNet.uav[6] utilizationEnergyMission 3187.8925476074
scalar OsgEarthNet.uav[6] utilizationEnergyMaintenance 1538.6805038452
scalar OsgEarthNet.uav[6] utilizationEnergyCharge 4726.5756835938
scalar OsgEarthNet.uav[6] utilizationEnergyOverdrawMission 0
scalar OsgEarthNet.uav[6] utilizationEnergyOverdrawMaintenance 0
scalar OsgEarthNet.uav[6] utilizationCountMissions 1
scalar OsgEarthNet.uav[6] utilizationCountManeuversMission 11
scalar OsgEarthNet.uav[6] utilizationCountManeuversMaintenance 2
scalar OsgEarthNet.uav[6] utilizationCountChargeState 1
scalar OsgEarthNet.uav[6] utilizationCountOverdrawnAfterMission 0
scalar OsgEarthNet.uav[6] utilizationCountIdleState 2
scalar OsgEarthNet.uav[6] utilizationFail 0
scalar OsgEarthNet.uav[6] simulationTime 259200
scalar OsgEarthNet.uav[7] utilizationSecMission 648.09208854277
scalar OsgEarthNet.uav[7] utilizationSecMaintenance 399.17886017656
scalar OsgEarthNet.uav[7] utilizationSecCharge 3770
scalar OsgEarthNet.uav[7] utilizationSecIdle 254382.72805128
scalar OsgEarthNet.uav[7] utilizationEnergyMission 2735.6853790283
scalar OsgEarthNet.uav[7] utilizationEnergyMaintenance 1880.3128166199
scalar OsgEarthNet.uav[7] utilizationEnergyCharge 4748.7534179688
scalar OsgEarthNet.uav[7] utilizationEnergyOverdrawMission 0
scalar OsgEarthNet.uav[7] utilizationEnergyOverdrawMaintenance 0
scalar OsgEarthNet.uav[7] utilizationCountMissions 1
scalar OsgEarthNet.uav[7] utilizationCountManeuversMission 10
scalar OsgEarthNet.uav[7] utilizationCountManeuversMaintenance 2
scalar OsgEarthNet.uav[7] utilizationCountChargeState 1
scalar OsgEarthNet.uav[7] utilizationCountOverdrawnAfterMission 0
scalar OsgEarthNet.uav[7] utilizationCountIdleState 2
scalar OsgEarthNet.uav[7] utilizationFail 0
scalar OsgEarthNet.uav[7] simulationTime 259200
scalar OsgEarthNet.uav[8] utilizationSecMission 29708.9637146
scalar OsgEarthNet.uav[8] utilizationSecMaintenance 14619.0352854
scalar OsgEarthNet.uav[8] utilizationSecCharge 166880
scalar OsgEarthNet.uav[8] utilizationSecIdle 47992
scalar OsgEarthNet.uav[8] utilizationEnergyMission 136225.19432642
scalar OsgEarthNet.uav[8] utilizationEnergyMaintenance 69206.405845642
scalar OsgEarthNet.uav[8] utilizationEnergyCharge 204100.48071289
scalar OsgEarthNet.uav[8] utilizationEnergyOverdrawMission 0
scalar OsgEarthNet.uav[8] utilizationEnergyOverdrawMaintenance 0
scalar OsgEarthNet.uav[8] utilizationCountMissions 48
scalar OsgEarthNet.uav[8] utilizationCountManeuversMission 489
scalar OsgEarthNet.uav[8] utilizationCountManeuversMaintenance 96
scalar OsgEarthNet.uav[8] utilizationCountChargeState 48
scalar OsgEarthNet.uav[8] utilizationCountOverdrawnAfterMission 0
scalar OsgEarthNet.uav[8] utilizationCountIdleState 49
scalar OsgEarthNet.uav[8] utilizationFail 0
scalar OsgEarthNet.uav[8] simulationTime 259200
scalar OsgEarthNet.uav[9] utilizationSecMission 684.4732299383
scalar OsgEarthNet.uav[9] utilizationSecMaintenance 298.56834692969
scalar OsgEarthNet.uav[9] utilizationSecCharge 3770
scalar OsgEarthNet.uav[9] utilizationSecIdle 254446.95742313
scalar OsgEarthNet.uav[9] utilizationEnergyMission 3145.6805114746
scalar OsgEarthNet.uav[9] utilizationEnergyMaintenance 1584.7980270386
scalar OsgEarthNet.uav[9] utilizationEnergyCharge 4730.4794921875
scalar OsgEarthNet.uav[9] utilizationEnergyOverdrawMission 0
scalar OsgEarthNet.uav[9] utilizationEnergyOverdrawMaintenance 0
scalar OsgEarthNet.uav[9] utilizationCountMissions 1
scalar OsgEarthNet.uav[9] utilizationCountManeuversMission 11
scalar OsgEarthNet.uav[9] utilizationCountManeuversMaintenance 2
scalar OsgEarthNet.uav[9] utilizationCountChargeState 1
scalar OsgEarthNet.uav[9] utilizationCountOverdrawnAfterMission 0
scalar OsgEarthNet.uav[9] utilizationCountIdleState 2
scalar OsgEarthNet.uav[9] utilizationFail 0
scalar OsgEarthNet.uav[9] simulationTime 259200
scalar OsgEarthNet.uav[10] utilizationSecMission 760.62515258028
scalar OsgEarthNet.uav[10] utilizationSecMaintenance 291.95923480269
scalar OsgEarthNet.uav[10] utilizationSecCharge 3740
scalar OsgEarthNet.uav[10] utilizationSecIdle 254407.41461262
scalar OsgEarthNet.uav[10] utilizationEnergyMission 3261.2802734375
scalar OsgEarthNet.uav[10] utilizationEnergyMaintenance 1397.9885482788
scalar OsgEarthNet.uav[10] utilizationEnergyCharge 4659.267578125
scalar OsgEarthNet.uav[10] utilizationEnergyOverdrawMission 0
scalar OsgEarthNet.uav[10] utilizationEnergyOverdrawMaintenance 0
scalar OsgEarthNet.uav[10] utilizationCountMissions 1
scalar OsgEarthNet.uav[10] utilizationCountManeuversMission 12
scalar OsgEarthNet.uav[10] utilizationCountManeuversMaintenance 2
scalar OsgEarthNet.uav[10] utilizationCountChargeState 1
scalar OsgEarthNet.uav[10] utilizationCountOverdrawnAfterMission 0
scalar OsgEarthNet.uav[10] utilizationCountIdleState 2
scalar OsgEarthNet.uav[10] utilizationFail 0
scalar OsgEarthNet.uav[10] simulationTime 259200
scalar OsgEarthNet.uav[11] utilizationSecMission 30499.245647061
scalar OsgEarthNet.uav[11] utilizationSecMaintenance 12801.536884181
scalar OsgEarthNet.uav[11] utilizationSecCharge 164320
scalar OsgEarthNet.uav[11] utilizationSecIdle 51579.216468758
scalar OsgEarthNet.uav[11] utilizationEnergyMission 141303.73944855
scalar OsgEarthNet.uav[11] utilizationEnergyMaintenance 60548.415489197
scalar OsgEarthNet.uav[11] utilizationEnergyCharge 201308.02172852
scalar OsgEarthNet.uav[11] utilizationEnergyOverdrawMission 0
scalar OsgEarthNet.uav[11] utilizationEnergyOverdrawMaintenance 0
scalar OsgEarthNet.uav[11] utilizationCountMissions 47
scalar OsgEarthNet.uav[11] utilizationCountManeuversMission 491
scalar OsgEarthNet.uav[11] utilizationCountManeuversMaintenance 94
scalar OsgEarthNet.uav[11] utilizationCountChargeState 47
scalar OsgEarthNet.uav[11] utilizationCountOverdrawnAfterMission 0
scalar OsgEarthNet.uav[11] utilizationCountIdleState 48
scalar OsgEarthNet.uav[11] utilizationFail 0
scalar OsgEarthNet.uav[11] simulationTime 259200
scalar OsgEarthNet.uav[12] utilizationSecMission 21348.52283581
scalar OsgEarthNet.uav[12] utilizationSecMaintenance 10000.023205473
scalar OsgEarthNet.uav[12] utilizationSecCharge 114760
scalar OsgEarthNet.uav[12] utilizationSecIdle 113091.45295872
scalar OsgEarthNet.uav[12] utilizationEnergyMission 97539.941950706
scalar OsgEarthNet.uav[12] utilizationEnergyMaintenance 46437.649490356
scalar OsgEarthNet.uav[12] utilizationEnergyCharge 141901.64599609
scalar OsgEarthNet.uav[12] utilizationEnergyOverdrawMission 0
scalar OsgEarthNet.uav[12] utilizationEnergyOverdrawMaintenance 0
scalar OsgEarthNet.uav[12] utilizationCountMissions 32
scalar OsgEarthNet.uav[12] utilizationCountManeuversMission 339
scalar OsgEarthNet.uav[12] utilizationCountManeuversMaintenance 65
scalar OsgEarthNet.uav[12] utilizationCountChargeState 32
scalar OsgEarthNet.uav[12] utilizationCountOverdrawnAfterMission 0
scalar OsgEarthNet.uav[12] utilizationCountIdleState 33
scalar OsgEarthNet.uav[12] utilizationFail 0
scalar OsgEarthNet.uav[12] simulationTime 259200
scalar OsgEarthNet.uav[13] utilizationSecMission 22615.864164229
scalar OsgEarthNet.uav[13] utilizationSecMaintenance 10432.383683546
scalar OsgEarthNet.uav[13] utilizationSecCharge 124403.73534044
scalar OsgEarthNet.uav[13] utilizationSecIdle 101748.01581178
scalar OsgEarthNet.uav[13] utilizationEnergyMission 104646.36543274
scalar OsgEarthNet.uav[13] utilizationEnergyMaintenance 48851.78786087
scalar OsgEarthNet.uav[13] utilizationEnergyCharge 149868.66448975
scalar OsgEarthNet.uav[13] utilizationEnergyOverdrawMission 0
scalar OsgEarthNet.uav[13] utilizationEnergyOverdrawMaintenance 0
scalar OsgEarthNet.uav[13] utilizationCountMissions 38
scalar OsgEarthNet.uav[13] utilizationCountManeuversMission 372
scalar OsgEarthNet.uav[13] utilizationCountManeuversMaintenance 76
scalar OsgEarthNet.uav[13] utilizationCountChargeState 38
scalar OsgEarthNet.uav[13] utilizationCountOverdrawnAfterMission 0
scalar OsgEarthNet.uav[13] utilizationCountIdleState 38
scalar OsgEarthNet.uav[13] utilizationFail 0
scalar OsgEarthNet.uav[13] simulationTime 259200
scalar OsgEarthNet.uav[14] utilizationSecMission 27848.352004093
scalar OsgEarthNet.uav[14] utilizationSecMaintenance 15559.818800259
scalar OsgEarthNet.uav[14] utilizationSecCharge 166863.47559211
scalar OsgEarthNet.uav[14] utilizationSecIdle 48928.35260354
scalar OsgEarthNet.uav[14] utilizationEnergyMission 130012.66821289
scalar OsgEarthNet.uav[14] utilizationEnergyMaintenance 73154.102073669
scalar OsgEarthNet.uav[14] utilizationEnergyCharge 203042.90161133
scalar OsgEarthNet.uav[14] utilizationEnergyOverdrawMission 0
scalar OsgEarthNet.uav[14] utilizationEnergyOverdrawMaintenance 0
scalar OsgEarthNet.uav[14] utilizationCountMissions 49
scalar OsgEarthNet.uav[14] utilizationCountManeuversMission 460
scalar OsgEarthNet.uav[14] utilizationCountManeuversMaintenance 98
scalar OsgEarthNet.uav[14] utilizationCountChargeState 49
scalar OsgEarthNet.uav[14] utilizationCountOverdrawnAfterMission 0
scalar OsgEarthNet.uav[14] utilizationCountIdleState 49
scalar OsgEarthNet.uav[14] utilizationFail 0
scalar OsgEarthNet.uav[14] simulationTime 259200
scalar OsgEarthNet.uav[15] utilizationSecMission 785.70143890194
scalar OsgEarthNet.uav[15] utilizationSecMaintenance 154.79376707613
scalar OsgEarthNet.uav[15] utilizationSecCharge 3570
scalar OsgEarthNet.uav[15] utilizationSecIdle 254689.50379402
scalar OsgEarthNet.uav[15] utilizationEnergyMission 3734.0606079102
scalar OsgEarthNet.uav[15] utilizationEnergyMaintenance 748.76902389526
scalar OsgEarthNet.uav[15] utilizationEnergyCharge 4400.876953125
scalar OsgEarthNet.uav[15] utilizationEnergyOverdrawMission 0
scalar OsgEarthNet.uav[15] utilizationEnergyOverdrawMaintenance 0
scalar OsgEarthNet.uav[15] utilizationCountMissions 1
scalar OsgEarthNet.uav[15] utilizationCountManeuversMission 12
scalar OsgEarthNet.uav[15] utilizationCountManeuversMaintenance 2
scalar OsgEarthNet.uav[15] utilizationCountChargeState 1
scalar OsgEarthNet.uav[15] utilizationCountOverdrawnAfterMission 0
scalar OsgEarthNet.uav[15] utilizationCountIdleState 2
scalar OsgEarthNet.uav[15] utilizationFail 0
scalar OsgEarthNet.uav[15] simulationTime 259200
scalar OsgEarthNet.uav[16] utilizationSecMission 684.4732299383
scalar OsgEarthNet.uav[16] utilizationSecMaintenance 298.56834692969
scalar OsgEarthNet.uav[16] utilizationSecCharge 3770
scalar OsgEarthNet.uav[16] utilizationSecIdle 254446.95742313
scalar OsgEarthNet.uav[16] utilizationEnergyMission 3352.6834411621
scalar OsgEarthNet.uav[16] utilizationEnergyMaintenance 1368.8467330933
scalar OsgEarthNet.uav[16] utilizationEnergyCharge 4721.5268554688
scalar OsgEarthNet.uav[16] utilizationEnergyOverdrawMission 0
scalar OsgEarthNet.uav[16] utilizationEnergyOverdrawMaintenance 0
scalar OsgEarthNet.uav[16] utilizationCountMissions 1
scalar OsgEarthNet.uav[16] utilizationCountManeuversMission 11
scalar OsgEarthNet.uav[16] utilizationCountManeuversMaintenance 2
scalar OsgEarthNet.uav[16] utilizationCountChargeState 1
scalar OsgEarthNet.uav[16] utilizationCountOverdrawnAfterMission 0
scalar OsgEarthNet.uav[16] utilizationCountIdleState 2
scalar OsgEarthNet.uav[16] utilizationFail 0
scalar OsgEarthNet.uav[16] simulationTime 259200
scalar OsgEarthNet.uav[17] utilizationSecMission 20672.601087881
scalar OsgEarthNet.uav[17] utilizationSecMaintenance 9383.6983786649
scalar OsgEarthNet.uav[17] utilizationSecCharge 112160.72606743
scalar OsgEarthNet.uav[17] utilizationSecIdle 116982.97346602
scalar OsgEarthNet.uav[17] utilizationEnergyMission 95884.46156311
scalar OsgEarthNet.uav[17] utilizationEnergyMaintenance 44569.543003082
scalar OsgEarthNet.uav[17] utilizationEnergyCharge 137678.2722168
scalar OsgEarthNet.uav[17] utilizationEnergyOverdrawMission 0
scalar OsgEarthNet.uav[17] utilizationEnergyOverdrawMaintenance 0
scalar OsgEarthNet.uav[17] utilizationCountMissions 33
scalar OsgEarthNet.uav[17] utilizationCountManeuversMission 321
scalar OsgEarthNet.uav[17] utilizationCountManeuversMaintenance 66
scalar OsgEarthNet.uav[17] utilizationCountChargeState 33
scalar OsgEarthNet.uav[17] utilizationCountOverdrawnAfterMission 0
scalar OsgEarthNet.uav[17] utilizationCountIdleState 33
scalar OsgEarthNet.uav[17] utilizationFail 0
scalar OsgEarthNet.uav[17] simulationTime 259200
scalar OsgEarthNet.uav[18] utilizationSecMission 1594.8866054719
scalar OsgEarthNet.uav[18] utilizationSecMaintenance 449.6007473821
scalar OsgEarthNet.uav[18] utilizationSecCharge 7440
scalar OsgEarthNet.uav[18] utilizationSecIdle 249715.51164715
scalar OsgEarthNet.uav[18] utilizationEnergyMission 7320.2047729492
scalar OsgEarthNet.uav[18] utilizationEnergyMaintenance 2119.1367416382
scalar OsgEarthNet.uav[18] utilizationEnergyCharge 9362.9897460938
scalar OsgEarthNet.uav[18] utilizationEnergyOverdrawMission 0
scalar OsgEarthNet.uav[18] utilizationEnergyOverdrawMaintenance 0
scalar OsgEarthNet.uav[18] utilizationCountMissions 2
scalar OsgEarthNet.uav[18] utilizationCountManeuversMission 24
scalar OsgEarthNet.uav[18] utilizationCountManeuversMaintenance 4
scalar OsgEarthNet.uav[18] utilizationCountChargeState 2
scalar OsgEarthNet.uav[18] utilizationCountOverdrawnAfterMission 0
scalar OsgEarthNet.uav[18] utilizationCountIdleState 3
scalar OsgEarthNet.uav[18] utilizationFail 0
scalar OsgEarthNet.uav[18] simulationTime 259200
scalar OsgEarthNet.uav[19] utilizationSecMission 750.20472747826
scalar OsgEarthNet.uav[19] utilizationSecMaintenance 261.68051383311
scalar OsgEarthNet.uav[19] utilizationSecCharge 3690
scalar OsgEarthNet.uav[19] utilizationSecIdle 254498.11375869
scalar OsgEarthNet.uav[19] utilizationEnergyMission 3449.633895874
scalar OsgEarthNet.uav[19] utilizationEnergyMaintenance 1163.6401176453
scalar OsgEarthNet.uav[19] utilizationEnergyCharge 4613.2744140625
scalar OsgEarthNet.uav[19] utilizationEnergyOverdrawMission 0
scalar OsgEarthNet.uav[19] utilizationEnergyOverdrawMaintenance 0
scalar OsgEarthNet.uav[19] utilizationCountMissions 1
scalar OsgEarthNet.uav[19] utilizationCountManeuversMission 11
scalar OsgEarthNet.uav[19] utilizationCountManeuversMaintenance 2
scalar OsgEarthNet.uav[19] utilizationCountChargeState 1
scalar OsgEarthNet.uav[19] utilizationCountOverdrawnAfterMission 0
scalar OsgEarthNet.uav[19] utilizationCountIdleState 2
scalar OsgEarthNet.uav[19] utilizationFail 0
scalar OsgEarthNet.uav[19] simulationTime 259200
scalar OsgEarthNet.uav[20] utilizationSecMission 19760.265538387
scalar OsgEarthNet.uav[20] utilizationSecMaintenance 6451.4434125639
scalar OsgEarthNet.uav[20] utilizationSecCharge 98780
scalar OsgEarthNet.uav[20] utilizationSecIdle 134208.29004905
scalar OsgEarthNet.uav[20] utilizationEnergyMission 91747.075195312
scalar OsgEarthNet.uav[20] utilizationEnergyMaintenance 30419.099243164
scalar OsgEarthNet.uav[20] utilizationEnergyCharge 122923.83251953
scalar OsgEarthNet.uav[20] utilizationEnergyOverdrawMission 0
scalar OsgEarthNet.uav[20] utilizationEnergyOverdrawMaintenance 0
scalar OsgEarthNet.uav[20] utilizationCountMissions 27
scalar OsgEarthNet.uav[20] utilizationCountManeuversMission 312
scalar OsgEarthNet.uav[20] utilizationCountManeuversMaintenance 54
scalar OsgEarthNet.uav[20] utilizationCountChargeState 27
scalar OsgEarthNet.uav[20] utilizationCountOverdrawnAfterMission 0
scalar OsgEarthNet.uav[20] utilizationCountIdleState 28
scalar OsgEarthNet.uav[20] utilizationFail 0
scalar OsgEarthNet.uav[20] simulationTime 259200
scalar OsgEarthNet.uav[21] utilizationSecMission 23156.099303767
scalar OsgEarthNet.uav[21] utilizationSecMaintenance 9245.9546619004
scalar OsgEarthNet.uav[21] utilizationSecCharge 121730
scalar OsgEarthNet.uav[21] utilizationSecIdle 105067.94503433
scalar OsgEarthNet.uav[21] utilizationEnergyMission 106796.00219727
scalar OsgEarthNet.uav[21] utilizationEnergyMaintenance 43156.657840729
scalar OsgEarthNet.uav[21] utilizationEnergyCharge 150361.5
scalar OsgEarthNet.uav[21] utilizationEnergyOverdrawMission 0
scalar OsgEarthNet.uav[21] utilizationEnergyOverdrawMaintenance 0
scalar OsgEarthNet.uav[21] utilizationCountMissions 34
scalar OsgEarthNet.uav[21] utilizationCountManeuversMission 372
scalar OsgEarthNet.uav[21] utilizationCountManeuversMaintenance 68
scalar OsgEarthNet.uav[21] utilizationCountChargeState 34
scalar OsgEarthNet.uav[21] utilizationCountOverdrawnAfterMission 0
scalar OsgEarthNet.uav[21] utilizationCountIdleState 35
scalar OsgEarthNet.uav[21] utilizationFail 0
scalar OsgEarthNet.uav[21] simulationTime 259200
scalar OsgEarthNet.uav[22] utilizationSecMission 2204.8315747583
scalar OsgEarthNet.uav[22] utilizationSecMaintenance 807.39575192348
scalar OsgEarthNet.uav[22] utilizationSecCharge 11120
scalar OsgEarthNet.uav[22] utilizationSecIdle 245067.77167332
scalar OsgEarthNet.uav[22] utilizationEnergyMission 10183.577774048
scalar OsgEarthNet.uav[22] utilizationEnergyMaintenance 3800.4717445374
scalar OsgEarthNet.uav[22] utilizationEnergyCharge 13984.044921875
scalar OsgEarthNet.uav[22] utilizationEnergyOverdrawMission 0
scalar OsgEarthNet.uav[22] utilizationEnergyOverdrawMaintenance 0
scalar OsgEarthNet.uav[22] utilizationCountMissions 3
scalar OsgEarthNet.uav[22] utilizationCountManeuversMission 36
scalar OsgEarthNet.uav[22] utilizationCountManeuversMaintenance 6
scalar OsgEarthNet.uav[22] utilizationCountChargeState 3
scalar OsgEarthNet.uav[22] utilizationCountOverdrawnAfterMission 0
scalar OsgEarthNet.uav[22] utilizationCountIdleState 4
scalar OsgEarthNet.uav[22] utilizationFail 0
scalar OsgEarthNet.uav[22] simulationTime 259200
scalar OsgEarthNet.uav[23] utilizationSecMission 836.77707522227
scalar OsgEarthNet.uav[23] utilizationSecMaintenance 217.0347828456
scalar OsgEarthNet.uav[23] utilizationSecCharge 3820
scalar OsgEarthNet.uav[23] utilizationSecIdle 254326.18714193
scalar OsgEarthNet.uav[23] utilizationEnergyMission 3749.4209747314
scalar OsgEarthNet.uav[23] utilizationEnergyMaintenance 1092.7935600281
scalar OsgEarthNet.uav[23] utilizationEnergyCharge 4842.21484375
scalar OsgEarthNet.uav[23] utilizationEnergyOverdrawMission 0
scalar OsgEarthNet.uav[23] utilizationEnergyOverdrawMaintenance 0
scalar OsgEarthNet.uav[23] utilizationCountMissions 1
scalar OsgEarthNet.uav[23] utilizationCountManeuversMission 13
scalar OsgEarthNet.uav[23] utilizationCountManeuversMaintenance 2
scalar OsgEarthNet.uav[23] utilizationCountChargeState 1
scalar OsgEarthNet.uav[23] utilizationCountOverdrawnAfterMission 0
scalar OsgEarthNet.uav[23] utilizationCountIdleState 2
scalar OsgEarthNet.uav[23] utilizationFail 0
scalar OsgEarthNet.uav[23] simulationTime 259200
scalar OsgEarthNet.uav[24] utilizationSecMission 29314.718132945
scalar OsgEarthNet.uav[24] utilizationSecMaintenance 12133.280867055
scalar OsgEarthNet.uav[24] utilizationSecCharge 151670
scalar OsgEarthNet.uav[24] utilizationSecIdle 66082
scalar OsgEarthNet.uav[24] utilizationEnergyMission 136552.41528086
scalar OsgEarthNet.uav[24] utilizationEnergyMaintenance 56490.590538025
scalar OsgEarthNet.uav[24] utilizationEnergyCharge 188069.58447266
scalar OsgEarthNet.uav[24] utilizationEnergyOverdrawMission 0
scalar OsgEarthNet.uav[24] utilizationEnergyOverdrawMaintenance 0
scalar OsgEarthNet.uav[24] utilizationCountMissions 42
scalar OsgEarthNet.uav[24] utilizationCountManeuversMission 479
scalar OsgEarthNet.uav[24] utilizationCountManeuversMaintenance 84
scalar OsgEarthNet.uav[24] utilizationCountChargeState 42
scalar OsgEarthNet.uav[24] utilizationCountOverdrawnAfterMission 0
scalar OsgEarthNet.uav[24] utilizationCountIdleState 43
scalar OsgEarthNet.uav[24] utilizationFail 0
scalar OsgEarthNet.uav[24] simulationTime 259200
scalar OsgEarthNet.uav[25] utilizationSecMission 694.00169469977
scalar OsgEarthNet.uav[25] utilizationSecMaintenance 338.49695459722
scalar OsgEarthNet.uav[25] utilizationSecCharge 3850
scalar OsgEarthNet.uav[25] utilizationSecIdle 254317.5003507
scalar OsgEarthNet.uav[25] utilizationEnergyMission 3353.8677825928
scalar OsgEarthNet.uav[25] utilizationEnergyMaintenance 1535.8854484558
scalar OsgEarthNet.uav[25] utilizationEnergyCharge 4889.7553710938
scalar OsgEarthNet.uav[25] utilizationEnergyOverdrawMission 0
scalar OsgEarthNet.uav[25] utilizationEnergyOverdrawMaintenance 0
scalar OsgEarthNet.uav[25] utilizationCountMissions 1
scalar OsgEarthNet.uav[25] utilizationCountManeuversMission 13
scalar OsgEarthNet.uav[25] utilizationCountManeuversMaintenance 2
scalar OsgEarthNet.uav[25] utilizationCountChargeState 1
scalar OsgEarthNet.uav[25] utilizationCountOverdrawnAfterMission 0
scalar OsgEarthNet.uav[25] utilizationCountIdleState 2
scalar OsgEarthNet.uav[25] utilizationFail 0
scalar OsgEarthNet.uav[25] simulationTime 259200
scalar OsgEarthNet.uav[26] utilizationSecMission 836.77707522227
scalar OsgEarthNet.uav[26] utilizationSecMaintenance 217.0347828456
scalar OsgEarthNet.uav[26] utilizationSecCharge 3780
scalar OsgEarthNet.uav[26] utilizationSecIdle 254366.18714193
scalar OsgEarthNet.uav[26] utilizationEnergyMission 3766.2634811401
scalar OsgEarthNet.uav[26] utilizationEnergyMaintenance 1025.5847587585
scalar OsgEarthNet.uav[26] utilizationEnergyCharge 4791.8515625
scalar OsgEarthNet.uav[26] utilizationEnergyOverdrawMission 0
scalar OsgEarthNet.uav[26] utilizationEnergyOverdrawMaintenance 0
scalar OsgEarthNet.uav[26] utilizationCountMissions 1
scalar OsgEarthNet.uav[26] utilizationCountManeuversMission 13
scalar OsgEarthNet.uav[26] utilizationCountManeuversMaintenance 2
scalar OsgEarthNet.uav[26] utilizationCountChargeState 1
scalar OsgEarthNet.uav[26] utilizationCountOverdrawnAfterMission 0
scalar OsgEarthNet.uav[26] utilizationCountIdleState 2
scalar OsgEarthNet.uav[26] utilizationFail 0
scalar OsgEarthNet.uav[26] simulationTime 259200
scalar OsgEarthNet.uav[27] utilizationSecMission 27104.04109895
scalar OsgEarthNet.uav[27] utilizationSecMaintenance 13892.196912882
scalar OsgEarthNet.uav[27] utilizationSecCharge 151520
scalar OsgEarthNet.uav[27] utilizationSecIdle 66683.760988168
scalar OsgEarthNet.uav[27] utilizationEnergyMission 123719.30855963
scalar OsgEarthNet.uav[27] utilizationEnergyMaintenance 64972.888580322
scalar OsgEarthNet.uav[27] utilizationEnergyCharge 186367.15234375
scalar OsgEarthNet.uav[27] utilizationEnergyOverdrawMission 0
scalar OsgEarthNet.uav[27] utilizationEnergyOverdrawMaintenance 0
scalar OsgEarthNet.uav[27] utilizationCountMissions 43
scalar OsgEarthNet.uav[27] utilizationCountManeuversMission 450
scalar OsgEarthNet.uav[27] utilizationCountManeuversMaintenance 87
scalar OsgEarthNet.uav[27] utilizationCountChargeState 43
scalar OsgEarthNet.uav[27] utilizationCountOverdrawnAfterMission 0
scalar OsgEarthNet.uav[27] utilizationCountIdleState 44
scalar OsgEarthNet.uav[27] utilizationFail 0
scalar OsgEarthNet.uav[27] simulationTime 259200
scalar OsgEarthNet.uav[28] utilizationSecMission 694.00169469977
scalar OsgEarthNet.uav[28] utilizationSecMaintenance 338.49695459722
scalar OsgEarthNet.uav[28] utilizationSecCharge 3650
scalar OsgEarthNet.uav[28] utilizationSecIdle 254517.5003507
scalar OsgEarthNet.uav[28] utilizationEnergyMission 3076.1160507202
scalar OsgEarthNet.uav[28] utilizationEnergyMaintenance 1473.6480827332
scalar OsgEarthNet.uav[28] utilizationEnergyCharge 4549.7685546875
scalar OsgEarthNet.uav[28] utilizationEnergyOverdrawMission 0
scalar OsgEarthNet.uav[28] utilizationEnergyOverdrawMaintenance 0
scalar OsgEarthNet.uav[28] utilizationCountMissions 1
scalar OsgEarthNet.uav[28] utilizationCountManeuversMission 13
scalar OsgEarthNet.uav[28] utilizationCountManeuversMaintenance 2
scalar OsgEarthNet.uav[28] utilizationCountChargeState 1
scalar OsgEarthNet.uav[28] utilizationCountOverdrawnAfterMission 0
scalar OsgEarthNet.uav[28] utilizationCountIdleState 2
scalar OsgEarthNet.uav[28] utilizationFail 0
scalar OsgEarthNet.uav[28] simulationTime 259200
scalar OsgEarthNet.uav[29] utilizationSecMission 750.20472747826
scalar OsgEarthNet.uav[29] utilizationSecMaintenance 261.68051383311
scalar OsgEarthNet.uav[29] utilizationSecCharge 3630
scalar OsgEarthNet.uav[29] utilizationSecIdle 254558.11375869
scalar OsgEarthNet.uav[29] utilizationEnergyMission 3340.8606567383
scalar OsgEarthNet.uav[29] utilizationEnergyMaintenance 1183.7777824402
scalar OsgEarthNet.uav[29] utilizationEnergyCharge 4524.6416015625
scalar OsgEarthNet.uav[29] utilizationEnergyOverdrawMission 0
scalar OsgEarthNet.uav[29] utilizationEnergyOverdrawMaintenance 0
scalar OsgEarthNet.uav[29] utilizationCountMissions 1
scalar OsgEarthNet.uav[29] utilizationCountManeuversMission 11
scalar OsgEarthNet.uav[29] utilizationCountManeuversMaintenance 2
scalar OsgEarthNet.uav[29] utilizationCountChargeState 1
scalar OsgEarthNet.uav[29] utilizationCountOverdrawnAfterMission 0
scalar OsgEarthNet.uav[29] utilizationCountIdleState 2
scalar OsgEarthNet.uav[29] utilizationFail 0
scalar OsgEarthNet.uav[29] simulationTime 259200
scalar OsgEarthNet.uav[30] utilizationSecMission 28170.69835901
scalar OsgEarthNet.uav[30] utilizationSecMaintenance 11721.440535818
scalar OsgEarthNet.uav[30] utilizationSecCharge 150026.33012624
scalar OsgEarthNet.uav[30] utilizationSecIdle 69281.529978933
scalar OsgEarthNet.uav[30] utilizationEnergyMission 131024.10461426
scalar OsgEarthNet.uav[30] utilizationEnergyMaintenance 55303.084182739
scalar OsgEarthNet.uav[30] utilizationEnergyCharge 185185.2487793
scalar OsgEarthNet.uav[30] utilizationEnergyOverdrawMission 0
scalar OsgEarthNet.uav[30] utilizationEnergyOverdrawMaintenance 0
scalar OsgEarthNet.uav[30] utilizationCountMissions 43
scalar OsgEarthNet.uav[30] utilizationCountManeuversMission 461
scalar OsgEarthNet.uav[30] utilizationCountManeuversMaintenance 86
scalar OsgEarthNet.uav[30] utilizationCountChargeState 43
scalar OsgEarthNet.uav[30] utilizationCountOverdrawnAfterMission 0
scalar OsgEarthNet.uav[30] utilizationCountIdleState 43
scalar OsgEarthNet.uav[30] utilizationFail 0
scalar OsgEarthNet.uav[30] simulationTime 259200
scalar OsgEarthNet.uav[31] utilizationSecMission 27523.154552109
scalar OsgEarthNet.uav[31] utilizationSecMaintenance 12986.530139627
scalar OsgEarthNet.uav[31] utilizationSecCharge 150289.69941169
scalar OsgEarthNet.uav[31] utilizationSecIdle 68400.614896578
scalar OsgEarthNet.uav[31] utilizationEnergyMission 127511.25192261
scalar OsgEarthNet.uav[31] utilizationEnergyMaintenance 61090.72592926
scalar OsgEarthNet.uav[31] utilizationEnergyCharge 185971.80102539
scalar OsgEarthNet.uav[31] utilizationEnergyOverdrawMission 0
scalar OsgEarthNet.uav[31] utilizationEnergyOverdrawMaintenance 0
scalar OsgEarthNet.uav[31] utilizationCountMissions 43
scalar OsgEarthNet.uav[31] utilizationCountManeuversMission 457
scalar OsgEarthNet.uav[31] utilizationCountManeuversMaintenance 86
scalar OsgEarthNet.uav[31] utilizationCountChargeState 43
scalar OsgEarthNet.uav[31] utilizationCountOverdrawnAfterMission 0
scalar OsgEarthNet.uav[31] utilizationCountIdleState 43
scalar OsgEarthNet.uav[31] utilizationFail 0
scalar OsgEarthNet.uav[31] simulationTime 259200
scalar OsgEarthNet.uav[32] utilizationSecMission 750.20472747826
scalar OsgEarthNet.uav[32] utilizationSecMaintenance 218.84515192887
scalar OsgEarthNet.uav[32] utilizationSecCharge 3630
scalar OsgEarthNet.uav[32] utilizationSecIdle 254600.94912059
scalar OsgEarthNet.uav[32] utilizationEnergyMission 3422.6280670166
scalar OsgEarthNet.uav[32] utilizationEnergyMaintenance 1021.7518234253
scalar OsgEarthNet.uav[32] utilizationEnergyCharge 4531.4379882812
scalar OsgEarthNet.uav[32] utilizationEnergyOverdrawMission 0
scalar OsgEarthNet.uav[32] utilizationEnergyOverdrawMaintenance 0
scalar OsgEarthNet.uav[32] utilizationCountMissions 1
scalar OsgEarthNet.uav[32] utilizationCountManeuversMission 11
scalar OsgEarthNet.uav[32] utilizationCountManeuversMaintenance 2
scalar OsgEarthNet.uav[32] utilizationCountChargeState 1
scalar OsgEarthNet.uav[32] utilizationCountOverdrawnAfterMission 0
scalar OsgEarthNet.uav[32] utilizationCountIdleState 2
scalar OsgEarthNet.uav[32] utilizationFail 0
scalar OsgEarthNet.uav[32] simulationTime 259200
scalar OsgEarthNet.uav[33] utilizationSecMission 545.05972348896
scalar OsgEarthNet.uav[33] utilizationSecMaintenance 427.36308650536
scalar OsgEarthNet.uav[33] utilizationSecCharge 3540
scalar OsgEarthNet.uav[33] utilizationSecIdle 254687.57619001
scalar OsgEarthNet.uav[33] utilizationEnergyMission 2396.8014526367
scalar OsgEarthNet.uav[33] utilizationEnergyMaintenance 2093.633934021
scalar OsgEarthNet.uav[33] utilizationEnergyCharge 4376.3276367188
scalar OsgEarthNet.uav[33] utilizationEnergyOverdrawMission 0
scalar OsgEarthNet.uav[33] utilizationEnergyOverdrawMaintenance 0
scalar OsgEarthNet.uav[33] utilizationCountMissions 1
scalar OsgEarthNet.uav[33] utilizationCountManeuversMission 9
scalar OsgEarthNet.uav[33] utilizationCountManeuversMaintenance 2
scalar OsgEarthNet.uav[33] utilizationCountChargeState 1
scalar OsgEarthNet.uav[33] utilizationCountOverdrawnAfterMission 0
scalar OsgEarthNet.uav[33] utilizationCountIdleState 2
scalar OsgEarthNet.uav[33] utilizationFail 0
scalar OsgEarthNet.uav[33] simulationTime 259200
scalar OsgEarthNet.uav[34] utilizationSecMission 10317.753156003
scalar OsgEarthNet.uav[34] utilizationSecMaintenance 5301.2128001693
scalar OsgEarthNet.uav[34] utilizationSecCharge 59850
scalar OsgEarthNet.uav[34] utilizationSecIdle 183731.03304383
scalar OsgEarthNet.uav[34] utilizationEnergyMission 48345.465393066
scalar OsgEarthNet.uav[34] utilizationEnergyMaintenance 24869.988407135
scalar OsgEarthNet.uav[34] utilizationEnergyCharge 73292.034179688
scalar OsgEarthNet.uav[34] utilizationEnergyOverdrawMission 0
scalar OsgEarthNet.uav[34] utilizationEnergyOverdrawMaintenance 0
scalar OsgEarthNet.uav[34] utilizationCountMissions 17
scalar OsgEarthNet.uav[34] utilizationCountManeuversMission 177
scalar OsgEarthNet.uav[34] utilizationCountManeuversMaintenance 34
scalar OsgEarthNet.uav[34] utilizationCountChargeState 17
scalar OsgEarthNet.uav[34] utilizationCountOverdrawnAfterMission 0
scalar OsgEarthNet.uav[34] utilizationCountIdleState 18
scalar OsgEarthNet.uav[34] utilizationFail 0
scalar OsgEarthNet.uav[34] simulationTime 259200
scalar OsgEarthNet.uav[35] utilizationSecMission 750.20472747826
scalar OsgEarthNet.uav[35] utilizationSecMaintenance 218.84515192887
scalar OsgEarthNet.uav[35] utilizationSecCharge 3590
scalar OsgEarthNet.uav[35] utilizationSecIdle 254640.94912059
scalar OsgEarthNet.uav[35] utilizationEnergyMission 3505.6058044434
scalar OsgEarthNet.uav[35] utilizationEnergyMaintenance 1027.1521224976
scalar OsgEarthNet.uav[35] utilizationEnergyCharge 4471.6591796875
scalar OsgEarthNet.uav[35] utilizationEnergyOverdrawMission 0
scalar OsgEarthNet.uav[35] utilizationEnergyOverdrawMaintenance 0
scalar OsgEarthNet.uav[35] utilizationCountMissions 1
scalar OsgEarthNet.uav[35] utilizationCountManeuversMission 11
scalar OsgEarthNet.uav[35] utilizationCountManeuversMaintenance 2
scalar OsgEarthNet.uav[35] utilizationCountChargeState 1
scalar OsgEarthNet.uav[35] utilizationCountOverdrawnAfterMission 0
scalar OsgEarthNet.uav[35] utilizationCountIdleState 2
scalar OsgEarthNet.uav[35] utilizationFail 0
scalar OsgEarthNet.uav[35] simulationTime 259200
scalar OsgEarthNet.uav[36] utilizationSecMission 7452.3776933731
scalar OsgEarthNet.uav[36] utilizationSecMaintenance 3045.3888777523
scalar OsgEarthNet.uav[36] utilizationSecCharge 39240
scalar OsgEarthNet.uav[36] utilizationSecIdle 209462.23242887
scalar OsgEarthNet.uav[36] utilizationEnergyMission 34668.696418762
scalar OsgEarthNet.uav[36] utilizationEnergyMaintenance 14273.663547516
scalar OsgEarthNet.uav[36] utilizationEnergyCharge 48636.125
scalar OsgEarthNet.uav[36] utilizationEnergyOverdrawMission 0
scalar OsgEarthNet.uav[36] utilizationEnergyOverdrawMaintenance 0
scalar OsgEarthNet.uav[36] utilizationCountMissions 11
scalar OsgEarthNet.uav[36] utilizationCountManeuversMission 127
scalar OsgEarthNet.uav[36] utilizationCountManeuversMaintenance 22
scalar OsgEarthNet.uav[36] utilizationCountChargeState 11
scalar OsgEarthNet.uav[36] utilizationCountOverdrawnAfterMission 0
scalar OsgEarthNet.uav[36] utilizationCountIdleState 12
scalar OsgEarthNet.uav[36] utilizationFail 0
scalar OsgEarthNet.uav[36] simulationTime 259200
scalar OsgEarthNet.uav[37] utilizationSecMission 26055.330895046
scalar OsgEarthNet.uav[37] utilizationSecMaintenance 13045.334252984
scalar OsgEarthNet.uav[37] utilizationSecCharge 145854.71625368
scalar OsgEarthNet.uav[37] utilizationSecIdle 74244.617598288
scalar OsgEarthNet.uav[37] utilizationEnergyMission 117776.70373535
scalar OsgEarthNet.uav[37] utilizationEnergyMaintenance 60420.021854401
scalar OsgEarthNet.uav[37] utilizationEnergyCharge 178674.39306641
scalar OsgEarthNet.uav[37] utilizationEnergyOverdrawMission 0
scalar OsgEarthNet.uav[37] utilizationEnergyOverdrawMaintenance 0
scalar OsgEarthNet.uav[37] utilizationCountMissions 42
scalar OsgEarthNet.uav[37] utilizationCountManeuversMission 430
scalar OsgEarthNet.uav[37] utilizationCountManeuversMaintenance 84
scalar OsgEarthNet.uav[37] utilizationCountChargeState 42
scalar OsgEarthNet.uav[37] utilizationCountOverdrawnAfterMission 0
scalar OsgEarthNet.uav[37] utilizationCountIdleState 42
scalar OsgEarthNet.uav[37] utilizationFail 0
scalar OsgEarthNet.uav[37] simulationTime 259200
scalar OsgEarthNet.uav[38] utilizationSecMission 694.00169469977
scalar OsgEarthNet.uav[38] utilizationSecMaintenance 338.49695459722
scalar OsgEarthNet.uav[38] utilizationSecCharge 3710
scalar OsgEarthNet.uav[38] utilizationSecIdle 254457.5003507
scalar OsgEarthNet.uav[38] utilizationEnergyMission 3088.0906066895
scalar OsgEarthNet.uav[38] utilizationEnergyMaintenance 1585.4699821472
scalar OsgEarthNet.uav[38] utilizationEnergyCharge 4673.5634765625
scalar OsgEarthNet.uav[38] utilizationEnergyOverdrawMission 0
scalar OsgEarthNet.uav[38] utilizationEnergyOverdrawMaintenance 0
scalar OsgEarthNet.uav[38] utilizationCountMissions 1
scalar OsgEarthNet.uav[38] utilizationCountManeuversMission 13
scalar OsgEarthNet.uav[38] utilizationCountManeuversMaintenance 2
scalar OsgEarthNet.uav[38] utilizationCountChargeState 1
scalar OsgEarthNet.uav[38] utilizationCountOverdrawnAfterMission 0
scalar OsgEarthNet.uav[38] utilizationCountIdleState 2
scalar OsgEarthNet.uav[38] utilizationFail 0
scalar OsgEarthNet.uav[38] simulationTime 259200
scalar OsgEarthNet.uav[39] utilizationSecMission 684.4732299383
scalar OsgEarthNet.uav[39] utilizationSecMaintenance 298.56834692969
scalar OsgEarthNet.uav[39] utilizationSecCharge 3710
scalar OsgEarthNet.uav[39] utilizationSecIdle 254506.95742313
scalar OsgEarthNet.uav[39] utilizationEnergyMission 3208.6017761231
scalar OsgEarthNet.uav[39] utilizationEnergyMaintenance 1450.9727096558
scalar OsgEarthNet.uav[39] utilizationEnergyCharge 4659.5727539062
scalar OsgEarthNet.uav[39] utilizationEnergyOverdrawMission 0
scalar OsgEarthNet.uav[39] utilizationEnergyOverdrawMaintenance 0
scalar OsgEarthNet.uav[39] utilizationCountMissions 1
scalar OsgEarthNet.uav[39] utilizationCountManeuversMission 11
scalar OsgEarthNet.uav[39] utilizationCountManeuversMaintenance 2
scalar OsgEarthNet.uav[39] utilizationCountChargeState 1
scalar OsgEarthNet.uav[39] utilizationCountOverdrawnAfterMission 0
scalar OsgEarthNet.uav[39] utilizationCountIdleState 2
scalar OsgEarthNet.uav[39] utilizationFail 0
scalar OsgEarthNet.uav[39] simulationTime 259200
scalar OsgEarthNet.uav[40] utilizationSecMission 24345.415474052
scalar OsgEarthNet.uav[40] utilizationSecMaintenance 9886.92035321
scalar OsgEarthNet.uav[40] utilizationSecCharge 127810
scalar OsgEarthNet.uav[40] utilizationSecIdle 97157.663172738
scalar OsgEarthNet.uav[40] utilizationEnergyMission 112428.9305954
scalar OsgEarthNet.uav[40] utilizationEnergyMaintenance 46745.115478516
scalar OsgEarthNet.uav[40] utilizationEnergyCharge 159170.80810547
scalar OsgEarthNet.uav[40] utilizationEnergyOverdrawMission 0
scalar OsgEarthNet.uav[40] utilizationEnergyOverdrawMaintenance 0
scalar OsgEarthNet.uav[40] utilizationCountMissions 35
scalar OsgEarthNet.uav[40] utilizationCountManeuversMission 407
scalar OsgEarthNet.uav[40] utilizationCountManeuversMaintenance 70
scalar OsgEarthNet.uav[40] utilizationCountChargeState 35
scalar OsgEarthNet.uav[40] utilizationCountOverdrawnAfterMission 0
scalar OsgEarthNet.uav[40] utilizationCountIdleState 36
scalar OsgEarthNet.uav[40] utilizationFail 0
scalar OsgEarthNet.uav[40] simulationTime 259200
scalar OsgEarthNet.uav[41] utilizationSecMission 8680.4011870612
scalar OsgEarthNet.uav[41] utilizationSecMaintenance 2651.5399339514
scalar OsgEarthNet.uav[41] utilizationSecCharge 41470
scalar OsgEarthNet.uav[41] utilizationSecIdle 206398.05787899
scalar OsgEarthNet.uav[41] utilizationEnergyMission 40573.316253662
scalar OsgEarthNet.uav[41] utilizationEnergyMaintenance 12153.649051666
scalar OsgEarthNet.uav[41] utilizationEnergyCharge 52307.430175781
scalar OsgEarthNet.uav[41] utilizationEnergyOverdrawMission 0
scalar OsgEarthNet.uav[41] utilizationEnergyOverdrawMaintenance 0
scalar OsgEarthNet.uav[41] utilizationCountMissions 11
scalar OsgEarthNet.uav[41] utilizationCountManeuversMission 144
scalar OsgEarthNet.uav[41] utilizationCountManeuversMaintenance 22
scalar OsgEarthNet.uav[41] utilizationCountChargeState 11
scalar OsgEarthNet.uav[41] utilizationCountOverdrawnAfterMission 0
scalar OsgEarthNet.uav[41] utilizationCountIdleState 12
scalar OsgEarthNet.uav[41] utilizationFail 0
scalar OsgEarthNet.uav[41] simulationTime 259200
scalar OsgEarthNet.uav[42] utilizationSecMission 750.20472747826
scalar OsgEarthNet.uav[42] utilizationSecMaintenance 218.84515192887
scalar OsgEarthNet.uav[42] utilizationSecCharge 3530
scalar OsgEarthNet.uav[42] utilizationSecIdle 254700.94912059
scalar OsgEarthNet.uav[42] utilizationEnergyMission 3489.6195678711
scalar OsgEarthNet.uav[42] utilizationEnergyMaintenance 847.31996917725
scalar OsgEarthNet.uav[42] utilizationEnergyCharge 4364.7534179688
scalar OsgEarthNet.uav[42] utilizationEnergyOverdrawMission 0
scalar OsgEarthNet.uav[42] utilizationEnergyOverdrawMaintenance 0
scalar OsgEarthNet.uav[42] utilizationCountMissions 1
scalar OsgEarthNet.uav[42] utilizationCountManeuversMission 11
scalar OsgEarthNet.uav[42] utilizationCountManeuversMaintenance 2
scalar OsgEarthNet.uav[42] utilizationCountChargeState 1
scalar OsgEarthNet.uav[42] utilizationCountOverdrawnAfterMission 0
scalar OsgEarthNet.uav[42] utilizationCountIdleState 2
scalar OsgEarthNet.uav[42] utilizationFail 0
scalar OsgEarthNet.uav[42] simulationTime 259200
scalar OsgEarthNet.uav[43] utilizationSecMission 760.62515258028
scalar OsgEarthNet.uav[43] utilizationSecMaintenance 223.6438949726
scalar OsgEarthNet.uav[43] utilizationSecCharge 3800
scalar OsgEarthNet.uav[43] utilizationSecIdle 254415.72995245
scalar OsgEarthNet.uav[43] utilizationEnergyMission 3738.9240646362
scalar OsgEarthNet.uav[43] utilizationEnergyMaintenance 1040.7166557312
scalar OsgEarthNet.uav[43] utilizationEnergyCharge 4779.6391601562
scalar OsgEarthNet.uav[43] utilizationEnergyOverdrawMission 0
scalar OsgEarthNet.uav[43] utilizationEnergyOverdrawMaintenance 0
scalar OsgEarthNet.uav[43] utilizationCountMissions 1
scalar OsgEarthNet.uav[43] utilizationCountManeuversMission 12
scalar OsgEarthNet.uav[43] utilizationCountManeuversMaintenance 2
scalar OsgEarthNet.uav[43] utilizationCountChargeState 1
scalar OsgEarthNet.uav[43] utilizationCountOverdrawnAfterMission 0
scalar OsgEarthNet.uav[43] utilizationCountIdleState 2
scalar OsgEarthNet.uav[43] utilizationFail 0
scalar OsgEarthNet.uav[43] simulationTime 259200
scalar OsgEarthNet.uav[44] utilizationSecMission 4454.1934064139
scalar OsgEarthNet.uav[44] utilizationSecMaintenance 1559.7636109277
scalar OsgEarthNet.uav[44] utilizationSecCharge 22330
scalar OsgEarthNet.uav[44] utilizationSecIdle 230856.04198266
scalar OsgEarthNet.uav[44] utilizationEnergyMission 20547.302368164
scalar OsgEarthNet.uav[44] utilizationEnergyMaintenance 7554.1544380188
scalar OsgEarthNet.uav[44] utilizationEnergyCharge 28101.465332031
scalar OsgEarthNet.uav[44] utilizationEnergyOverdrawMission 0
scalar OsgEarthNet.uav[44] utilizationEnergyOverdrawMaintenance 0
scalar OsgEarthNet.uav[44] utilizationCountMissions 6
scalar OsgEarthNet.uav[44] utilizationCountManeuversMission 74
scalar OsgEarthNet.uav[44] utilizationCountManeuversMaintenance 12
scalar OsgEarthNet.uav[44] utilizationCountChargeState 6
scalar OsgEarthNet.uav[44] utilizationCountOverdrawnAfterMission 0
scalar OsgEarthNet.uav[44] utilizationCountIdleState 7
scalar OsgEarthNet.uav[44] utilizationFail 0
scalar OsgEarthNet.uav[44] simulationTime 259200
scalar OsgEarthNet.uav[45] utilizationSecMission 31593.343472324
scalar OsgEarthNet.uav[45] utilizationSecMaintenance 12803.346277287
scalar OsgEarthNet.uav[45] utilizationSecCharge 166941.30925039
scalar OsgEarthNet.uav[45] utilizationSecIdle 47862
scalar OsgEarthNet.uav[45] utilizationEnergyMission 145859.32110275
scalar OsgEarthNet.uav[45] utilizationEnergyMaintenance 60118.119235992
scalar OsgEarthNet.uav[45] utilizationEnergyCharge 205991.10913086
scalar OsgEarthNet.uav[45] utilizationEnergyOverdrawMission 0
scalar OsgEarthNet.uav[45] utilizationEnergyOverdrawMaintenance 0
scalar OsgEarthNet.uav[45] utilizationCountMissions 47
scalar OsgEarthNet.uav[45] utilizationCountManeuversMission 502
scalar OsgEarthNet.uav[45] utilizationCountManeuversMaintenance 93
scalar OsgEarthNet.uav[45] utilizationCountChargeState 47
scalar OsgEarthNet.uav[45] utilizationCountOverdrawnAfterMission 0
scalar OsgEarthNet.uav[45] utilizationCountIdleState 47
scalar OsgEarthNet.uav[45] utilizationFail 0
scalar OsgEarthNet.uav[45] simulationTime 259200
scalar OsgEarthNet.uav[46] utilizationSecMission 31717.00947808
scalar OsgEarthNet.uav[46] utilizationSecMaintenance 11449.195716135
scalar OsgEarthNet.uav[46] utilizationSecCharge 160700.40168825
scalar OsgEarthNet.uav[46] utilizationSecIdle 55333.392117534
scalar OsgEarthNet.uav[46] utilizationEnergyMission 147928.63141632
scalar OsgEarthNet.uav[46] utilizationEnergyMaintenance 54776.56640625
scalar OsgEarthNet.uav[46] utilizationEnergyCharge 199898.015625
scalar OsgEarthNet.uav[46] utilizationEnergyOverdrawMission 0
scalar OsgEarthNet.uav[46] utilizationEnergyOverdrawMaintenance 0
scalar OsgEarthNet.uav[46] utilizationCountMissions 45
scalar OsgEarthNet.uav[46] utilizationCountManeuversMission 497
scalar OsgEarthNet.uav[46] utilizationCountManeuversMaintenance 90
scalar OsgEarthNet.uav[46] utilizationCountChargeState 45
scalar OsgEarthNet.uav[46] utilizationCountOverdrawnAfterMission 0
scalar OsgEarthNet.uav[46] utilizationCountIdleState 45
scalar OsgEarthNet.uav[46] utilizationFail 0
scalar OsgEarthNet.uav[46] simulationTime 259200
scalar OsgEarthNet.uav[47] utilizationSecMission 31512.164727167
scalar OsgEarthNet.uav[47] utilizationSecMaintenance 12154.379919009
scalar OsgEarthNet.uav[47] utilizationSecCharge 161671.45384644
scalar OsgEarthNet.uav[47] utilizationSecIdle 53862.000507383
scalar OsgEarthNet.uav[47] utilizationEnergyMission 145655.63244629
scalar OsgEarthNet.uav[47] utilizationEnergyMaintenance 57093.806022644
scalar OsgEarthNet.uav[47] utilizationEnergyCharge 201933.55175781
scalar OsgEarthNet.uav[47] utilizationEnergyOverdrawMission 0
scalar OsgEarthNet.uav[47] utilizationEnergyOverdrawMaintenance 0
scalar OsgEarthNet.uav[47] utilizationCountMissions 45
scalar OsgEarthNet.uav[47] utilizationCountManeuversMission 520
scalar OsgEarthNet.uav[47] utilizationCountManeuversMaintenance 90
scalar OsgEarthNet.uav[47] utilizationCountChargeState 45
scalar OsgEarthNet.uav[47] utilizationCountOverdrawnAfterMission 0
scalar OsgEarthNet.uav[47] utilizationCountIdleState 45
scalar OsgEarthNet.uav[47] utilizationFail 0
scalar OsgEarthNet.uav[47] simulationTime 259200
scalar OsgEarthNet.uav[48] utilizationSecMission 28935.23569768
scalar OsgEarthNet.uav[48] utilizationSecMaintenance 11081.68293008
scalar OsgEarthNet.uav[48] utilizationSecCharge 147335.63010821
scalar OsgEarthNet.uav[48] utilizationSecIdle 71847.450264031
scalar OsgEarthNet.uav[48] utilizationEnergyMission 135495.9108429
scalar OsgEarthNet.uav[48] utilizationEnergyMaintenance 51492.426643372
scalar OsgEarthNet.uav[48] utilizationEnergyCharge 184185.78955078
scalar OsgEarthNet.uav[48] utilizationEnergyOverdrawMission 0
scalar OsgEarthNet.uav[48] utilizationEnergyOverdrawMaintenance 0
scalar OsgEarthNet.uav[48] utilizationCountMissions 41
scalar OsgEarthNet.uav[48] utilizationCountManeuversMission 465
scalar OsgEarthNet.uav[48] utilizationCountManeuversMaintenance 82
scalar OsgEarthNet.uav[48] utilizationCountChargeState 41
scalar OsgEarthNet.uav[48] utilizationCountOverdrawnAfterMission 0
scalar OsgEarthNet.uav[48] utilizationCountIdleState 41
scalar OsgEarthNet.uav[48] utilizationFail 0
scalar OsgEarthNet.uav[48] simulationTime 259200
scalar OsgEarthNet.uav[49] utilizationSecMission 27532.977809359
scalar OsgEarthNet.uav[49] utilizationSecMaintenance 13416.927322857
scalar OsgEarthNet.uav[49] utilizationSecCharge 151917.04467795
scalar OsgEarthNet.uav[49] utilizationSecIdle 66333.049189831
scalar OsgEarthNet.uav[49] utilizationEnergyMission 127427.54460907
scalar OsgEarthNet.uav[49] utilizationEnergyMaintenance 62961.108119965
scalar OsgEarthNet.uav[49] utilizationEnergyCharge 186613.265625
scalar OsgEarthNet.uav[49] utilizationEnergyOverdrawMission 0
scalar OsgEarthNet.uav[49] utilizationEnergyOverdrawMaintenance 0
scalar OsgEarthNet.uav[49] utilizationCountMissions 44
scalar OsgEarthNet.uav[49] utilizationCountManeuversMission 460
scalar OsgEarthNet.uav[49] utilizationCountManeuversMaintenance 88
scalar OsgEarthNet.uav[49] utilizationCountChargeState 44
scalar OsgEarthNet.uav[49] utilizationCountOverdrawnAfterMission 0
scalar OsgEarthNet.uav[49] utilizationCountIdleState 44
scalar OsgEarthNet.uav[49] utilizationFail 0
scalar OsgEarthNet.uav[49] simulationTime 259200
scalar OsgEarthNet.uav[50] utilizationSecMission 760.62515258028
scalar OsgEarthNet.uav[50] utilizationSecMaintenance 291.95923480269
scalar OsgEarthNet.uav[50] utilizationSecCharge 3890
scalar OsgEarthNet.uav[50] utilizationSecIdle 254257.41461262
scalar OsgEarthNet.uav[50] utilizationEnergyMission 3459.4676818848
scalar OsgEarthNet.uav[50] utilizationEnergyMaintenance 1414.1442184448
scalar OsgEarthNet.uav[50] utilizationEnergyCharge 4873.6118164062
scalar OsgEarthNet.uav[50] utilizationEnergyOverdrawMission 0
scalar OsgEarthNet.uav[50] utilizationEnergyOverdrawMaintenance 0
scalar OsgEarthNet.uav[50] utilizationCountMissions 1
scalar OsgEarthNet.uav[50] utilizationCountManeuversMission 12
scalar OsgEarthNet.uav[50] utilizationCountManeuversMaintenance 2
scalar OsgEarthNet.uav[50] utilizationCountChargeState 1
scalar OsgEarthNet.uav[50] utilizationCountOverdrawnAfterMission 0
scalar OsgEarthNet.uav[50] utilizationCountIdleState 2
scalar OsgEarthNet.uav[50] utilizationFail 0
scalar OsgEarthNet.uav[50] simulationTime 259200
scalar OsgEarthNet.uav[51] utilizationSecMission 27225.003911239
scalar OsgEarthNet.uav[51] utilizationSecMaintenance 10640.569076758
scalar OsgEarthNet.uav[51] utilizationSecCharge 140570.08575473
scalar OsgEarthNet.uav[51] utilizationSecIdle 80764.340257274
scalar OsgEarthNet.uav[51] utilizationEnergyMission 125736.818573
scalar OsgEarthNet.uav[51] utilizationEnergyMaintenance 49893.685054779
scalar OsgEarthNet.uav[51] utilizationEnergyCharge 174285.71679688
scalar OsgEarthNet.uav[51] utilizationEnergyOverdrawMission 0
scalar OsgEarthNet.uav[51] utilizationEnergyOverdrawMaintenance 0
scalar OsgEarthNet.uav[51] utilizationCountMissions 40
scalar OsgEarthNet.uav[51] utilizationCountManeuversMission 431
scalar OsgEarthNet.uav[51] utilizationCountManeuversMaintenance 80
scalar OsgEarthNet.uav[51] utilizationCountChargeState 40
scalar OsgEarthNet.uav[51] utilizationCountOverdrawnAfterMission 0
scalar OsgEarthNet.uav[51] utilizationCountIdleState 40
scalar OsgEarthNet.uav[51] utilizationFail 0
scalar OsgEarthNet.uav[51] simulationTime 259200
scalar OsgEarthNet.uav[52] utilizationSecMission 694.00169469977
scalar OsgEarthNet.uav[52] utilizationSecMaintenance 338.49695459722
scalar OsgEarthNet.uav[52] utilizationSecCharge 3810
scalar OsgEarthNet.uav[52] utilizationSecIdle 254357.5003507
scalar OsgEarthNet.uav[52] utilizationEnergyMission 3350.6871261597
scalar OsgEarthNet.uav[52] utilizationEnergyMaintenance 1494.4736442566
scalar OsgEarthNet.uav[52] utilizationEnergyCharge 4845.1645507812
scalar OsgEarthNet.uav[52] utilizationEnergyOverdrawMission 0
scalar OsgEarthNet.uav[52] utilizationEnergyOverdrawMaintenance 0
scalar OsgEarthNet.uav[52] utilizationCountMissions 1
scalar OsgEarthNet.uav[52] utilizationCountManeuversMission 13
scalar OsgEarthNet.uav[52] utilizationCountManeuversMaintenance 2
scalar OsgEarthNet.uav[52] utilizationCountChargeState 1
scalar OsgEarthNet.uav[52] utilizationCountOverdrawnAfterMission 0
scalar OsgEarthNet.uav[52] utilizationCountIdleState 2
scalar OsgEarthNet.uav[52] utilizationFail 0
scalar OsgEarthNet.uav[52] simulationTime 259200
scalar OsgEarthNet.uav[53] utilizationSecMission 570.98871244881
scalar OsgEarthNet.uav[53] utilizationSecMaintenance 276.2282017063
scalar OsgEarthNet.uav[53] utilizationSecCharge 3440
scalar OsgEarthNet.uav[53] utilizationSecIdle 254912.78208584
scalar OsgEarthNet.uav[53] utilizationEnergyMission 2904.6673126221
scalar OsgEarthNet.uav[53] utilizationEnergyMaintenance 1293.6610527039
scalar OsgEarthNet.uav[53] utilizationEnergyCharge 4198.3310546875
scalar OsgEarthNet.uav[53] utilizationEnergyOverdrawMission 0
scalar OsgEarthNet.uav[53] utilizationEnergyOverdrawMaintenance 0
scalar OsgEarthNet.uav[53] utilizationCountMissions 1
scalar OsgEarthNet.uav[53] utilizationCountManeuversMission 8
scalar OsgEarthNet.uav[53] utilizationCountManeuversMaintenance 2
scalar OsgEarthNet.uav[53] utilizationCountChargeState 1
scalar OsgEarthNet.uav[53] utilizationCountOverdrawnAfterMission 0
scalar OsgEarthNet.uav[53] utilizationCountIdleState 2
scalar OsgEarthNet.uav[53] utilizationFail 0
scalar OsgEarthNet.uav[53] simulationTime 259200
scalar OsgEarthNet.uav[54] utilizationSecMission 29454.096665136
scalar OsgEarthNet.uav[54] utilizationSecMaintenance 12703.446993339
scalar OsgEarthNet.uav[54] utilizationSecCharge 157075.84314666
scalar OsgEarthNet.uav[54] utilizationSecIdle 59966.612194868
scalar OsgEarthNet.uav[54] utilizationEnergyMission 136242.20688629
scalar OsgEarthNet.uav[54] utilizationEnergyMaintenance 60115.362567902
scalar OsgEarthNet.uav[54] utilizationEnergyCharge 195476.29785156
scalar OsgEarthNet.uav[54] utilizationEnergyOverdrawMission 0
scalar OsgEarthNet.uav[54] utilizationEnergyOverdrawMaintenance 0
scalar OsgEarthNet.uav[54] utilizationCountMissions 44
scalar OsgEarthNet.uav[54] utilizationCountManeuversMission 481
scalar OsgEarthNet.uav[54] utilizationCountManeuversMaintenance 88
scalar OsgEarthNet.uav[54] utilizationCountChargeState 44
scalar OsgEarthNet.uav[54] utilizationCountOverdrawnAfterMission 0
scalar OsgEarthNet.uav[54] utilizationCountIdleState 44
scalar OsgEarthNet.uav[54] utilizationFail 0
scalar OsgEarthNet.uav[54] simulationTime 259200
scalar OsgEarthNet.uav[55] utilizationSecMission 929.66633852757
scalar OsgEarthNet.uav[55] utilizationSecMaintenance 183.39004742748
scalar OsgEarthNet.uav[55] utilizationSecCharge 3800
scalar OsgEarthNet.uav[55] utilizationSecIdle 254286.94261404
scalar OsgEarthNet.uav[55] utilizationEnergyMission 4076.3070373535
scalar OsgEarthNet.uav[55] utilizationEnergyMaintenance 878.17540740967
scalar OsgEarthNet.uav[55] utilizationEnergyCharge 4854.2607421875
scalar OsgEarthNet.uav[55] utilizationEnergyOverdrawMission 0
scalar OsgEarthNet.uav[55] utilizationEnergyOverdrawMaintenance 0
scalar OsgEarthNet.uav[55] utilizationCountMissions 1
scalar OsgEarthNet.uav[55] utilizationCountManeuversMission 15
scalar OsgEarthNet.uav[55] utilizationCountManeuversMaintenance 2
scalar OsgEarthNet.uav[55] utilizationCountChargeState 1
scalar OsgEarthNet.uav[55] utilizationCountOverdrawnAfterMission 0
scalar OsgEarthNet.uav[55] utilizationCountIdleState 2
scalar OsgEarthNet.uav[55] utilizationFail 0
scalar OsgEarthNet.uav[55] simulationTime 259200
scalar OsgEarthNet.uav[56] utilizationSecMission 11007.876435047
scalar OsgEarthNet.uav[56] utilizationSecMaintenance 6388.0640883908
scalar OsgEarthNet.uav[56] utilizationSecCharge 67420
scalar OsgEarthNet.uav[56] utilizationSecIdle 174384.05847656
scalar OsgEarthNet.uav[56] utilizationEnergyMission 51214.533622742
scalar OsgEarthNet.uav[56] utilizationEnergyMaintenance 30056.343410492
scalar OsgEarthNet.uav[56] utilizationEnergyCharge 81270.886230469
scalar OsgEarthNet.uav[56] utilizationEnergyOverdrawMission 0
scalar OsgEarthNet.uav[56] utilizationEnergyOverdrawMaintenance 0
scalar OsgEarthNet.uav[56] utilizationCountMissions 20
scalar OsgEarthNet.uav[56] utilizationCountManeuversMission 185
scalar OsgEarthNet.uav[56] utilizationCountManeuversMaintenance 40
scalar OsgEarthNet.uav[56] utilizationCountChargeState 20
scalar OsgEarthNet.uav[56] utilizationCountOverdrawnAfterMission 0
scalar OsgEarthNet.uav[56] utilizationCountIdleState 21
scalar OsgEarthNet.uav[56] utilizationFail 0
scalar OsgEarthNet.uav[56] simulationTime 259200
scalar OsgEarthNet.uav[57] utilizationSecMission 608.41235740769
scalar OsgEarthNet.uav[57] utilizationSecMaintenance 411.08654793843
scalar OsgEarthNet.uav[57] utilizationSecCharge 3740
scalar OsgEarthNet.uav[57] utilizationSecIdle 254440.50009465
scalar OsgEarthNet.uav[57] utilizationEnergyMission 2780.134185791
scalar OsgEarthNet.uav[57] utilizationEnergyMaintenance 1933.1600570679
scalar OsgEarthNet.uav[57] utilizationEnergyCharge 4713.2915039062
scalar OsgEarthNet.uav[57] utilizationEnergyOverdrawMission 0
scalar OsgEarthNet.uav[57] utilizationEnergyOverdrawMaintenance 0
scalar OsgEarthNet.uav[57] utilizationCountMissions 1
scalar OsgEarthNet.uav[57] utilizationCountManeuversMission 11
scalar OsgEarthNet.uav[57] utilizationCountManeuversMaintenance 2
scalar OsgEarthNet.uav[57] utilizationCountChargeState 1
scalar OsgEarthNet.uav[57] utilizationCountOverdrawnAfterMission 0
scalar OsgEarthNet.uav[57] utilizationCountIdleState 2
scalar OsgEarthNet.uav[57] utilizationFail 0
scalar OsgEarthNet.uav[57] simulationTime 259200
scalar OsgEarthNet.uav[58] utilizationSecMission 25935.73080154
scalar OsgEarthNet.uav[58] utilizationSecMaintenance 10954.971044271
scalar OsgEarthNet.uav[58] utilizationSecCharge 136325.61396411
scalar OsgEarthNet.uav[58] utilizationSecIdle 85983.683190079
scalar OsgEarthNet.uav[58] utilizationEnergyMission 120286.53046417
scalar OsgEarthNet.uav[58] utilizationEnergyMaintenance 51767.459960938
scalar OsgEarthNet.uav[58] utilizationEnergyCharge 168852.125
scalar OsgEarthNet.uav[58] utilizationEnergyOverdrawMission 0
scalar OsgEarthNet.uav[58] utilizationEnergyOverdrawMaintenance 0
scalar OsgEarthNet.uav[58] utilizationCountMissions 39
scalar OsgEarthNet.uav[58] utilizationCountManeuversMission 416
scalar OsgEarthNet.uav[58] utilizationCountManeuversMaintenance 78
scalar OsgEarthNet.uav[58] utilizationCountChargeState 39
scalar OsgEarthNet.uav[58] utilizationCountOverdrawnAfterMission 0
scalar OsgEarthNet.uav[58] utilizationCountIdleState 39
scalar OsgEarthNet.uav[58] utilizationFail 0
scalar OsgEarthNet.uav[58] simulationTime 259200
scalar OsgEarthNet.uav[59] utilizationSecMission 760.62515258028
scalar OsgEarthNet.uav[59] utilizationSecMaintenance 223.6438949726
scalar OsgEarthNet.uav[59] utilizationSecCharge 3720
scalar OsgEarthNet.uav[59] utilizationSecIdle 254495.72995245
scalar OsgEarthNet.uav[59] utilizationEnergyMission 3589.141494751
scalar OsgEarthNet.uav[59] utilizationEnergyMaintenance 1082.7753715515
scalar OsgEarthNet.uav[59] utilizationEnergyCharge 4671.919921875
scalar OsgEarthNet.uav[59] utilizationEnergyOverdrawMission 0
scalar OsgEarthNet.uav[59] utilizationEnergyOverdrawMaintenance 0
scalar OsgEarthNet.uav[59] utilizationCountMissions 1
scalar OsgEarthNet.uav[59] utilizationCountManeuversMission 12
scalar OsgEarthNet.uav[59] utilizationCountManeuversMaintenance 2
scalar OsgEarthNet.uav[59] utilizationCountChargeState 1
scalar OsgEarthNet.uav[59] utilizationCountOverdrawnAfterMission 0
scalar OsgEarthNet.uav[59] utilizationCountIdleState 2
scalar OsgEarthNet.uav[59] utilizationFail 0
scalar OsgEarthNet.uav[59] simulationTime 259200
scalar OsgEarthNet.uav[60] utilizationSecMission 179.21601502944
scalar OsgEarthNet.uav[60] utilizationSecMaintenance 354.43405905663
scalar OsgEarthNet.uav[60] utilizationSecCharge 2520
scalar OsgEarthNet.uav[60] utilizationSecIdle 256146.34892591
scalar OsgEarthNet.uav[60] utilizationEnergyMission 752.48550415039
scalar OsgEarthNet.uav[60] utilizationEnergyMaintenance 1849.1416854858
scalar OsgEarthNet.uav[60] utilizationEnergyCharge 2601.6242675781
scalar OsgEarthNet.uav[60] utilizationEnergyOverdrawMission 0
scalar OsgEarthNet.uav[60] utilizationEnergyOverdrawMaintenance 0
scalar OsgEarthNet.uav[60] utilizationCountMissions 1
scalar OsgEarthNet.uav[60] utilizationCountManeuversMission 3
scalar OsgEarthNet.uav[60] utilizationCountManeuversMaintenance 2
scalar OsgEarthNet.uav[60] utilizationCountChargeState 1
scalar OsgEarthNet.uav[60] utilizationCountOverdrawnAfterMission 0
scalar OsgEarthNet.uav[60] utilizationCountIdleState 2
scalar OsgEarthNet.uav[60] utilizationFail 0
scalar OsgEarthNet.uav[60] simulationTime 259200
scalar OsgEarthNet.uav[61] utilizationSecMission 31023.99733159
scalar OsgEarthNet.uav[61] utilizationSecMaintenance 13021.277855252
scalar OsgEarthNet.uav[61] utilizationSecCharge 162574.02610702
scalar OsgEarthNet.uav[61] utilizationSecIdle 52580.69770614
scalar OsgEarthNet.uav[61] utilizationEnergyMission 143247.46025848
scalar OsgEarthNet.uav[61] utilizationEnergyMaintenance 61412.481712341
scalar OsgEarthNet.uav[61] utilizationEnergyCharge 203572.2746582
scalar OsgEarthNet.uav[61] utilizationEnergyOverdrawMission 0
scalar OsgEarthNet.uav[61] utilizationEnergyOverdrawMaintenance 0
scalar OsgEarthNet.uav[61] utilizationCountMissions 45
scalar OsgEarthNet.uav[61] utilizationCountManeuversMission 516
scalar OsgEarthNet.uav[61] utilizationCountManeuversMaintenance 90
scalar OsgEarthNet.uav[61] utilizationCountChargeState 45
scalar OsgEarthNet.uav[61] utilizationCountOverdrawnAfterMission 0
scalar OsgEarthNet.uav[61] utilizationCountIdleState 45
scalar OsgEarthNet.uav[61] utilizationFail 0
scalar OsgEarthNet.uav[61] simulationTime 259200
scalar OsgEarthNet.uav[62] utilizationSecMission 28809.183561254
scalar OsgEarthNet.uav[62] utilizationSecMaintenance 12647.540357743
scalar OsgEarthNet.uav[62] utilizationSecCharge 155057.23898223
scalar OsgEarthNet.uav[62] utilizationSecIdle 62686.036098769
scalar OsgEarthNet.uav[62] utilizationEnergyMission 134155.00702667
scalar OsgEarthNet.uav[62] utilizationEnergyMaintenance 58572.421180725
scalar OsgEarthNet.uav[62] utilizationEnergyCharge 192175.56835938
scalar OsgEarthNet.uav[62] utilizationEnergyOverdrawMission 0
scalar OsgEarthNet.uav[62] utilizationEnergyOverdrawMaintenance 0
scalar OsgEarthNet.uav[62] utilizationCountMissions 44
scalar OsgEarthNet.uav[62] utilizationCountManeuversMission 482
scalar OsgEarthNet.uav[62] utilizationCountManeuversMaintenance 88
scalar OsgEarthNet.uav[62] utilizationCountChargeState 44
scalar OsgEarthNet.uav[62] utilizationCountOverdrawnAfterMission 0
scalar OsgEarthNet.uav[62] utilizationCountIdleState 44
scalar OsgEarthNet.uav[62] utilizationFail 0
scalar OsgEarthNet.uav[62] simulationTime 259200
scalar OsgEarthNet.uav[63] utilizationSecMission 581.19640448947
scalar OsgEarthNet.uav[63] utilizationSecMaintenance 393.71026136566
scalar OsgEarthNet.uav[63] utilizationSecCharge 3740
scalar OsgEarthNet.uav[63] utilizationSecIdle 254485.09233414
scalar OsgEarthNet.uav[63] utilizationEnergyMission 2789.0287628174
scalar OsgEarthNet.uav[63] utilizationEnergyMaintenance 1859.8728561401
scalar OsgEarthNet.uav[63] utilizationEnergyCharge 4709.802734375
scalar OsgEarthNet.uav[63] utilizationEnergyOverdrawMission 0
scalar OsgEarthNet.uav[63] utilizationEnergyOverdrawMaintenance 0
scalar OsgEarthNet.uav[63] utilizationCountMissions 1
scalar OsgEarthNet.uav[63] utilizationCountManeuversMission 9
scalar OsgEarthNet.uav[63] utilizationCountManeuversMaintenance 2
scalar OsgEarthNet.uav[63] utilizationCountChargeState 1
scalar OsgEarthNet.uav[63] utilizationCountOverdrawnAfterMission 0
scalar OsgEarthNet.uav[63] utilizationCountIdleState 2
scalar OsgEarthNet.uav[63] utilizationFail 0
scalar OsgEarthNet.uav[63] simulationTime 259200
scalar OsgEarthNet.uav[64] utilizationSecMission 4586.0694887587
scalar OsgEarthNet.uav[64] utilizationSecMaintenance 1994.0921768018
scalar OsgEarthNet.uav[64] utilizationSecCharge 22578.459355642
scalar OsgEarthNet.uav[64] utilizationSecIdle 230041.3779788
scalar OsgEarthNet.uav[64] utilizationEnergyMission 20918.962837219
scalar OsgEarthNet.uav[64] utilizationEnergyMaintenance 9490.1569824219
scalar OsgEarthNet.uav[64] utilizationEnergyCharge 28379.728759766
scalar OsgEarthNet.uav[64] utilizationEnergyOverdrawMission 0
scalar OsgEarthNet.uav[64] utilizationEnergyOverdrawMaintenance 0
scalar OsgEarthNet.uav[64] utilizationCountMissions 7
scalar OsgEarthNet.uav[64] utilizationCountManeuversMission 78
scalar OsgEarthNet.uav[64] utilizationCountManeuversMaintenance 14
scalar OsgEarthNet.uav[64] utilizationCountChargeState 7
scalar OsgEarthNet.uav[64] utilizationCountOverdrawnAfterMission 0
scalar OsgEarthNet.uav[64] utilizationCountIdleState 7
scalar OsgEarthNet.uav[64] utilizationFail 0
scalar OsgEarthNet.uav[64] simulationTime 259200
scalar OsgEarthNet.uav[65] utilizationSecMission 15576.85541844
scalar OsgEarthNet.uav[65] utilizationSecMaintenance 6126.5510326312
scalar OsgEarthNet.uav[65] utilizationSecCharge 81430
scalar OsgEarthNet.uav[65] utilizationSecIdle 156066.59254893
[...]
scalar OsgEarthNet.uav[82] utilizationSecIdle 254156.94261404
scalar OsgEarthNet.uav[82] utilizationEnergyMission 4323.748916626
scalar OsgEarthNet.uav[82] utilizationEnergyMaintenance 893.50542449951
scalar OsgEarthNet.uav[82] utilizationEnergyCharge 5044.8227539062
scalar OsgEarthNet.uav[82] utilizationEnergyOverdrawMission 0
scalar OsgEarthNet.uav[82] utilizationEnergyOverdrawMaintenance 0
scalar OsgEarthNet.uav[82] utilizationCountMissions 1
scalar OsgEarthNet.uav[82] utilizationCountManeuversMission 15
scalar OsgEarthNet.uav[82] utilizationCountManeuversMaintenance 2
scalar OsgEarthNet.uav[82] utilizationCountChargeState 1
scalar OsgEarthNet.uav[82] utilizationCountOverdrawnAfterMission 0
scalar OsgEarthNet.uav[82] utilizationCountIdleState 2
scalar OsgEarthNet.uav[82] utilizationFail 0
scalar OsgEarthNet.uav[82] simulationTime 259200
scalar OsgEarthNet.uav[83] utilizationSecMission 836.77707522227
scalar OsgEarthNet.uav[83] utilizationSecMaintenance 217.0347828456
scalar OsgEarthNet.uav[83] utilizationSecCharge 3650
scalar OsgEarthNet.uav[83] utilizationSecIdle 254496.18714193
scalar OsgEarthNet.uav[83] utilizationEnergyMission 3627.9687957764
scalar OsgEarthNet.uav[83] utilizationEnergyMaintenance 940.41175460815
scalar OsgEarthNet.uav[83] utilizationEnergyCharge 4568.3837890625
scalar OsgEarthNet.uav[83] utilizationEnergyOverdrawMission 0
scalar OsgEarthNet.uav[83] utilizationEnergyOverdrawMaintenance 0
scalar OsgEarthNet.uav[83] utilizationCountMissions 1
scalar OsgEarthNet.uav[83] utilizationCountManeuversMission 13
scalar OsgEarthNet.uav[83] utilizationCountManeuversMaintenance 2
scalar OsgEarthNet.uav[83] utilizationCountChargeState 1
scalar OsgEarthNet.uav[83] utilizationCountOverdrawnAfterMission 0
scalar OsgEarthNet.uav[83] utilizationCountIdleState 2
scalar OsgEarthNet.uav[83] utilizationFail 0
scalar OsgEarthNet.uav[83] simulationTime 259200
scalar OsgEarthNet.uav[84] utilizationSecMission 23109.394654309
scalar OsgEarthNet.uav[84] utilizationSecMaintenance 10962.508315587
scalar OsgEarthNet.uav[84] utilizationSecCharge 126995.4730284
scalar OsgEarthNet.uav[84] utilizationSecIdle 98132.623001708
scalar OsgEarthNet.uav[84] utilizationEnergyMission 107565.73860168
scalar OsgEarthNet.uav[84] utilizationEnergyMaintenance 50504.590805054
scalar OsgEarthNet.uav[84] utilizationEnergyCharge 158174.90161133
scalar OsgEarthNet.uav[84] utilizationEnergyOverdrawMission 0
scalar OsgEarthNet.uav[84] utilizationEnergyOverdrawMaintenance 0
scalar OsgEarthNet.uav[84] utilizationCountMissions 36
scalar OsgEarthNet.uav[84] utilizationCountManeuversMission 377
scalar OsgEarthNet.uav[84] utilizationCountManeuversMaintenance 72
scalar OsgEarthNet.uav[84] utilizationCountChargeState 36
scalar OsgEarthNet.uav[84] utilizationCountOverdrawnAfterMission 0
scalar OsgEarthNet.uav[84] utilizationCountIdleState 36
scalar OsgEarthNet.uav[84] utilizationFail 0
scalar OsgEarthNet.uav[84] simulationTime 259200
scalar OsgEarthNet.uav[85] utilizationSecMission 750.20472747826
scalar OsgEarthNet.uav[85] utilizationSecMaintenance 218.84515192887
scalar OsgEarthNet.uav[85] utilizationSecCharge 3390
scalar OsgEarthNet.uav[85] utilizationSecIdle 254840.94912059
scalar OsgEarthNet.uav[85] utilizationEnergyMission 3156.0437011719
scalar OsgEarthNet.uav[85] utilizationEnergyMaintenance 935.59191131592
scalar OsgEarthNet.uav[85] utilizationEnergyCharge 4127.4897460938
scalar OsgEarthNet.uav[85] utilizationEnergyOverdrawMission 0
scalar OsgEarthNet.uav[85] utilizationEnergyOverdrawMaintenance 0
scalar OsgEarthNet.uav[85] utilizationCountMissions 1
scalar OsgEarthNet.uav[85] utilizationCountManeuversMission 11
scalar OsgEarthNet.uav[85] utilizationCountManeuversMaintenance 2
scalar OsgEarthNet.uav[85] utilizationCountChargeState 1
scalar OsgEarthNet.uav[85] utilizationCountOverdrawnAfterMission 0
scalar OsgEarthNet.uav[85] utilizationCountIdleState 2
scalar OsgEarthNet.uav[85] utilizationFail 0
scalar OsgEarthNet.uav[85] simulationTime 259200
scalar OsgEarthNet.uav[86] utilizationSecMission 570.98871244881
scalar OsgEarthNet.uav[86] utilizationSecMaintenance 276.2282017063
scalar OsgEarthNet.uav[86] utilizationSecCharge 3320
scalar OsgEarthNet.uav[86] utilizationSecIdle 255032.78208584
scalar OsgEarthNet.uav[86] utilizationEnergyMission 2780.755279541
scalar OsgEarthNet.uav[86] utilizationEnergyMaintenance 1210.6082878113
scalar OsgEarthNet.uav[86] utilizationEnergyCharge 3991.3647460938
scalar OsgEarthNet.uav[86] utilizationEnergyOverdrawMission 0
scalar OsgEarthNet.uav[86] utilizationEnergyOverdrawMaintenance 0
scalar OsgEarthNet.uav[86] utilizationCountMissions 1
scalar OsgEarthNet.uav[86] utilizationCountManeuversMission 8
scalar OsgEarthNet.uav[86] utilizationCountManeuversMaintenance 2
scalar OsgEarthNet.uav[86] utilizationCountChargeState 1
scalar OsgEarthNet.uav[86] utilizationCountOverdrawnAfterMission 0
scalar OsgEarthNet.uav[86] utilizationCountIdleState 2
scalar OsgEarthNet.uav[86] utilizationFail 0
scalar OsgEarthNet.uav[86] simulationTime 259200
scalar OsgEarthNet.uav[87] utilizationSecMission 27093.196463205
scalar OsgEarthNet.uav[87] utilizationSecMaintenance 11942.21586799
scalar OsgEarthNet.uav[87] utilizationSecCharge 144370.91949016
scalar OsgEarthNet.uav[87] utilizationSecIdle 75793.667178648
scalar OsgEarthNet.uav[87] utilizationEnergyMission 124950.59764099
scalar OsgEarthNet.uav[87] utilizationEnergyMaintenance 55494.776161194
scalar OsgEarthNet.uav[87] utilizationEnergyCharge 179095.16943359
scalar OsgEarthNet.uav[87] utilizationEnergyOverdrawMission 0
scalar OsgEarthNet.uav[87] utilizationEnergyOverdrawMaintenance 5.6045722961426
scalar OsgEarthNet.uav[87] utilizationCountMissions 41
scalar OsgEarthNet.uav[87] utilizationCountManeuversMission 426
scalar OsgEarthNet.uav[87] utilizationCountManeuversMaintenance 82
scalar OsgEarthNet.uav[87] utilizationCountChargeState 41
scalar OsgEarthNet.uav[87] utilizationCountOverdrawnAfterMission 1
scalar OsgEarthNet.uav[87] utilizationCountIdleState 41
scalar OsgEarthNet.uav[87] utilizationFail 0
scalar OsgEarthNet.uav[87] simulationTime 259200
scalar OsgEarthNet.uav[88] utilizationSecMission 694.00169469977
scalar OsgEarthNet.uav[88] utilizationSecMaintenance 338.49695459722
scalar OsgEarthNet.uav[88] utilizationSecCharge 3820
scalar OsgEarthNet.uav[88] utilizationSecIdle 254347.5003507
scalar OsgEarthNet.uav[88] utilizationEnergyMission 3245.1697006226
scalar OsgEarthNet.uav[88] utilizationEnergyMaintenance 1648.6493644714
scalar OsgEarthNet.uav[88] utilizationEnergyCharge 4893.8237304688
scalar OsgEarthNet.uav[88] utilizationEnergyOverdrawMission 0
scalar OsgEarthNet.uav[88] utilizationEnergyOverdrawMaintenance 0
scalar OsgEarthNet.uav[88] utilizationCountMissions 1
scalar OsgEarthNet.uav[88] utilizationCountManeuversMission 13
scalar OsgEarthNet.uav[88] utilizationCountManeuversMaintenance 2
scalar OsgEarthNet.uav[88] utilizationCountChargeState 1
scalar OsgEarthNet.uav[88] utilizationCountOverdrawnAfterMission 0
scalar OsgEarthNet.uav[88] utilizationCountIdleState 2
scalar OsgEarthNet.uav[88] utilizationFail 0
scalar OsgEarthNet.uav[88] simulationTime 259200
scalar OsgEarthNet.uav[89] utilizationSecMission 760.62515258028
scalar OsgEarthNet.uav[89] utilizationSecMaintenance 223.6438949726
scalar OsgEarthNet.uav[89] utilizationSecCharge 3780
scalar OsgEarthNet.uav[89] utilizationSecIdle 254435.72995245
scalar OsgEarthNet.uav[89] utilizationEnergyMission 3641.3259429932
scalar OsgEarthNet.uav[89] utilizationEnergyMaintenance 1131.3007926941
scalar OsgEarthNet.uav[89] utilizationEnergyCharge 4772.6279296875
scalar OsgEarthNet.uav[89] utilizationEnergyOverdrawMission 0
scalar OsgEarthNet.uav[89] utilizationEnergyOverdrawMaintenance 0
scalar OsgEarthNet.uav[89] utilizationCountMissions 1
scalar OsgEarthNet.uav[89] utilizationCountManeuversMission 12
scalar OsgEarthNet.uav[89] utilizationCountManeuversMaintenance 2
scalar OsgEarthNet.uav[89] utilizationCountChargeState 1
scalar OsgEarthNet.uav[89] utilizationCountOverdrawnAfterMission 0
scalar OsgEarthNet.uav[89] utilizationCountIdleState 2
scalar OsgEarthNet.uav[89] utilizationFail 0
scalar OsgEarthNet.uav[89] simulationTime 259200
scalar OsgEarthNet.uav[90] utilizationSecMission 836.77707522227
scalar OsgEarthNet.uav[90] utilizationSecMaintenance 217.0347828456
scalar OsgEarthNet.uav[90] utilizationSecCharge 3790
scalar OsgEarthNet.uav[90] utilizationSecIdle 254356.18714193
scalar OsgEarthNet.uav[90] utilizationEnergyMission 3681.4929351807
scalar OsgEarthNet.uav[90] utilizationEnergyMaintenance 1105.3632316589
scalar OsgEarthNet.uav[90] utilizationEnergyCharge 4786.8544921875
scalar OsgEarthNet.uav[90] utilizationEnergyOverdrawMission 0
scalar OsgEarthNet.uav[90] utilizationEnergyOverdrawMaintenance 0
scalar OsgEarthNet.uav[90] utilizationCountMissions 1
scalar OsgEarthNet.uav[90] utilizationCountManeuversMission 13
scalar OsgEarthNet.uav[90] utilizationCountManeuversMaintenance 2
scalar OsgEarthNet.uav[90] utilizationCountChargeState 1
scalar OsgEarthNet.uav[90] utilizationCountOverdrawnAfterMission 0
scalar OsgEarthNet.uav[90] utilizationCountIdleState 2
scalar OsgEarthNet.uav[90] utilizationFail 0
scalar OsgEarthNet.uav[90] simulationTime 259200
scalar OsgEarthNet.uav[91] utilizationSecMission 24881.760733806
scalar OsgEarthNet.uav[91] utilizationSecMaintenance 13958.08546278
scalar OsgEarthNet.uav[91] utilizationSecCharge 148430
scalar OsgEarthNet.uav[91] utilizationSecIdle 71930.152803414
scalar OsgEarthNet.uav[91] utilizationEnergyMission 114318.84242249
scalar OsgEarthNet.uav[91] utilizationEnergyMaintenance 64781.29920578
scalar OsgEarthNet.uav[91] utilizationEnergyCharge 179154.23730469
scalar OsgEarthNet.uav[91] utilizationEnergyOverdrawMission 0
scalar OsgEarthNet.uav[91] utilizationEnergyOverdrawMaintenance 0
scalar OsgEarthNet.uav[91] utilizationCountMissions 44
scalar OsgEarthNet.uav[91] utilizationCountManeuversMission 415
scalar OsgEarthNet.uav[91] utilizationCountManeuversMaintenance 88
scalar OsgEarthNet.uav[91] utilizationCountChargeState 44
scalar OsgEarthNet.uav[91] utilizationCountOverdrawnAfterMission 0
scalar OsgEarthNet.uav[91] utilizationCountIdleState 45
scalar OsgEarthNet.uav[91] utilizationFail 0
scalar OsgEarthNet.uav[91] simulationTime 259200
scalar OsgEarthNet.uav[92] utilizationSecMission 8570.1787707703
scalar OsgEarthNet.uav[92] utilizationSecMaintenance 4474.8095734208
scalar OsgEarthNet.uav[92] utilizationSecCharge 49130
scalar OsgEarthNet.uav[92] utilizationSecIdle 197025.01065581
scalar OsgEarthNet.uav[92] utilizationEnergyMission 39553.307228088
scalar OsgEarthNet.uav[92] utilizationEnergyMaintenance 20862.029968262
scalar OsgEarthNet.uav[92] utilizationEnergyCharge 60416.628173828
scalar OsgEarthNet.uav[92] utilizationEnergyOverdrawMission 0
scalar OsgEarthNet.uav[92] utilizationEnergyOverdrawMaintenance 0
scalar OsgEarthNet.uav[92] utilizationCountMissions 14
scalar OsgEarthNet.uav[92] utilizationCountManeuversMission 138
scalar OsgEarthNet.uav[92] utilizationCountManeuversMaintenance 28
scalar OsgEarthNet.uav[92] utilizationCountChargeState 14
scalar OsgEarthNet.uav[92] utilizationCountOverdrawnAfterMission 0
scalar OsgEarthNet.uav[92] utilizationCountIdleState 15
scalar OsgEarthNet.uav[92] utilizationFail 0
scalar OsgEarthNet.uav[92] simulationTime 259200
scalar OsgEarthNet.uav[93] utilizationSecMission 31071.261935594
scalar OsgEarthNet.uav[93] utilizationSecMaintenance 12247.997633931
scalar OsgEarthNet.uav[93] utilizationSecCharge 160099.5438604
scalar OsgEarthNet.uav[93] utilizationSecIdle 55781.195570073
scalar OsgEarthNet.uav[93] utilizationEnergyMission 144350.8710556
scalar OsgEarthNet.uav[93] utilizationEnergyMaintenance 57641.903499603
scalar OsgEarthNet.uav[93] utilizationEnergyCharge 199405.98754883
scalar OsgEarthNet.uav[93] utilizationEnergyOverdrawMission 0
scalar OsgEarthNet.uav[93] utilizationEnergyOverdrawMaintenance 0
scalar OsgEarthNet.uav[93] utilizationCountMissions 45
scalar OsgEarthNet.uav[93] utilizationCountManeuversMission 509
scalar OsgEarthNet.uav[93] utilizationCountManeuversMaintenance 90
scalar OsgEarthNet.uav[93] utilizationCountChargeState 45
scalar OsgEarthNet.uav[93] utilizationCountOverdrawnAfterMission 0
scalar OsgEarthNet.uav[93] utilizationCountIdleState 45
scalar OsgEarthNet.uav[93] utilizationFail 0
scalar OsgEarthNet.uav[93] simulationTime 259200
scalar OsgEarthNet.uav[94] utilizationSecMission 24113.894313364
scalar OsgEarthNet.uav[94] utilizationSecMaintenance 10796.08541183
scalar OsgEarthNet.uav[94] utilizationSecCharge 129570
scalar OsgEarthNet.uav[94] utilizationSecIdle 94720.019274805
scalar OsgEarthNet.uav[94] utilizationEnergyMission 111231.1263483
scalar OsgEarthNet.uav[94] utilizationEnergyMaintenance 50547.576389313
scalar OsgEarthNet.uav[94] utilizationEnergyCharge 160608.13671875
scalar OsgEarthNet.uav[94] utilizationEnergyOverdrawMission 0
scalar OsgEarthNet.uav[94] utilizationEnergyOverdrawMaintenance 0
scalar OsgEarthNet.uav[94] utilizationCountMissions 36
scalar OsgEarthNet.uav[94] utilizationCountManeuversMission 392
scalar OsgEarthNet.uav[94] utilizationCountManeuversMaintenance 73
scalar OsgEarthNet.uav[94] utilizationCountChargeState 36
scalar OsgEarthNet.uav[94] utilizationCountOverdrawnAfterMission 0
scalar OsgEarthNet.uav[94] utilizationCountIdleState 37
scalar OsgEarthNet.uav[94] utilizationFail 0
scalar OsgEarthNet.uav[94] simulationTime 259200
scalar OsgEarthNet.uav[95] utilizationSecMission 2639.2860358546
scalar OsgEarthNet.uav[95] utilizationSecMaintenance 1624.4448195656
scalar OsgEarthNet.uav[95] utilizationSecCharge 15270
scalar OsgEarthNet.uav[95] utilizationSecIdle 239666.26814458
scalar OsgEarthNet.uav[95] utilizationEnergyMission 12102.674476623
scalar OsgEarthNet.uav[95] utilizationEnergyMaintenance 7258.8487205505
scalar OsgEarthNet.uav[95] utilizationEnergyCharge 19322.795410156
scalar OsgEarthNet.uav[95] utilizationEnergyOverdrawMission 0
scalar OsgEarthNet.uav[95] utilizationEnergyOverdrawMaintenance 0
scalar OsgEarthNet.uav[95] utilizationCountMissions 4
scalar OsgEarthNet.uav[95] utilizationCountManeuversMission 44
scalar OsgEarthNet.uav[95] utilizationCountManeuversMaintenance 8
scalar OsgEarthNet.uav[95] utilizationCountChargeState 4
scalar OsgEarthNet.uav[95] utilizationCountOverdrawnAfterMission 0
scalar OsgEarthNet.uav[95] utilizationCountIdleState 5
scalar OsgEarthNet.uav[95] utilizationFail 0
scalar OsgEarthNet.uav[95] simulationTime 259200
scalar OsgEarthNet.uav[96] utilizationSecMission 2297.7347696028
scalar OsgEarthNet.uav[96] utilizationSecMaintenance 1504.3041590352
scalar OsgEarthNet.uav[96] utilizationSecCharge 14370
scalar OsgEarthNet.uav[96] utilizationSecIdle 241027.96007136
scalar OsgEarthNet.uav[96] utilizationEnergyMission 10845.697479248
scalar OsgEarthNet.uav[96] utilizationEnergyMaintenance 7105.3220787048
scalar OsgEarthNet.uav[96] utilizationEnergyCharge 17844.857910156
scalar OsgEarthNet.uav[96] utilizationEnergyOverdrawMission 0
scalar OsgEarthNet.uav[96] utilizationEnergyOverdrawMaintenance 0
scalar OsgEarthNet.uav[96] utilizationCountMissions 4
scalar OsgEarthNet.uav[96] utilizationCountManeuversMission 37
scalar OsgEarthNet.uav[96] utilizationCountManeuversMaintenance 8
scalar OsgEarthNet.uav[96] utilizationCountChargeState 4
scalar OsgEarthNet.uav[96] utilizationCountOverdrawnAfterMission 0
scalar OsgEarthNet.uav[96] utilizationCountIdleState 5
scalar OsgEarthNet.uav[96] utilizationFail 0
scalar OsgEarthNet.uav[96] simulationTime 259200
scalar OsgEarthNet.uav[97] utilizationSecMission 27669.207377384
scalar OsgEarthNet.uav[97] utilizationSecMaintenance 10571.729664357
scalar OsgEarthNet.uav[97] utilizationSecCharge 142260
scalar OsgEarthNet.uav[97] utilizationSecIdle 78699.061958259
scalar OsgEarthNet.uav[97] utilizationEnergyMission 127336.44696045
scalar OsgEarthNet.uav[97] utilizationEnergyMaintenance 50131.873615265
scalar OsgEarthNet.uav[97] utilizationEnergyCharge 177298.3918457
scalar OsgEarthNet.uav[97] utilizationEnergyOverdrawMission 0
scalar OsgEarthNet.uav[97] utilizationEnergyOverdrawMaintenance 0
scalar OsgEarthNet.uav[97] utilizationCountMissions 39
scalar OsgEarthNet.uav[97] utilizationCountManeuversMission 458
scalar OsgEarthNet.uav[97] utilizationCountManeuversMaintenance 78
scalar OsgEarthNet.uav[97] utilizationCountChargeState 39
scalar OsgEarthNet.uav[97] utilizationCountOverdrawnAfterMission 0
scalar OsgEarthNet.uav[97] utilizationCountIdleState 40
scalar OsgEarthNet.uav[97] utilizationFail 0
scalar OsgEarthNet.uav[97] simulationTime 259200
scalar OsgEarthNet.uav[98] utilizationSecMission 3714.1630545163
scalar OsgEarthNet.uav[98] utilizationSecMaintenance 2723.024634409
scalar OsgEarthNet.uav[98] utilizationSecCharge 24270
scalar OsgEarthNet.uav[98] utilizationSecIdle 228492.81131107
scalar OsgEarthNet.uav[98] utilizationEnergyMission 17435.482391357
scalar OsgEarthNet.uav[98] utilizationEnergyMaintenance 11979.270038605
scalar OsgEarthNet.uav[98] utilizationEnergyCharge 29584.252197266
scalar OsgEarthNet.uav[98] utilizationEnergyOverdrawMission 0
scalar OsgEarthNet.uav[98] utilizationEnergyOverdrawMaintenance 0
scalar OsgEarthNet.uav[98] utilizationCountMissions 7
scalar OsgEarthNet.uav[98] utilizationCountManeuversMission 56
scalar OsgEarthNet.uav[98] utilizationCountManeuversMaintenance 14
scalar OsgEarthNet.uav[98] utilizationCountChargeState 7
scalar OsgEarthNet.uav[98] utilizationCountOverdrawnAfterMission 0
scalar OsgEarthNet.uav[98] utilizationCountIdleState 8
scalar OsgEarthNet.uav[98] utilizationFail 0
scalar OsgEarthNet.uav[98] simulationTime 259200
scalar OsgEarthNet.uav[99] utilizationSecMission 29349.088131563
scalar OsgEarthNet.uav[99] utilizationSecMaintenance 11877.253951365
scalar OsgEarthNet.uav[99] utilizationSecCharge 150831.51710393
scalar OsgEarthNet.uav[99] utilizationSecIdle 67142.139813144
scalar OsgEarthNet.uav[99] utilizationEnergyMission 135424.14619827
scalar OsgEarthNet.uav[99] utilizationEnergyMaintenance 56304.184066772
scalar OsgEarthNet.uav[99] utilizationEnergyCharge 186830.04336548
scalar OsgEarthNet.uav[99] utilizationEnergyOverdrawMission 0
scalar OsgEarthNet.uav[99] utilizationEnergyOverdrawMaintenance 0
scalar OsgEarthNet.uav[99] utilizationCountMissions 43
scalar OsgEarthNet.uav[99] utilizationCountManeuversMission 496
scalar OsgEarthNet.uav[99] utilizationCountManeuversMaintenance 86
scalar OsgEarthNet.uav[99] utilizationCountChargeState 43
scalar OsgEarthNet.uav[99] utilizationCountOverdrawnAfterMission 0
scalar OsgEarthNet.uav[99] utilizationCountIdleState 43
scalar OsgEarthNet.uav[99] utilizationFail 0
scalar OsgEarthNet.uav[99] simulationTime 259200
scalar OsgEarthNet.cs[0] usedPower 571053.16087016
scalar OsgEarthNet.cs[0] chargedPower 571053.16087016
scalar OsgEarthNet.cs[0] chargedMobileNodes 122
scalar OsgEarthNet.cs[0] reservations 125
scalar OsgEarthNet.cs[1] usedPower 701481.53555797
scalar OsgEarthNet.cs[1] chargedPower 701481.53555797
scalar OsgEarthNet.cs[1] chargedMobileNodes 219
scalar OsgEarthNet.cs[1] reservations 222
scalar OsgEarthNet.cs[2] usedPower 3416232.0686738
scalar OsgEarthNet.cs[2] chargedPower 3416232.0686738
scalar OsgEarthNet.cs[2] chargedMobileNodes 732
scalar OsgEarthNet.cs[2] reservations 742
scalar OsgEarthNet.cs[3] usedPower 754295.62132084
scalar OsgEarthNet.cs[3] chargedPower 754295.62132084
scalar OsgEarthNet.cs[3] chargedMobileNodes 167
scalar OsgEarthNet.cs[3] reservations 171
scalar OsgEarthNet.cs[4] usedPower 843184.54013428
scalar OsgEarthNet.cs[4] chargedPower 843184.54013428
scalar OsgEarthNet.cs[4] chargedMobileNodes 187
scalar OsgEarthNet.cs[4] reservations 190
scalar OsgEarthNet.cs[5] usedPower 629550.11807873
scalar OsgEarthNet.cs[5] chargedPower 629550.11807873
scalar OsgEarthNet.cs[5] chargedMobileNodes 133
scalar OsgEarthNet.cs[5] reservations 134
scalar OsgEarthNet.cs[6] usedPower 1628454.0007386
scalar OsgEarthNet.cs[6] chargedPower 1628454.0007386
scalar OsgEarthNet.cs[6] chargedMobileNodes 374
scalar OsgEarthNet.cs[6] reservations 379

