version 2
run Szenario_Hotel_Gabelbach-5-20180709-12:31:12-17336
attr configname Szenario_Hotel_Gabelbach
attr datetime 20180709-12:31:12
attr experiment Szenario_Hotel_Gabelbach
attr inifile omnetpp.ini
attr iterationvars "$replM=2, $biWeight=0.0"
attr iterationvarsf replM=2,biWeight=0.0-
attr measurement "$replM=2, $biWeight=0.0"
attr network OsgEarthNet
attr processid 17336
attr repetition 5
attr replication #5
attr resultdir results
attr runnumber 5
attr seedset 5
itervar biWeight 0.0
itervar replM 2
param *.osgEarthScene.scene "\"Szenario_Hotel_Gabelbach.earth\""
param *.playgroundLatitude 50.6830269
param *.playgroundLongitude 10.8538055
param *.playgroundWidth 3500m
param *.playgroundHeight 3500m
param *.numUAVs 100
param *.cs[0].posX 3537m
param *.cs[0].posY 965m
param *.cs[0].posZ 538m
param *.cs[1].posX 312m
param *.cs[1].posY 1262m
param *.cs[1].posZ 539m
param *.cs[2].posX 2185m
param *.cs[2].posY 3026m
param *.cs[2].posZ 777m
param *.cs[3].posX 10m
param *.cs[3].posY 2200m
param *.cs[3].posZ 560m
param *.cs[4].posX 750m
param *.cs[4].posY 200m
param *.cs[4].posZ 540m
param *.cs[5].posX 2450m
param *.cs[5].posY 180m
param *.cs[5].posZ 524m
param *.cs[6].posX 3140m
param *.cs[6].posY 1790m
param *.cs[6].posZ 606m
param *.numCSs 7
param *.uav[*].replacementMethod 2
param *.uav[*].weightedSumWeight 0.0
param *.*.timeStep 10s
param *.uav[*].commandPreviewCommandCount 20
param *.missionControl.missionFiles "\"missions\\\\Szenario_WB_Hotel_Gabelbach_Mission_Hotel.waypoints,missions\\\\Szenario_WB_Hotel_Gabelbach_Mission_Kickelhahn.waypoints,missions\\\\Szenario_WB_Hotel_Gabelbach_Mission_Ilmenau_Sportplatz.waypoints,missions\\\\Szenario_WB_Hotel_Gabelbach_Mission_Manebach_Mitte.waypoints,missions\\\\Szenario_WB_Hotel_Gabelbach_Mission_Manebach_Sued.waypoints\""
param *.missionControl.missionFiles "\"missions\\\\Szenario_WB_Hotel_Gabelbach_Mission_Hotel.waypoints,missions\\\\Szenario_WB_Hotel_Gabelbach_Mission_Kickelhahn.waypoints,missions\\\\Szenario_WB_Hotel_Gabelbach_Mission_Ilmenau_Sportplatz.waypoints,missions\\\\Szenario_WB_Hotel_Gabelbach_Mission_Manebach_Mitte.waypoints,missions\\\\Szenario_WB_Hotel_Gabelbach_Mission_Manebach_Sued.waypoints,missions\\\\Szenario_WB_Hotel_Gabelbach_Hover_HoheSchlaufe.waypoints,missions\\\\Szenario_WB_Hotel_Gabelbach_Hover_Kickelhahn.waypoints,missions\\\\Szenario_WB_Hotel_Gabelbach_Hover_Gabelbachskopf.waypoints,missions\\\\Szenario_WB_Hotel_Gabelbach_Hover_Dachskopf.waypoints\""
param *.uav[0].startX 3537m
param *.uav[0].startY 965m
param *.uav[0].startZ 539m
param *.uav[1].startX 312m
param *.uav[1].startY 1262m
param *.uav[1].startZ 540m
param *.uav[2].startX 2185m
param *.uav[2].startY 3026m
param *.uav[2].startZ 778m
param *.uav[3].startX 3537m
param *.uav[3].startY 965m
param *.uav[3].startZ 539m
param *.uav[4].startX 312m
param *.uav[4].startY 1262m
param *.uav[4].startZ 540m
param *.uav[5].startX 2185m
param *.uav[5].startY 3026m
param *.uav[5].startZ 778m
param *.uav[6].startX 3537m
param *.uav[6].startY 965m
param *.uav[6].startZ 539m
param *.uav[7].startX 312m
param *.uav[7].startY 1262m
param *.uav[7].startZ 540m
param *.uav[8].startX 2185m
param *.uav[8].startY 3026m
param *.uav[8].startZ 778m
param *.uav[9].startX 3537m
param *.uav[9].startY 965m
param *.uav[9].startZ 539m
param *.uav[10].startX 3537m
param *.uav[10].startY 965m
param *.uav[10].startZ 539m
param *.uav[11].startX 312m
param *.uav[11].startY 1262m
param *.uav[11].startZ 540m
param *.uav[12].startX 2185m
param *.uav[12].startY 3026m
param *.uav[12].startZ 778m
param *.uav[13].startX 3537m
param *.uav[13].startY 965m
param *.uav[13].startZ 539m
param *.uav[14].startX 312m
param *.uav[14].startY 1262m
param *.uav[14].startZ 540m
param *.uav[15].startX 2185m
param *.uav[15].startY 3026m
param *.uav[15].startZ 778m
param *.uav[16].startX 3537m
param *.uav[16].startY 965m
param *.uav[16].startZ 539m
param *.uav[17].startX 312m
param *.uav[17].startY 1262m
param *.uav[17].startZ 540m
param *.uav[18].startX 2185m
param *.uav[18].startY 3026m
param *.uav[18].startZ 778m
param *.uav[19].startX 3537m
param *.uav[19].startY 965m
param *.uav[19].startZ 539m
param *.uav[20].startX 3537m
param *.uav[20].startY 965m
param *.uav[20].startZ 539m
param *.uav[21].startX 312m
param *.uav[21].startY 1262m
param *.uav[21].startZ 540m
param *.uav[22].startX 2185m
param *.uav[22].startY 3026m
param *.uav[22].startZ 778m
param *.uav[23].startX 3537m
param *.uav[23].startY 965m
param *.uav[23].startZ 539m
param *.uav[24].startX 312m
param *.uav[24].startY 1262m
param *.uav[24].startZ 540m
param *.uav[25].startX 2185m
param *.uav[25].startY 3026m
param *.uav[25].startZ 778m
param *.uav[26].startX 3537m
param *.uav[26].startY 965m
param *.uav[26].startZ 539m
param *.uav[27].startX 312m
param *.uav[27].startY 1262m
param *.uav[27].startZ 540m
param *.uav[28].startX 2185m
param *.uav[28].startY 3026m
param *.uav[28].startZ 778m
param *.uav[29].startX 3537m
param *.uav[29].startY 965m
param *.uav[29].startZ 539m
param *.uav[30].startX 3537m
param *.uav[30].startY 965m
param *.uav[30].startZ 539m
param *.uav[31].startX 312m
param *.uav[31].startY 1262m
param *.uav[31].startZ 540m
param *.uav[32].startX 2185m
param *.uav[32].startY 3026m
param *.uav[32].startZ 778m
param *.uav[33].startX 3537m
param *.uav[33].startY 965m
param *.uav[33].startZ 539m
param *.uav[34].startX 312m
param *.uav[34].startY 1262m
param *.uav[34].startZ 540m
param *.uav[35].startX 2185m
param *.uav[35].startY 3026m
param *.uav[35].startZ 778m
param *.uav[36].startX 3537m
param *.uav[36].startY 965m
param *.uav[36].startZ 539m
param *.uav[37].startX 312m
param *.uav[37].startY 1262m
param *.uav[37].startZ 540m
param *.uav[38].startX 2185m
param *.uav[38].startY 3026m
param *.uav[38].startZ 778m
param *.uav[39].startX 3537m
param *.uav[39].startY 965m
param *.uav[39].startZ 539m
param *.uav[40].startX 3537m
param *.uav[40].startY 965m
param *.uav[40].startZ 539m
param *.uav[41].startX 312m
param *.uav[41].startY 1262m
param *.uav[41].startZ 540m
param *.uav[42].startX 2185m
param *.uav[42].startY 3026m
param *.uav[42].startZ 778m
param *.uav[43].startX 3537m
param *.uav[43].startY 965m
param *.uav[43].startZ 539m
param *.uav[44].startX 312m
param *.uav[44].startY 1262m
param *.uav[44].startZ 540m
param *.uav[45].startX 2185m
param *.uav[45].startY 3026m
param *.uav[45].startZ 778m
param *.uav[46].startX 3537m
param *.uav[46].startY 965m
param *.uav[46].startZ 539m
param *.uav[47].startX 312m
param *.uav[47].startY 1262m
param *.uav[47].startZ 540m
param *.uav[48].startX 2185m
param *.uav[48].startY 3026m
param *.uav[48].startZ 778m
param *.uav[49].startX 3537m
param *.uav[49].startY 965m
param *.uav[49].startZ 539m
param *.uav[50].startX 3537m
param *.uav[50].startY 965m
param *.uav[50].startZ 539m
param *.uav[51].startX 312m
param *.uav[51].startY 1262m
param *.uav[51].startZ 540m
param *.uav[52].startX 2185m
param *.uav[52].startY 3026m
param *.uav[52].startZ 778m
param *.uav[53].startX 3537m
param *.uav[53].startY 965m
param *.uav[53].startZ 539m
param *.uav[54].startX 312m
param *.uav[54].startY 1262m
param *.uav[54].startZ 540m
param *.uav[55].startX 2185m
param *.uav[55].startY 3026m
param *.uav[55].startZ 778m
param *.uav[56].startX 3537m
param *.uav[56].startY 965m
param *.uav[56].startZ 539m
param *.uav[57].startX 312m
param *.uav[57].startY 1262m
param *.uav[57].startZ 540m
param *.uav[58].startX 2185m
param *.uav[58].startY 3026m
param *.uav[58].startZ 778m
param *.uav[59].startX 3537m
param *.uav[59].startY 965m
param *.uav[59].startZ 539m
param *.uav[60].startX 3537m
param *.uav[60].startY 965m
param *.uav[60].startZ 539m
param *.uav[61].startX 312m
param *.uav[61].startY 1262m
param *.uav[61].startZ 540m
param *.uav[62].startX 2185m
param *.uav[62].startY 3026m
param *.uav[62].startZ 778m
param *.uav[63].startX 3537m
param *.uav[63].startY 965m
param *.uav[63].startZ 539m
param *.uav[64].startX 312m
param *.uav[64].startY 1262m
param *.uav[64].startZ 540m
param *.uav[65].startX 2185m
param *.uav[65].startY 3026m
param *.uav[65].startZ 778m
param *.uav[66].startX 3537m
param *.uav[66].startY 965m
param *.uav[66].startZ 539m
param *.uav[67].startX 312m
param *.uav[67].startY 1262m
param *.uav[67].startZ 540m
param *.uav[68].startX 2185m
param *.uav[68].startY 3026m
param *.uav[68].startZ 778m
param *.uav[69].startX 3537m
param *.uav[69].startY 965m
param *.uav[69].startZ 539m
param *.uav[70].startX 3537m
param *.uav[70].startY 965m
param *.uav[70].startZ 539m
param *.uav[71].startX 312m
param *.uav[71].startY 1262m
param *.uav[71].startZ 540m
param *.uav[72].startX 2185m
param *.uav[72].startY 3026m
param *.uav[72].startZ 778m
param *.uav[73].startX 3537m
param *.uav[73].startY 965m
param *.uav[73].startZ 539m
param *.uav[74].startX 312m
param *.uav[74].startY 1262m
param *.uav[74].startZ 540m
param *.uav[75].startX 2185m
param *.uav[75].startY 3026m
param *.uav[75].startZ 778m
param *.uav[76].startX 3537m
param *.uav[76].startY 965m
param *.uav[76].startZ 539m
param *.uav[77].startX 312m
param *.uav[77].startY 1262m
param *.uav[77].startZ 540m
param *.uav[78].startX 2185m
param *.uav[78].startY 3026m
param *.uav[78].startZ 778m
param *.uav[79].startX 3537m
param *.uav[79].startY 965m
param *.uav[79].startZ 539m
param *.uav[80].startX 3537m
param *.uav[80].startY 965m
param *.uav[80].startZ 539m
param *.uav[81].startX 312m
param *.uav[81].startY 1262m
param *.uav[81].startZ 540m
param *.uav[82].startX 2185m
param *.uav[82].startY 3026m
param *.uav[82].startZ 778m
param *.uav[83].startX 3537m
param *.uav[83].startY 965m
param *.uav[83].startZ 539m
param *.uav[84].startX 312m
param *.uav[84].startY 1262m
param *.uav[84].startZ 540m
param *.uav[85].startX 2185m
param *.uav[85].startY 3026m
param *.uav[85].startZ 778m
param *.uav[86].startX 3537m
param *.uav[86].startY 965m
param *.uav[86].startZ 539m
param *.uav[87].startX 312m
param *.uav[87].startY 1262m
param *.uav[87].startZ 540m
param *.uav[88].startX 2185m
param *.uav[88].startY 3026m
param *.uav[88].startZ 778m
param *.uav[89].startX 3537m
param *.uav[89].startY 965m
param *.uav[89].startZ 539m
param *.uav[90].startX 3537m
param *.uav[90].startY 965m
param *.uav[90].startZ 539m
param *.uav[91].startX 312m
param *.uav[91].startY 1262m
param *.uav[91].startZ 540m
param *.uav[92].startX 2185m
param *.uav[92].startY 3026m
param *.uav[92].startZ 778m
param *.uav[93].startX 3537m
param *.uav[93].startY 965m
param *.uav[93].startZ 539m
param *.uav[94].startX 312m
param *.uav[94].startY 1262m
param *.uav[94].startZ 540m
param *.uav[95].startX 2185m
param *.uav[95].startY 3026m
param *.uav[95].startZ 778m
param *.uav[96].startX 3537m
param *.uav[96].startY 965m
param *.uav[96].startZ 539m
param *.uav[97].startX 312m
param *.uav[97].startY 1262m
param *.uav[97].startZ 540m
param *.uav[98].startX 2185m
param *.uav[98].startY 3026m
param *.uav[98].startZ 778m
param *.uav[99].startX 3537m
param *.uav[99].startY 965m
param *.uav[99].startZ 539m
param *.osgEarthScene.scene "\"boston.earth\""
param *.playgroundLatitude 42.3558
param *.playgroundLongitude -71.0677
param *.playgroundWidth 400m
param *.playgroundHeight 200m
param *.channelController.connectionColor "\"#0000FF40\""
param *.channelController.showConnections false
param *.uav[*].modelURL "\"quadrocopter.small.obj.15.scale.0,0,90.rot\""
param *.uav[*].labelColor "\"#FF7C00CC\""
param *.uav[*].label2Color "\"#FF7C00EE\""
param *.uav[*].batteryCapacity 5200mAh
param *.uav[*].batteryRemaining uav[index].batteryCapacity
param *.uav[*].predictionQuantile 0.95
param *.uav[*].replacementMethod 2
param *.uav[*].weightedSumWeight 0.5
param *.cs[*].modelURL "\"chargingstation_v1.osgt.2.scale.0,0,0.rot.0,0,-15e-1.trans\""
param *.cs[*].spotsWaiting 999
param *.cs[*].spotsCharging 999
param *.cs[*].chargeEffectivenessPercentage 100
param *.cs[*].nonLinearPhaseStartPercentage 85
param *.cs[*].chargeCurrent 6.0A
param *.cs[*].prioritizeFastCharge true
param *.missionControl.replacementSearchMethod 0
param *.*.timeStep 9s

scalar OsgEarthNet.uav[0] utilizationSecMission 443.5870541303
scalar OsgEarthNet.uav[0] utilizationSecMaintenance 425.80795651079
scalar OsgEarthNet.uav[0] utilizationSecCharge 3400
scalar OsgEarthNet.uav[0] utilizationSecIdle 254930.60398936
scalar OsgEarthNet.uav[0] utilizationEnergyMission 2119.7062225342
scalar OsgEarthNet.uav[0] utilizationEnergyMaintenance 2142.8097648621
scalar OsgEarthNet.uav[0] utilizationEnergyCharge 4181.5908203125
scalar OsgEarthNet.uav[0] utilizationEnergyOverdrawMission 0
scalar OsgEarthNet.uav[0] utilizationEnergyOverdrawMaintenance 0
scalar OsgEarthNet.uav[0] utilizationCountMissions 1
scalar OsgEarthNet.uav[0] utilizationCountManeuversMission 7
scalar OsgEarthNet.uav[0] utilizationCountManeuversMaintenance 2
scalar OsgEarthNet.uav[0] utilizationCountChargeState 1
scalar OsgEarthNet.uav[0] utilizationCountOverdrawnAfterMission 0
scalar OsgEarthNet.uav[0] utilizationCountIdleState 2
scalar OsgEarthNet.uav[0] utilizationFail 0
scalar OsgEarthNet.uav[0] simulationTime 259200
scalar OsgEarthNet.uav[1] utilizationSecMission 1248.9654214217
scalar OsgEarthNet.uav[1] utilizationSecMaintenance 1488.1138895909
scalar OsgEarthNet.uav[1] utilizationSecCharge 11400
scalar OsgEarthNet.uav[1] utilizationSecIdle 245062.91968899
scalar OsgEarthNet.uav[1] utilizationEnergyMission 5825.6462936401
scalar OsgEarthNet.uav[1] utilizationEnergyMaintenance 7048.078578949
scalar OsgEarthNet.uav[1] utilizationEnergyCharge 12873.725585938
scalar OsgEarthNet.uav[1] utilizationEnergyOverdrawMission 0
scalar OsgEarthNet.uav[1] utilizationEnergyOverdrawMaintenance 0
scalar OsgEarthNet.uav[1] utilizationCountMissions 4
scalar OsgEarthNet.uav[1] utilizationCountManeuversMission 23
scalar OsgEarthNet.uav[1] utilizationCountManeuversMaintenance 8
scalar OsgEarthNet.uav[1] utilizationCountChargeState 4
scalar OsgEarthNet.uav[1] utilizationCountOverdrawnAfterMission 0
scalar OsgEarthNet.uav[1] utilizationCountIdleState 5
scalar OsgEarthNet.uav[1] utilizationFail 0
scalar OsgEarthNet.uav[1] simulationTime 259200
scalar OsgEarthNet.uav[2] utilizationSecMission 694.00169469977
scalar OsgEarthNet.uav[2] utilizationSecMaintenance 229.48898285212
scalar OsgEarthNet.uav[2] utilizationSecCharge 3380
scalar OsgEarthNet.uav[2] utilizationSecIdle 254896.50832245
scalar OsgEarthNet.uav[2] utilizationEnergyMission 3309.6198196411
scalar OsgEarthNet.uav[2] utilizationEnergyMaintenance 949.70650482178
scalar OsgEarthNet.uav[2] utilizationEnergyCharge 4184.3408203125
scalar OsgEarthNet.uav[2] utilizationEnergyOverdrawMission 0
scalar OsgEarthNet.uav[2] utilizationEnergyOverdrawMaintenance 0
scalar OsgEarthNet.uav[2] utilizationCountMissions 1
scalar OsgEarthNet.uav[2] utilizationCountManeuversMission 13
scalar OsgEarthNet.uav[2] utilizationCountManeuversMaintenance 2
scalar OsgEarthNet.uav[2] utilizationCountChargeState 1
scalar OsgEarthNet.uav[2] utilizationCountOverdrawnAfterMission 0
scalar OsgEarthNet.uav[2] utilizationCountIdleState 2
scalar OsgEarthNet.uav[2] utilizationFail 0
scalar OsgEarthNet.uav[2] simulationTime 259200
scalar OsgEarthNet.uav[3] utilizationSecMission 21976.874196579
scalar OsgEarthNet.uav[3] utilizationSecMaintenance 11626.875733764
scalar OsgEarthNet.uav[3] utilizationSecCharge 133658.19753076
scalar OsgEarthNet.uav[3] utilizationSecIdle 91938.051538898
scalar OsgEarthNet.uav[3] utilizationEnergyMission 102694.92948151
scalar OsgEarthNet.uav[3] utilizationEnergyMaintenance 56072.032463074
scalar OsgEarthNet.uav[3] utilizationEnergyCharge 158486.67431641
scalar OsgEarthNet.uav[3] utilizationEnergyOverdrawMission 0
scalar OsgEarthNet.uav[3] utilizationEnergyOverdrawMaintenance 0
scalar OsgEarthNet.uav[3] utilizationCountMissions 43
scalar OsgEarthNet.uav[3] utilizationCountManeuversMission 354
scalar OsgEarthNet.uav[3] utilizationCountManeuversMaintenance 86
scalar OsgEarthNet.uav[3] utilizationCountChargeState 43
scalar OsgEarthNet.uav[3] utilizationCountOverdrawnAfterMission 0
scalar OsgEarthNet.uav[3] utilizationCountIdleState 43
scalar OsgEarthNet.uav[3] utilizationFail 0
scalar OsgEarthNet.uav[3] simulationTime 259200
scalar OsgEarthNet.uav[4] utilizationSecMission 301.50602773369
scalar OsgEarthNet.uav[4] utilizationSecMaintenance 206.19350838146
scalar OsgEarthNet.uav[4] utilizationSecCharge 2350
scalar OsgEarthNet.uav[4] utilizationSecIdle 256342.29946388
scalar OsgEarthNet.uav[4] utilizationEnergyMission 1439.5072631836
scalar OsgEarthNet.uav[4] utilizationEnergyMaintenance 946.91204071045
scalar OsgEarthNet.uav[4] utilizationEnergyCharge 2348.2133789062
scalar OsgEarthNet.uav[4] utilizationEnergyOverdrawMission 0
scalar OsgEarthNet.uav[4] utilizationEnergyOverdrawMaintenance 0
scalar OsgEarthNet.uav[4] utilizationCountMissions 1
scalar OsgEarthNet.uav[4] utilizationCountManeuversMission 6
scalar OsgEarthNet.uav[4] utilizationCountManeuversMaintenance 2
scalar OsgEarthNet.uav[4] utilizationCountChargeState 1
scalar OsgEarthNet.uav[4] utilizationCountOverdrawnAfterMission 0
scalar OsgEarthNet.uav[4] utilizationCountIdleState 2
scalar OsgEarthNet.uav[4] utilizationFail 0
scalar OsgEarthNet.uav[4] simulationTime 259200
scalar OsgEarthNet.uav[5] utilizationSecMission 24864.052372452
scalar OsgEarthNet.uav[5] utilizationSecMaintenance 13271.469588159
scalar OsgEarthNet.uav[5] utilizationSecCharge 146168.47434645
scalar OsgEarthNet.uav[5] utilizationSecIdle 74896.002692942
scalar OsgEarthNet.uav[5] utilizationEnergyMission 114458.93190384
scalar OsgEarthNet.uav[5] utilizationEnergyMaintenance 63278.681713104
scalar OsgEarthNet.uav[5] utilizationEnergyCharge 175528.34838867
scalar OsgEarthNet.uav[5] utilizationEnergyOverdrawMission 0
scalar OsgEarthNet.uav[5] utilizationEnergyOverdrawMaintenance 0
scalar OsgEarthNet.uav[5] utilizationCountMissions 46
scalar OsgEarthNet.uav[5] utilizationCountManeuversMission 397
scalar OsgEarthNet.uav[5] utilizationCountManeuversMaintenance 92
scalar OsgEarthNet.uav[5] utilizationCountChargeState 46
scalar OsgEarthNet.uav[5] utilizationCountOverdrawnAfterMission 0
scalar OsgEarthNet.uav[5] utilizationCountIdleState 46
scalar OsgEarthNet.uav[5] utilizationFail 0
scalar OsgEarthNet.uav[5] simulationTime 259200
scalar OsgEarthNet.uav[6] utilizationSecMission 4553.3304903797
scalar OsgEarthNet.uav[6] utilizationSecMaintenance 1427.5259770882
scalar OsgEarthNet.uav[6] utilizationSecCharge 23050
scalar OsgEarthNet.uav[6] utilizationSecIdle 230169.14253253
scalar OsgEarthNet.uav[6] utilizationEnergyMission 20995.419113159
scalar OsgEarthNet.uav[6] utilizationEnergyMaintenance 6812.0180549622
scalar OsgEarthNet.uav[6] utilizationEnergyCharge 27876.961914062
scalar OsgEarthNet.uav[6] utilizationEnergyOverdrawMission 0
scalar OsgEarthNet.uav[6] utilizationEnergyOverdrawMaintenance 0
scalar OsgEarthNet.uav[6] utilizationCountMissions 7
scalar OsgEarthNet.uav[6] utilizationCountManeuversMission 71
scalar OsgEarthNet.uav[6] utilizationCountManeuversMaintenance 14
scalar OsgEarthNet.uav[6] utilizationCountChargeState 7
scalar OsgEarthNet.uav[6] utilizationCountOverdrawnAfterMission 0
scalar OsgEarthNet.uav[6] utilizationCountIdleState 8
scalar OsgEarthNet.uav[6] utilizationFail 0
scalar OsgEarthNet.uav[6] simulationTime 259200
scalar OsgEarthNet.uav[7] utilizationSecMission 23.329233930829
scalar OsgEarthNet.uav[7] utilizationSecMaintenance 616.50021886036
scalar OsgEarthNet.uav[7] utilizationSecCharge 2760
scalar OsgEarthNet.uav[7] utilizationSecIdle 255800.16954721
scalar OsgEarthNet.uav[7] utilizationEnergyMission 95.271888732908
scalar OsgEarthNet.uav[7] utilizationEnergyMaintenance 3019.5122070313
scalar OsgEarthNet.uav[7] utilizationEnergyCharge 3114.7834472656
scalar OsgEarthNet.uav[7] utilizationEnergyOverdrawMission 0
scalar OsgEarthNet.uav[7] utilizationEnergyOverdrawMaintenance 0
scalar OsgEarthNet.uav[7] utilizationCountMissions 1
scalar OsgEarthNet.uav[7] utilizationCountManeuversMission 1
scalar OsgEarthNet.uav[7] utilizationCountManeuversMaintenance 2
scalar OsgEarthNet.uav[7] utilizationCountChargeState 1
scalar OsgEarthNet.uav[7] utilizationCountOverdrawnAfterMission 0
scalar OsgEarthNet.uav[7] utilizationCountIdleState 2
scalar OsgEarthNet.uav[7] utilizationFail 0
scalar OsgEarthNet.uav[7] simulationTime 259200
scalar OsgEarthNet.uav[8] utilizationSecMission 28455.95766203
scalar OsgEarthNet.uav[8] utilizationSecMaintenance 13959.186059843
scalar OsgEarthNet.uav[8] utilizationSecCharge 166192.85527813
scalar OsgEarthNet.uav[8] utilizationSecIdle 50592
scalar OsgEarthNet.uav[8] utilizationEnergyMission 131324.86728003
scalar OsgEarthNet.uav[8] utilizationEnergyMaintenance 66760.586307526
scalar OsgEarthNet.uav[8] utilizationEnergyCharge 196105.61254883
scalar OsgEarthNet.uav[8] utilizationEnergyOverdrawMission 0
scalar OsgEarthNet.uav[8] utilizationEnergyOverdrawMaintenance 0
scalar OsgEarthNet.uav[8] utilizationCountMissions 54
scalar OsgEarthNet.uav[8] utilizationCountManeuversMission 453
scalar OsgEarthNet.uav[8] utilizationCountManeuversMaintenance 107
scalar OsgEarthNet.uav[8] utilizationCountChargeState 54
scalar OsgEarthNet.uav[8] utilizationCountOverdrawnAfterMission 0
scalar OsgEarthNet.uav[8] utilizationCountIdleState 54
scalar OsgEarthNet.uav[8] utilizationFail 0
scalar OsgEarthNet.uav[8] simulationTime 259200
scalar OsgEarthNet.uav[9] utilizationSecMission 23952.492663029
scalar OsgEarthNet.uav[9] utilizationSecMaintenance 13548.679994116
scalar OsgEarthNet.uav[9] utilizationSecCharge 148130
scalar OsgEarthNet.uav[9] utilizationSecIdle 73568.826342855
scalar OsgEarthNet.uav[9] utilizationEnergyMission 111761.2922821
scalar OsgEarthNet.uav[9] utilizationEnergyMaintenance 62370.973594666
scalar OsgEarthNet.uav[9] utilizationEnergyCharge 173783.85913086
scalar OsgEarthNet.uav[9] utilizationEnergyOverdrawMission 0
scalar OsgEarthNet.uav[9] utilizationEnergyOverdrawMaintenance 0
scalar OsgEarthNet.uav[9] utilizationCountMissions 48
scalar OsgEarthNet.uav[9] utilizationCountManeuversMission 384
scalar OsgEarthNet.uav[9] utilizationCountManeuversMaintenance 96
scalar OsgEarthNet.uav[9] utilizationCountChargeState 48
scalar OsgEarthNet.uav[9] utilizationCountOverdrawnAfterMission 0
scalar OsgEarthNet.uav[9] utilizationCountIdleState 49
scalar OsgEarthNet.uav[9] utilizationFail 0
scalar OsgEarthNet.uav[9] simulationTime 259200
scalar OsgEarthNet.uav[10] utilizationSecMission 24039.96728246
scalar OsgEarthNet.uav[10] utilizationSecMaintenance 16299.055109893
scalar OsgEarthNet.uav[10] utilizationSecCharge 159460
scalar OsgEarthNet.uav[10] utilizationSecIdle 59400.976607647
scalar OsgEarthNet.uav[10] utilizationEnergyMission 111641.46311196
scalar OsgEarthNet.uav[10] utilizationEnergyMaintenance 76878.113140106
scalar OsgEarthNet.uav[10] utilizationEnergyCharge 187908.71240234
scalar OsgEarthNet.uav[10] utilizationEnergyOverdrawMission 0
scalar OsgEarthNet.uav[10] utilizationEnergyOverdrawMaintenance 0
scalar OsgEarthNet.uav[10] utilizationCountMissions 51
scalar OsgEarthNet.uav[10] utilizationCountManeuversMission 381
scalar OsgEarthNet.uav[10] utilizationCountManeuversMaintenance 103
scalar OsgEarthNet.uav[10] utilizationCountChargeState 51
scalar OsgEarthNet.uav[10] utilizationCountOverdrawnAfterMission 0
scalar OsgEarthNet.uav[10] utilizationCountIdleState 52
scalar OsgEarthNet.uav[10] utilizationFail 0
scalar OsgEarthNet.uav[10] simulationTime 259200
scalar OsgEarthNet.uav[11] utilizationSecMission 369.16643303525
scalar OsgEarthNet.uav[11] utilizationSecMaintenance 404.35423372053
scalar OsgEarthNet.uav[11] utilizationSecCharge 3040
scalar OsgEarthNet.uav[11] utilizationSecIdle 255386.47833324
scalar OsgEarthNet.uav[11] utilizationEnergyMission 1546.3787841797
scalar OsgEarthNet.uav[11] utilizationEnergyMaintenance 2054.5369987488
scalar OsgEarthNet.uav[11] utilizationEnergyCharge 3600.9096679688
scalar OsgEarthNet.uav[11] utilizationEnergyOverdrawMission 0
scalar OsgEarthNet.uav[11] utilizationEnergyOverdrawMaintenance 0
scalar OsgEarthNet.uav[11] utilizationCountMissions 1
scalar OsgEarthNet.uav[11] utilizationCountManeuversMission 6
scalar OsgEarthNet.uav[11] utilizationCountManeuversMaintenance 2
scalar OsgEarthNet.uav[11] utilizationCountChargeState 1
scalar OsgEarthNet.uav[11] utilizationCountOverdrawnAfterMission 0
scalar OsgEarthNet.uav[11] utilizationCountIdleState 2
scalar OsgEarthNet.uav[11] utilizationFail 0
scalar OsgEarthNet.uav[11] simulationTime 259200
scalar OsgEarthNet.uav[12] utilizationSecMission 3411.5321651957
scalar OsgEarthNet.uav[12] utilizationSecMaintenance 1867.4015348771
scalar OsgEarthNet.uav[12] utilizationSecCharge 20090
scalar OsgEarthNet.uav[12] utilizationSecIdle 233831.06529993
scalar OsgEarthNet.uav[12] utilizationEnergyMission 15260.897468567
scalar OsgEarthNet.uav[12] utilizationEnergyMaintenance 9193.4698867798
scalar OsgEarthNet.uav[12] utilizationEnergyCharge 24435.761230469
scalar OsgEarthNet.uav[12] utilizationEnergyOverdrawMission 0
scalar OsgEarthNet.uav[12] utilizationEnergyOverdrawMaintenance 0
scalar OsgEarthNet.uav[12] utilizationCountMissions 6
scalar OsgEarthNet.uav[12] utilizationCountManeuversMission 54
scalar OsgEarthNet.uav[12] utilizationCountManeuversMaintenance 12
scalar OsgEarthNet.uav[12] utilizationCountChargeState 6
scalar OsgEarthNet.uav[12] utilizationCountOverdrawnAfterMission 0
scalar OsgEarthNet.uav[12] utilizationCountIdleState 7
scalar OsgEarthNet.uav[12] utilizationFail 0
scalar OsgEarthNet.uav[12] simulationTime 259200
scalar OsgEarthNet.uav[13] utilizationSecMission 760.62515258028
scalar OsgEarthNet.uav[13] utilizationSecMaintenance 245.74410321072
scalar OsgEarthNet.uav[13] utilizationSecCharge 3670
scalar OsgEarthNet.uav[13] utilizationSecIdle 254523.62974421
scalar OsgEarthNet.uav[13] utilizationEnergyMission 3592.0677032471
scalar OsgEarthNet.uav[13] utilizationEnergyMaintenance 1098.9508781433
scalar OsgEarthNet.uav[13] utilizationEnergyCharge 4691.021484375
scalar OsgEarthNet.uav[13] utilizationEnergyOverdrawMission 0
scalar OsgEarthNet.uav[13] utilizationEnergyOverdrawMaintenance 0
scalar OsgEarthNet.uav[13] utilizationCountMissions 1
scalar OsgEarthNet.uav[13] utilizationCountManeuversMission 12
scalar OsgEarthNet.uav[13] utilizationCountManeuversMaintenance 2
scalar OsgEarthNet.uav[13] utilizationCountChargeState 1
scalar OsgEarthNet.uav[13] utilizationCountOverdrawnAfterMission 0
scalar OsgEarthNet.uav[13] utilizationCountIdleState 2
scalar OsgEarthNet.uav[13] utilizationFail 0
scalar OsgEarthNet.uav[13] simulationTime 259200
scalar OsgEarthNet.uav[14] utilizationSecMission 12741.315044129
scalar OsgEarthNet.uav[14] utilizationSecMaintenance 8244.9015219443
scalar OsgEarthNet.uav[14] utilizationSecCharge 83290
scalar OsgEarthNet.uav[14] utilizationSecIdle 154923.78243393
scalar OsgEarthNet.uav[14] utilizationEnergyMission 59204.336967468
scalar OsgEarthNet.uav[14] utilizationEnergyMaintenance 38547.070198059
scalar OsgEarthNet.uav[14] utilizationEnergyCharge 97852.467773438
scalar OsgEarthNet.uav[14] utilizationEnergyOverdrawMission 0
scalar OsgEarthNet.uav[14] utilizationEnergyOverdrawMaintenance 0
scalar OsgEarthNet.uav[14] utilizationCountMissions 27
scalar OsgEarthNet.uav[14] utilizationCountManeuversMission 216
scalar OsgEarthNet.uav[14] utilizationCountManeuversMaintenance 54
scalar OsgEarthNet.uav[14] utilizationCountChargeState 27
scalar OsgEarthNet.uav[14] utilizationCountOverdrawnAfterMission 0
scalar OsgEarthNet.uav[14] utilizationCountIdleState 28
scalar OsgEarthNet.uav[14] utilizationFail 0
scalar OsgEarthNet.uav[14] simulationTime 259200
scalar OsgEarthNet.uav[15] utilizationSecMission 17356.829916939
scalar OsgEarthNet.uav[15] utilizationSecMaintenance 7232.8346666641
scalar OsgEarthNet.uav[15] utilizationSecCharge 92940
scalar OsgEarthNet.uav[15] utilizationSecIdle 141670.3344164
scalar OsgEarthNet.uav[15] utilizationEnergyMission 79606.687187195
scalar OsgEarthNet.uav[15] utilizationEnergyMaintenance 34589.644954681
scalar OsgEarthNet.uav[15] utilizationEnergyCharge 114330.32299805
scalar OsgEarthNet.uav[15] utilizationEnergyOverdrawMission 0
scalar OsgEarthNet.uav[15] utilizationEnergyOverdrawMaintenance 0
scalar OsgEarthNet.uav[15] utilizationCountMissions 27
scalar OsgEarthNet.uav[15] utilizationCountManeuversMission 285
scalar OsgEarthNet.uav[15] utilizationCountManeuversMaintenance 54
scalar OsgEarthNet.uav[15] utilizationCountChargeState 27
scalar OsgEarthNet.uav[15] utilizationCountOverdrawnAfterMission 0
scalar OsgEarthNet.uav[15] utilizationCountIdleState 28
scalar OsgEarthNet.uav[15] utilizationFail 0
scalar OsgEarthNet.uav[15] simulationTime 259200
scalar OsgEarthNet.uav[16] utilizationSecMission 23.32923393083
scalar OsgEarthNet.uav[16] utilizationSecMaintenance 574.24089467002
scalar OsgEarthNet.uav[16] utilizationSecCharge 2650
scalar OsgEarthNet.uav[16] utilizationSecIdle 255952.4288714
scalar OsgEarthNet.uav[16] utilizationEnergyMission 123.17282104492
scalar OsgEarthNet.uav[16] utilizationEnergyMaintenance 2667.1850090027
scalar OsgEarthNet.uav[16] utilizationEnergyCharge 2790.3615722656
scalar OsgEarthNet.uav[16] utilizationEnergyOverdrawMission 0
scalar OsgEarthNet.uav[16] utilizationEnergyOverdrawMaintenance 0
scalar OsgEarthNet.uav[16] utilizationCountMissions 1
scalar OsgEarthNet.uav[16] utilizationCountManeuversMission 1
scalar OsgEarthNet.uav[16] utilizationCountManeuversMaintenance 2
scalar OsgEarthNet.uav[16] utilizationCountChargeState 1
scalar OsgEarthNet.uav[16] utilizationCountOverdrawnAfterMission 0
scalar OsgEarthNet.uav[16] utilizationCountIdleState 2
scalar OsgEarthNet.uav[16] utilizationFail 0
scalar OsgEarthNet.uav[16] simulationTime 259200
scalar OsgEarthNet.uav[17] utilizationSecMission 4967.6756043393
scalar OsgEarthNet.uav[17] utilizationSecMaintenance 2224.196945937
scalar OsgEarthNet.uav[17] utilizationSecCharge 28580
scalar OsgEarthNet.uav[17] utilizationSecIdle 223428.12644972
scalar OsgEarthNet.uav[17] utilizationEnergyMission 23666.154277802
scalar OsgEarthNet.uav[17] utilizationEnergyMaintenance 10418.379119873
scalar OsgEarthNet.uav[17] utilizationEnergyCharge 34008.963867188
scalar OsgEarthNet.uav[17] utilizationEnergyOverdrawMission 0
scalar OsgEarthNet.uav[17] utilizationEnergyOverdrawMaintenance 0
scalar OsgEarthNet.uav[17] utilizationCountMissions 9
scalar OsgEarthNet.uav[17] utilizationCountManeuversMission 87
scalar OsgEarthNet.uav[17] utilizationCountManeuversMaintenance 18
scalar OsgEarthNet.uav[17] utilizationCountChargeState 9
scalar OsgEarthNet.uav[17] utilizationCountOverdrawnAfterMission 0
scalar OsgEarthNet.uav[17] utilizationCountIdleState 10
scalar OsgEarthNet.uav[17] utilizationFail 0
scalar OsgEarthNet.uav[17] simulationTime 259200
scalar OsgEarthNet.uav[18] utilizationSecMission 443.5870541303
scalar OsgEarthNet.uav[18] utilizationSecMaintenance 125.81102573108
scalar OsgEarthNet.uav[18] utilizationSecCharge 2550
scalar OsgEarthNet.uav[18] utilizationSecIdle 256080.60092014
scalar OsgEarthNet.uav[18] utilizationEnergyMission 2021.8636474609
scalar OsgEarthNet.uav[18] utilizationEnergyMaintenance 652.81203460694
scalar OsgEarthNet.uav[18] utilizationEnergyCharge 2704.0883789062
scalar OsgEarthNet.uav[18] utilizationEnergyOverdrawMission 0
scalar OsgEarthNet.uav[18] utilizationEnergyOverdrawMaintenance 0
scalar OsgEarthNet.uav[18] utilizationCountMissions 1
scalar OsgEarthNet.uav[18] utilizationCountManeuversMission 7
scalar OsgEarthNet.uav[18] utilizationCountManeuversMaintenance 2
scalar OsgEarthNet.uav[18] utilizationCountChargeState 1
scalar OsgEarthNet.uav[18] utilizationCountOverdrawnAfterMission 0
scalar OsgEarthNet.uav[18] utilizationCountIdleState 2
scalar OsgEarthNet.uav[18] utilizationFail 0
scalar OsgEarthNet.uav[18] simulationTime 259200
scalar OsgEarthNet.uav[19] utilizationSecMission 443.5870541303
scalar OsgEarthNet.uav[19] utilizationSecMaintenance 425.80795651079
scalar OsgEarthNet.uav[19] utilizationSecCharge 3400
scalar OsgEarthNet.uav[19] utilizationSecIdle 254930.60398936
scalar OsgEarthNet.uav[19] utilizationEnergyMission 2089.4367218018
scalar OsgEarthNet.uav[19] utilizationEnergyMaintenance 2067.4735069275
scalar OsgEarthNet.uav[19] utilizationEnergyCharge 4223.90234375
scalar OsgEarthNet.uav[19] utilizationEnergyOverdrawMission 0
scalar OsgEarthNet.uav[19] utilizationEnergyOverdrawMaintenance 0
scalar OsgEarthNet.uav[19] utilizationCountMissions 1
scalar OsgEarthNet.uav[19] utilizationCountManeuversMission 7
scalar OsgEarthNet.uav[19] utilizationCountManeuversMaintenance 2
scalar OsgEarthNet.uav[19] utilizationCountChargeState 1
scalar OsgEarthNet.uav[19] utilizationCountOverdrawnAfterMission 0
scalar OsgEarthNet.uav[19] utilizationCountIdleState 2
scalar OsgEarthNet.uav[19] utilizationFail 0
scalar OsgEarthNet.uav[19] simulationTime 259200
scalar OsgEarthNet.uav[20] utilizationSecMission 179.21601502944
scalar OsgEarthNet.uav[20] utilizationSecMaintenance 344.43405905663
scalar OsgEarthNet.uav[20] utilizationSecCharge 2460
scalar OsgEarthNet.uav[20] utilizationSecIdle 256216.34892591
scalar OsgEarthNet.uav[20] utilizationEnergyMission 859.8475189209
scalar OsgEarthNet.uav[20] utilizationEnergyMaintenance 1658.3061943054
scalar OsgEarthNet.uav[20] utilizationEnergyCharge 2518.1477050781
scalar OsgEarthNet.uav[20] utilizationEnergyOverdrawMission 0
scalar OsgEarthNet.uav[20] utilizationEnergyOverdrawMaintenance 0
scalar OsgEarthNet.uav[20] utilizationCountMissions 1
scalar OsgEarthNet.uav[20] utilizationCountManeuversMission 3
scalar OsgEarthNet.uav[20] utilizationCountManeuversMaintenance 2
scalar OsgEarthNet.uav[20] utilizationCountChargeState 1
scalar OsgEarthNet.uav[20] utilizationCountOverdrawnAfterMission 0
scalar OsgEarthNet.uav[20] utilizationCountIdleState 2
scalar OsgEarthNet.uav[20] utilizationFail 0
scalar OsgEarthNet.uav[20] simulationTime 259200
scalar OsgEarthNet.uav[21] utilizationSecMission 301.50602773369
scalar OsgEarthNet.uav[21] utilizationSecMaintenance 206.19350838146
scalar OsgEarthNet.uav[21] utilizationSecCharge 2380
scalar OsgEarthNet.uav[21] utilizationSecIdle 256312.29946388
scalar OsgEarthNet.uav[21] utilizationEnergyMission 1384.4010772705
scalar OsgEarthNet.uav[21] utilizationEnergyMaintenance 1004.7351913452
scalar OsgEarthNet.uav[21] utilizationEnergyCharge 2459.2172851562
scalar OsgEarthNet.uav[21] utilizationEnergyOverdrawMission 0
scalar OsgEarthNet.uav[21] utilizationEnergyOverdrawMaintenance 0
scalar OsgEarthNet.uav[21] utilizationCountMissions 1
scalar OsgEarthNet.uav[21] utilizationCountManeuversMission 6
scalar OsgEarthNet.uav[21] utilizationCountManeuversMaintenance 2
scalar OsgEarthNet.uav[21] utilizationCountChargeState 1
scalar OsgEarthNet.uav[21] utilizationCountOverdrawnAfterMission 0
scalar OsgEarthNet.uav[21] utilizationCountIdleState 2
scalar OsgEarthNet.uav[21] utilizationFail 0
scalar OsgEarthNet.uav[21] simulationTime 259200
scalar OsgEarthNet.uav[22] utilizationSecMission 694.00169469977
scalar OsgEarthNet.uav[22] utilizationSecMaintenance 229.48898285212
scalar OsgEarthNet.uav[22] utilizationSecCharge 3550
scalar OsgEarthNet.uav[22] utilizationSecIdle 254726.50832245
scalar OsgEarthNet.uav[22] utilizationEnergyMission 3323.0824050903
scalar OsgEarthNet.uav[22] utilizationEnergyMaintenance 1135.3586959839
scalar OsgEarthNet.uav[22] utilizationEnergyCharge 4493.9736328125
scalar OsgEarthNet.uav[22] utilizationEnergyOverdrawMission 0
scalar OsgEarthNet.uav[22] utilizationEnergyOverdrawMaintenance 0
scalar OsgEarthNet.uav[22] utilizationCountMissions 1
scalar OsgEarthNet.uav[22] utilizationCountManeuversMission 13
scalar OsgEarthNet.uav[22] utilizationCountManeuversMaintenance 2
scalar OsgEarthNet.uav[22] utilizationCountChargeState 1
scalar OsgEarthNet.uav[22] utilizationCountOverdrawnAfterMission 0
scalar OsgEarthNet.uav[22] utilizationCountIdleState 2
scalar OsgEarthNet.uav[22] utilizationFail 0
scalar OsgEarthNet.uav[22] simulationTime 259200
scalar OsgEarthNet.uav[23] utilizationSecMission 443.5870541303
scalar OsgEarthNet.uav[23] utilizationSecMaintenance 425.80795651079
scalar OsgEarthNet.uav[23] utilizationSecCharge 3440
scalar OsgEarthNet.uav[23] utilizationSecIdle 254890.60398936
scalar OsgEarthNet.uav[23] utilizationEnergyMission 2094.3320007324
scalar OsgEarthNet.uav[23] utilizationEnergyMaintenance 2023.4005699158
scalar OsgEarthNet.uav[23] utilizationEnergyCharge 4177.5048828125
scalar OsgEarthNet.uav[23] utilizationEnergyOverdrawMission 0
scalar OsgEarthNet.uav[23] utilizationEnergyOverdrawMaintenance 0
scalar OsgEarthNet.uav[23] utilizationCountMissions 1
scalar OsgEarthNet.uav[23] utilizationCountManeuversMission 7
scalar OsgEarthNet.uav[23] utilizationCountManeuversMaintenance 2
scalar OsgEarthNet.uav[23] utilizationCountChargeState 1
scalar OsgEarthNet.uav[23] utilizationCountOverdrawnAfterMission 0
scalar OsgEarthNet.uav[23] utilizationCountIdleState 2
scalar OsgEarthNet.uav[23] utilizationFail 0
scalar OsgEarthNet.uav[23] simulationTime 259200
scalar OsgEarthNet.uav[24] utilizationSecMission 20878.616149
scalar OsgEarthNet.uav[24] utilizationSecMaintenance 10745.6369702
scalar OsgEarthNet.uav[24] utilizationSecCharge 124536.12638497
scalar OsgEarthNet.uav[24] utilizationSecIdle 103039.61949583
scalar OsgEarthNet.uav[24] utilizationEnergyMission 96837.391983032
scalar OsgEarthNet.uav[24] utilizationEnergyMaintenance 50114.363330841
scalar OsgEarthNet.uav[24] utilizationEnergyCharge 146891.2253418
scalar OsgEarthNet.uav[24] utilizationEnergyOverdrawMission 0
scalar OsgEarthNet.uav[24] utilizationEnergyOverdrawMaintenance 0
scalar OsgEarthNet.uav[24] utilizationCountMissions 40
scalar OsgEarthNet.uav[24] utilizationCountManeuversMission 341
scalar OsgEarthNet.uav[24] utilizationCountManeuversMaintenance 80
scalar OsgEarthNet.uav[24] utilizationCountChargeState 40
scalar OsgEarthNet.uav[24] utilizationCountOverdrawnAfterMission 0
scalar OsgEarthNet.uav[24] utilizationCountIdleState 40
scalar OsgEarthNet.uav[24] utilizationFail 0
scalar OsgEarthNet.uav[24] simulationTime 259200
scalar OsgEarthNet.uav[25] utilizationSecMission 27222.322282781
scalar OsgEarthNet.uav[25] utilizationSecMaintenance 14548.005268959
scalar OsgEarthNet.uav[25] utilizationSecCharge 160233.63534949
scalar OsgEarthNet.uav[25] utilizationSecIdle 57196.036098769
scalar OsgEarthNet.uav[25] utilizationEnergyMission 125681.97772217
scalar OsgEarthNet.uav[25] utilizationEnergyMaintenance 67615.832107544
scalar OsgEarthNet.uav[25] utilizationEnergyCharge 191005.25732422
scalar OsgEarthNet.uav[25] utilizationEnergyOverdrawMission 0
scalar OsgEarthNet.uav[25] utilizationEnergyOverdrawMaintenance 0
scalar OsgEarthNet.uav[25] utilizationCountMissions 51
scalar OsgEarthNet.uav[25] utilizationCountManeuversMission 442
scalar OsgEarthNet.uav[25] utilizationCountManeuversMaintenance 102
scalar OsgEarthNet.uav[25] utilizationCountChargeState 51
scalar OsgEarthNet.uav[25] utilizationCountOverdrawnAfterMission 0
scalar OsgEarthNet.uav[25] utilizationCountIdleState 51
scalar OsgEarthNet.uav[25] utilizationFail 0
scalar OsgEarthNet.uav[25] simulationTime 259200
scalar OsgEarthNet.uav[26] utilizationSecMission 8910.6021256898
scalar OsgEarthNet.uav[26] utilizationSecMaintenance 3029.5955104508
scalar OsgEarthNet.uav[26] utilizationSecCharge 45140
scalar OsgEarthNet.uav[26] utilizationSecIdle 202119.80136386
scalar OsgEarthNet.uav[26] utilizationEnergyMission 41735.13873291
scalar OsgEarthNet.uav[26] utilizationEnergyMaintenance 14110.373222351
scalar OsgEarthNet.uav[26] utilizationEnergyCharge 55809.487792969
scalar OsgEarthNet.uav[26] utilizationEnergyOverdrawMission 0
scalar OsgEarthNet.uav[26] utilizationEnergyOverdrawMaintenance 0
scalar OsgEarthNet.uav[26] utilizationCountMissions 13
scalar OsgEarthNet.uav[26] utilizationCountManeuversMission 137
scalar OsgEarthNet.uav[26] utilizationCountManeuversMaintenance 26
scalar OsgEarthNet.uav[26] utilizationCountChargeState 13
scalar OsgEarthNet.uav[26] utilizationCountOverdrawnAfterMission 0
scalar OsgEarthNet.uav[26] utilizationCountIdleState 14
scalar OsgEarthNet.uav[26] utilizationFail 0
scalar OsgEarthNet.uav[26] simulationTime 259200
scalar OsgEarthNet.uav[27] utilizationSecMission 1006.6081368751
scalar OsgEarthNet.uav[27] utilizationSecMaintenance 992.82137851303
scalar OsgEarthNet.uav[27] utilizationSecCharge 8330
scalar OsgEarthNet.uav[27] utilizationSecIdle 248870.56948461
scalar OsgEarthNet.uav[27] utilizationEnergyMission 4648.6349105835
scalar OsgEarthNet.uav[27] utilizationEnergyMaintenance 4566.5314178467
scalar OsgEarthNet.uav[27] utilizationEnergyCharge 9215.1669921875
scalar OsgEarthNet.uav[27] utilizationEnergyOverdrawMission 0
scalar OsgEarthNet.uav[27] utilizationEnergyOverdrawMaintenance 0
scalar OsgEarthNet.uav[27] utilizationCountMissions 3
scalar OsgEarthNet.uav[27] utilizationCountManeuversMission 16
scalar OsgEarthNet.uav[27] utilizationCountManeuversMaintenance 6
scalar OsgEarthNet.uav[27] utilizationCountChargeState 3
scalar OsgEarthNet.uav[27] utilizationCountOverdrawnAfterMission 0
scalar OsgEarthNet.uav[27] utilizationCountIdleState 4
scalar OsgEarthNet.uav[27] utilizationFail 0
scalar OsgEarthNet.uav[27] simulationTime 259200
scalar OsgEarthNet.uav[28] utilizationSecMission 887.1741082606
scalar OsgEarthNet.uav[28] utilizationSecMaintenance 125.81102573108
scalar OsgEarthNet.uav[28] utilizationSecCharge 3530
scalar OsgEarthNet.uav[28] utilizationSecIdle 254657.01386601
scalar OsgEarthNet.uav[28] utilizationEnergyMission 4102.4019927978
scalar OsgEarthNet.uav[28] utilizationEnergyMaintenance 598.77202606201
scalar OsgEarthNet.uav[28] utilizationEnergyCharge 4460.0146484375
scalar OsgEarthNet.uav[28] utilizationEnergyOverdrawMission 0
scalar OsgEarthNet.uav[28] utilizationEnergyOverdrawMaintenance 0
scalar OsgEarthNet.uav[28] utilizationCountMissions 1
scalar OsgEarthNet.uav[28] utilizationCountManeuversMission 14
scalar OsgEarthNet.uav[28] utilizationCountManeuversMaintenance 2
scalar OsgEarthNet.uav[28] utilizationCountChargeState 1
scalar OsgEarthNet.uav[28] utilizationCountOverdrawnAfterMission 0
scalar OsgEarthNet.uav[28] utilizationCountIdleState 2
scalar OsgEarthNet.uav[28] utilizationFail 0
scalar OsgEarthNet.uav[28] simulationTime 259200
scalar OsgEarthNet.uav[29] utilizationSecMission 760.62515258028
scalar OsgEarthNet.uav[29] utilizationSecMaintenance 245.74410321072
scalar OsgEarthNet.uav[29] utilizationSecCharge 3730
scalar OsgEarthNet.uav[29] utilizationSecIdle 254463.62974421
scalar OsgEarthNet.uav[29] utilizationEnergyMission 3685.9272918701
scalar OsgEarthNet.uav[29] utilizationEnergyMaintenance 1082.7848625183
scalar OsgEarthNet.uav[29] utilizationEnergyCharge 4768.7124023438
scalar OsgEarthNet.uav[29] utilizationEnergyOverdrawMission 0
scalar OsgEarthNet.uav[29] utilizationEnergyOverdrawMaintenance 0
scalar OsgEarthNet.uav[29] utilizationCountMissions 1
scalar OsgEarthNet.uav[29] utilizationCountManeuversMission 12
scalar OsgEarthNet.uav[29] utilizationCountManeuversMaintenance 2
scalar OsgEarthNet.uav[29] utilizationCountChargeState 1
scalar OsgEarthNet.uav[29] utilizationCountOverdrawnAfterMission 0
scalar OsgEarthNet.uav[29] utilizationCountIdleState 2
scalar OsgEarthNet.uav[29] utilizationFail 0
scalar OsgEarthNet.uav[29] simulationTime 259200
scalar OsgEarthNet.uav[30] utilizationSecMission 570.98871244881
scalar OsgEarthNet.uav[30] utilizationSecMaintenance 276.2282017063
scalar OsgEarthNet.uav[30] utilizationSecCharge 3440
scalar OsgEarthNet.uav[30] utilizationSecIdle 254912.78208584
scalar OsgEarthNet.uav[30] utilizationEnergyMission 2891.6541748047
scalar OsgEarthNet.uav[30] utilizationEnergyMaintenance 1420.5529289246
scalar OsgEarthNet.uav[30] utilizationEnergyCharge 4312.2109375
scalar OsgEarthNet.uav[30] utilizationEnergyOverdrawMission 0
scalar OsgEarthNet.uav[30] utilizationEnergyOverdrawMaintenance 0
scalar OsgEarthNet.uav[30] utilizationCountMissions 1
scalar OsgEarthNet.uav[30] utilizationCountManeuversMission 8
scalar OsgEarthNet.uav[30] utilizationCountManeuversMaintenance 2
scalar OsgEarthNet.uav[30] utilizationCountChargeState 1
scalar OsgEarthNet.uav[30] utilizationCountOverdrawnAfterMission 0
scalar OsgEarthNet.uav[30] utilizationCountIdleState 2
scalar OsgEarthNet.uav[30] utilizationFail 0
scalar OsgEarthNet.uav[30] simulationTime 259200
scalar OsgEarthNet.uav[31] utilizationSecMission 28949.45775721
scalar OsgEarthNet.uav[31] utilizationSecMaintenance 13251.204160831
scalar OsgEarthNet.uav[31] utilizationSecCharge 165960
scalar OsgEarthNet.uav[31] utilizationSecIdle 51039.337081958
scalar OsgEarthNet.uav[31] utilizationEnergyMission 132892.80399323
scalar OsgEarthNet.uav[31] utilizationEnergyMaintenance 62911.290210724
scalar OsgEarthNet.uav[31] utilizationEnergyCharge 194085.98266602
scalar OsgEarthNet.uav[31] utilizationEnergyOverdrawMission 0
scalar OsgEarthNet.uav[31] utilizationEnergyOverdrawMaintenance 0
scalar OsgEarthNet.uav[31] utilizationCountMissions 54
scalar OsgEarthNet.uav[31] utilizationCountManeuversMission 472
scalar OsgEarthNet.uav[31] utilizationCountManeuversMaintenance 108
scalar OsgEarthNet.uav[31] utilizationCountChargeState 54
scalar OsgEarthNet.uav[31] utilizationCountOverdrawnAfterMission 0
scalar OsgEarthNet.uav[31] utilizationCountIdleState 55
scalar OsgEarthNet.uav[31] utilizationFail 0
scalar OsgEarthNet.uav[31] simulationTime 259200
scalar OsgEarthNet.uav[32] utilizationSecMission 4047.1073164303
scalar OsgEarthNet.uav[32] utilizationSecMaintenance 2854.9362279355
scalar OsgEarthNet.uav[32] utilizationSecCharge 25707.944817595
scalar OsgEarthNet.uav[32] utilizationSecIdle 226590.01063804
scalar OsgEarthNet.uav[32] utilizationEnergyMission 18718.305862427
scalar OsgEarthNet.uav[32] utilizationEnergyMaintenance 13524.057929993
scalar OsgEarthNet.uav[32] utilizationEnergyCharge 30733.481445312
scalar OsgEarthNet.uav[32] utilizationEnergyOverdrawMission 0
scalar OsgEarthNet.uav[32] utilizationEnergyOverdrawMaintenance 0
scalar OsgEarthNet.uav[32] utilizationCountMissions 9
scalar OsgEarthNet.uav[32] utilizationCountManeuversMission 68
scalar OsgEarthNet.uav[32] utilizationCountManeuversMaintenance 18
scalar OsgEarthNet.uav[32] utilizationCountChargeState 9
scalar OsgEarthNet.uav[32] utilizationCountOverdrawnAfterMission 0
scalar OsgEarthNet.uav[32] utilizationCountIdleState 9
scalar OsgEarthNet.uav[32] utilizationFail 0
scalar OsgEarthNet.uav[32] simulationTime 259200
scalar OsgEarthNet.uav[33] utilizationSecMission 213.40226662092
scalar OsgEarthNet.uav[33] utilizationSecMaintenance 474.30151219871
scalar OsgEarthNet.uav[33] utilizationSecCharge 2900
scalar OsgEarthNet.uav[33] utilizationSecIdle 255612.29522118
scalar OsgEarthNet.uav[33] utilizationEnergyMission 1045.8486022949
scalar OsgEarthNet.uav[33] utilizationEnergyMaintenance 2205.6799545288
scalar OsgEarthNet.uav[33] utilizationEnergyCharge 3251.533203125
scalar OsgEarthNet.uav[33] utilizationEnergyOverdrawMission 0
scalar OsgEarthNet.uav[33] utilizationEnergyOverdrawMaintenance 0
scalar OsgEarthNet.uav[33] utilizationCountMissions 1
scalar OsgEarthNet.uav[33] utilizationCountManeuversMission 3
scalar OsgEarthNet.uav[33] utilizationCountManeuversMaintenance 2
scalar OsgEarthNet.uav[33] utilizationCountChargeState 1
scalar OsgEarthNet.uav[33] utilizationCountOverdrawnAfterMission 0
scalar OsgEarthNet.uav[33] utilizationCountIdleState 2
scalar OsgEarthNet.uav[33] utilizationFail 0
scalar OsgEarthNet.uav[33] simulationTime 259200
scalar OsgEarthNet.uav[34] utilizationSecMission 25773.356369932
scalar OsgEarthNet.uav[34] utilizationSecMaintenance 15205.678644394
scalar OsgEarthNet.uav[34] utilizationSecCharge 163230
scalar OsgEarthNet.uav[34] utilizationSecIdle 54990.963985674
scalar OsgEarthNet.uav[34] utilizationEnergyMission 119507.58751339
scalar OsgEarthNet.uav[34] utilizationEnergyMaintenance 71083.206371307
scalar OsgEarthNet.uav[34] utilizationEnergyCharge 188992.40551758
scalar OsgEarthNet.uav[34] utilizationEnergyOverdrawMission 0
scalar OsgEarthNet.uav[34] utilizationEnergyOverdrawMaintenance 0
scalar OsgEarthNet.uav[34] utilizationCountMissions 54
scalar OsgEarthNet.uav[34] utilizationCountManeuversMission 422
scalar OsgEarthNet.uav[34] utilizationCountManeuversMaintenance 109
scalar OsgEarthNet.uav[34] utilizationCountChargeState 54
scalar OsgEarthNet.uav[34] utilizationCountOverdrawnAfterMission 0
scalar OsgEarthNet.uav[34] utilizationCountIdleState 55
scalar OsgEarthNet.uav[34] utilizationFail 0
scalar OsgEarthNet.uav[34] simulationTime 259200
scalar OsgEarthNet.uav[35] utilizationSecMission 19873.825506173
scalar OsgEarthNet.uav[35] utilizationSecMaintenance 8224.057559526
scalar OsgEarthNet.uav[35] utilizationSecCharge 109430
scalar OsgEarthNet.uav[35] utilizationSecIdle 121672.1159343
scalar OsgEarthNet.uav[35] utilizationEnergyMission 92064.695663452
scalar OsgEarthNet.uav[35] utilizationEnergyMaintenance 38111.618991852
scalar OsgEarthNet.uav[35] utilizationEnergyCharge 130664.00488281
scalar OsgEarthNet.uav[35] utilizationEnergyOverdrawMission 0
scalar OsgEarthNet.uav[35] utilizationEnergyOverdrawMaintenance 0
scalar OsgEarthNet.uav[35] utilizationCountMissions 34
scalar OsgEarthNet.uav[35] utilizationCountManeuversMission 316
scalar OsgEarthNet.uav[35] utilizationCountManeuversMaintenance 68
scalar OsgEarthNet.uav[35] utilizationCountChargeState 34
scalar OsgEarthNet.uav[35] utilizationCountOverdrawnAfterMission 0
scalar OsgEarthNet.uav[35] utilizationCountIdleState 35
scalar OsgEarthNet.uav[35] utilizationFail 0
scalar OsgEarthNet.uav[35] simulationTime 259200
scalar OsgEarthNet.uav[36] utilizationSecMission 14245.642678598
scalar OsgEarthNet.uav[36] utilizationSecMaintenance 7866.7776326167
scalar OsgEarthNet.uav[36] utilizationSecCharge 86040
scalar OsgEarthNet.uav[36] utilizationSecIdle 151047.57868879
scalar OsgEarthNet.uav[36] utilizationEnergyMission 65597.984477997
scalar OsgEarthNet.uav[36] utilizationEnergyMaintenance 36794.221534729
scalar OsgEarthNet.uav[36] utilizationEnergyCharge 102389.640625
scalar OsgEarthNet.uav[36] utilizationEnergyOverdrawMission 0
scalar OsgEarthNet.uav[36] utilizationEnergyOverdrawMaintenance 0
scalar OsgEarthNet.uav[36] utilizationCountMissions 27
scalar OsgEarthNet.uav[36] utilizationCountManeuversMission 218
scalar OsgEarthNet.uav[36] utilizationCountManeuversMaintenance 54
scalar OsgEarthNet.uav[36] utilizationCountChargeState 27
scalar OsgEarthNet.uav[36] utilizationCountOverdrawnAfterMission 0
scalar OsgEarthNet.uav[36] utilizationCountIdleState 28
scalar OsgEarthNet.uav[36] utilizationFail 0
scalar OsgEarthNet.uav[36] simulationTime 259200
scalar OsgEarthNet.uav[37] utilizationSecMission 19664.992496691
scalar OsgEarthNet.uav[37] utilizationSecMaintenance 11300.397834695
scalar OsgEarthNet.uav[37] utilizationSecCharge 122218.63707663
scalar OsgEarthNet.uav[37] utilizationSecIdle 106015.97159199
scalar OsgEarthNet.uav[37] utilizationEnergyMission 90953.935661316
scalar OsgEarthNet.uav[37] utilizationEnergyMaintenance 53262.904975891
scalar OsgEarthNet.uav[37] utilizationEnergyCharge 142478.22705078
scalar OsgEarthNet.uav[37] utilizationEnergyOverdrawMission 0
scalar OsgEarthNet.uav[37] utilizationEnergyOverdrawMaintenance 0
scalar OsgEarthNet.uav[37] utilizationCountMissions 41
scalar OsgEarthNet.uav[37] utilizationCountManeuversMission 321
scalar OsgEarthNet.uav[37] utilizationCountManeuversMaintenance 82
scalar OsgEarthNet.uav[37] utilizationCountChargeState 41
scalar OsgEarthNet.uav[37] utilizationCountOverdrawnAfterMission 0
scalar OsgEarthNet.uav[37] utilizationCountIdleState 41
scalar OsgEarthNet.uav[37] utilizationFail 0
scalar OsgEarthNet.uav[37] simulationTime 259200
scalar OsgEarthNet.uav[38] utilizationSecMission 27990.409694784
scalar OsgEarthNet.uav[38] utilizationSecMaintenance 14066.79081698
scalar OsgEarthNet.uav[38] utilizationSecCharge 168050
scalar OsgEarthNet.uav[38] utilizationSecIdle 49092.798488235
scalar OsgEarthNet.uav[38] utilizationEnergyMission 130350.66548157
scalar OsgEarthNet.uav[38] utilizationEnergyMaintenance 66722.790412903
scalar OsgEarthNet.uav[38] utilizationEnergyCharge 196138.55615234
scalar OsgEarthNet.uav[38] utilizationEnergyOverdrawMission 0
scalar OsgEarthNet.uav[38] utilizationEnergyOverdrawMaintenance 0
scalar OsgEarthNet.uav[38] utilizationCountMissions 55
scalar OsgEarthNet.uav[38] utilizationCountManeuversMission 450
scalar OsgEarthNet.uav[38] utilizationCountManeuversMaintenance 110
scalar OsgEarthNet.uav[38] utilizationCountChargeState 55
scalar OsgEarthNet.uav[38] utilizationCountOverdrawnAfterMission 0
scalar OsgEarthNet.uav[38] utilizationCountIdleState 56
scalar OsgEarthNet.uav[38] utilizationFail 0
scalar OsgEarthNet.uav[38] simulationTime 259200
scalar OsgEarthNet.uav[39] utilizationSecMission 443.5870541303
scalar OsgEarthNet.uav[39] utilizationSecMaintenance 425.80795651079
scalar OsgEarthNet.uav[39] utilizationSecCharge 3550
scalar OsgEarthNet.uav[39] utilizationSecIdle 254780.60398936
scalar OsgEarthNet.uav[39] utilizationEnergyMission 2232.4144134521
scalar OsgEarthNet.uav[39] utilizationEnergyMaintenance 2168.0984306335
scalar OsgEarthNet.uav[39] utilizationEnergyCharge 4387.8720703125
scalar OsgEarthNet.uav[39] utilizationEnergyOverdrawMission 0
scalar OsgEarthNet.uav[39] utilizationEnergyOverdrawMaintenance 0
scalar OsgEarthNet.uav[39] utilizationCountMissions 1
scalar OsgEarthNet.uav[39] utilizationCountManeuversMission 7
scalar OsgEarthNet.uav[39] utilizationCountManeuversMaintenance 2
scalar OsgEarthNet.uav[39] utilizationCountChargeState 1
scalar OsgEarthNet.uav[39] utilizationCountOverdrawnAfterMission 0
scalar OsgEarthNet.uav[39] utilizationCountIdleState 2
scalar OsgEarthNet.uav[39] utilizationFail 0
scalar OsgEarthNet.uav[39] simulationTime 259200
scalar OsgEarthNet.uav[40] utilizationSecMission 643.6855834741
scalar OsgEarthNet.uav[40] utilizationSecMaintenance 176.71691540981
scalar OsgEarthNet.uav[40] utilizationSecCharge 3140
scalar OsgEarthNet.uav[40] utilizationSecIdle 255239.59650112
scalar OsgEarthNet.uav[40] utilizationEnergyMission 3023.6739807129
scalar OsgEarthNet.uav[40] utilizationEnergyMaintenance 861.71285247803
scalar OsgEarthNet.uav[40] utilizationEnergyCharge 3762.5947265625
scalar OsgEarthNet.uav[40] utilizationEnergyOverdrawMission 0
scalar OsgEarthNet.uav[40] utilizationEnergyOverdrawMaintenance 0
scalar OsgEarthNet.uav[40] utilizationCountMissions 1
scalar OsgEarthNet.uav[40] utilizationCountManeuversMission 9
scalar OsgEarthNet.uav[40] utilizationCountManeuversMaintenance 2
scalar OsgEarthNet.uav[40] utilizationCountChargeState 1
scalar OsgEarthNet.uav[40] utilizationCountOverdrawnAfterMission 0
scalar OsgEarthNet.uav[40] utilizationCountIdleState 2
scalar OsgEarthNet.uav[40] utilizationFail 0
scalar OsgEarthNet.uav[40] simulationTime 259200
scalar OsgEarthNet.uav[41] utilizationSecMission 301.50602773369
scalar OsgEarthNet.uav[41] utilizationSecMaintenance 206.19350838146
scalar OsgEarthNet.uav[41] utilizationSecCharge 2370
scalar OsgEarthNet.uav[41] utilizationSecIdle 256322.29946388
scalar OsgEarthNet.uav[41] utilizationEnergyMission 1361.032913208
scalar OsgEarthNet.uav[41] utilizationEnergyMaintenance 1038.1711959839
scalar OsgEarthNet.uav[41] utilizationEnergyCharge 2376.6394042969
scalar OsgEarthNet.uav[41] utilizationEnergyOverdrawMission 0
scalar OsgEarthNet.uav[41] utilizationEnergyOverdrawMaintenance 0
scalar OsgEarthNet.uav[41] utilizationCountMissions 1
scalar OsgEarthNet.uav[41] utilizationCountManeuversMission 6
scalar OsgEarthNet.uav[41] utilizationCountManeuversMaintenance 2
scalar OsgEarthNet.uav[41] utilizationCountChargeState 1
scalar OsgEarthNet.uav[41] utilizationCountOverdrawnAfterMission 0
scalar OsgEarthNet.uav[41] utilizationCountIdleState 2
scalar OsgEarthNet.uav[41] utilizationFail 0
scalar OsgEarthNet.uav[41] simulationTime 259200
scalar OsgEarthNet.uav[42] utilizationSecMission 887.1741082606
scalar OsgEarthNet.uav[42] utilizationSecMaintenance 125.81102573108
scalar OsgEarthNet.uav[42] utilizationSecCharge 3480
scalar OsgEarthNet.uav[42] utilizationSecIdle 254707.01386601
scalar OsgEarthNet.uav[42] utilizationEnergyMission 4204.3563690186
scalar OsgEarthNet.uav[42] utilizationEnergyMaintenance 571.07714080811
scalar OsgEarthNet.uav[42] utilizationEnergyCharge 4356.251953125
scalar OsgEarthNet.uav[42] utilizationEnergyOverdrawMission 0
scalar OsgEarthNet.uav[42] utilizationEnergyOverdrawMaintenance 0
scalar OsgEarthNet.uav[42] utilizationCountMissions 1
scalar OsgEarthNet.uav[42] utilizationCountManeuversMission 14
scalar OsgEarthNet.uav[42] utilizationCountManeuversMaintenance 2
scalar OsgEarthNet.uav[42] utilizationCountChargeState 1
scalar OsgEarthNet.uav[42] utilizationCountOverdrawnAfterMission 0
scalar OsgEarthNet.uav[42] utilizationCountIdleState 2
scalar OsgEarthNet.uav[42] utilizationFail 0
scalar OsgEarthNet.uav[42] simulationTime 259200
scalar OsgEarthNet.uav[43] utilizationSecMission 26881.248072594
scalar OsgEarthNet.uav[43] utilizationSecMaintenance 13653.816751068
scalar OsgEarthNet.uav[43] utilizationSecCharge 155768.13495226
scalar OsgEarthNet.uav[43] utilizationSecIdle 62896.799224078
scalar OsgEarthNet.uav[43] utilizationEnergyMission 125068.27722168
scalar OsgEarthNet.uav[43] utilizationEnergyMaintenance 63566.37676239
scalar OsgEarthNet.uav[43] utilizationEnergyCharge 186917.05578613
scalar OsgEarthNet.uav[43] utilizationEnergyOverdrawMission 0
scalar OsgEarthNet.uav[43] utilizationEnergyOverdrawMaintenance 0
scalar OsgEarthNet.uav[43] utilizationCountMissions 49
scalar OsgEarthNet.uav[43] utilizationCountManeuversMission 438
scalar OsgEarthNet.uav[43] utilizationCountManeuversMaintenance 98
scalar OsgEarthNet.uav[43] utilizationCountChargeState 49
scalar OsgEarthNet.uav[43] utilizationCountOverdrawnAfterMission 0
scalar OsgEarthNet.uav[43] utilizationCountIdleState 49
scalar OsgEarthNet.uav[43] utilizationFail 0
scalar OsgEarthNet.uav[43] simulationTime 259200
scalar OsgEarthNet.uav[44] utilizationSecMission 27526.10915375
scalar OsgEarthNet.uav[44] utilizationSecMaintenance 11091.673226877
scalar OsgEarthNet.uav[44] utilizationSecCharge 150041.15882418
scalar OsgEarthNet.uav[44] utilizationSecIdle 70541.057795193
scalar OsgEarthNet.uav[44] utilizationEnergyMission 127576.45941925
scalar OsgEarthNet.uav[44] utilizationEnergyMaintenance 51811.672775269
scalar OsgEarthNet.uav[44] utilizationEnergyCharge 179608.93017578
scalar OsgEarthNet.uav[44] utilizationEnergyOverdrawMission 0
scalar OsgEarthNet.uav[44] utilizationEnergyOverdrawMaintenance 0
scalar OsgEarthNet.uav[44] utilizationCountMissions 47
scalar OsgEarthNet.uav[44] utilizationCountManeuversMission 448
scalar OsgEarthNet.uav[44] utilizationCountManeuversMaintenance 94
scalar OsgEarthNet.uav[44] utilizationCountChargeState 47
scalar OsgEarthNet.uav[44] utilizationCountOverdrawnAfterMission 0
scalar OsgEarthNet.uav[44] utilizationCountIdleState 47
scalar OsgEarthNet.uav[44] utilizationFail 0
scalar OsgEarthNet.uav[44] simulationTime 259200
scalar OsgEarthNet.uav[45] utilizationSecMission 19963.28664829
scalar OsgEarthNet.uav[45] utilizationSecMaintenance 9949.7917938322
scalar OsgEarthNet.uav[45] utilizationSecCharge 118200
scalar OsgEarthNet.uav[45] utilizationSecIdle 111086.92055788
scalar OsgEarthNet.uav[45] utilizationEnergyMission 92661.125320435
scalar OsgEarthNet.uav[45] utilizationEnergyMaintenance 46264.752429962
scalar OsgEarthNet.uav[45] utilizationEnergyCharge 138982.45263672
scalar OsgEarthNet.uav[45] utilizationEnergyOverdrawMission 0
scalar OsgEarthNet.uav[45] utilizationEnergyOverdrawMaintenance 0
scalar OsgEarthNet.uav[45] utilizationCountMissions 38
scalar OsgEarthNet.uav[45] utilizationCountManeuversMission 333
scalar OsgEarthNet.uav[45] utilizationCountManeuversMaintenance 76
scalar OsgEarthNet.uav[45] utilizationCountChargeState 38
scalar OsgEarthNet.uav[45] utilizationCountOverdrawnAfterMission 0
scalar OsgEarthNet.uav[45] utilizationCountIdleState 39
scalar OsgEarthNet.uav[45] utilizationFail 0
scalar OsgEarthNet.uav[45] simulationTime 259200
scalar OsgEarthNet.uav[46] utilizationSecMission 28051.051789501
scalar OsgEarthNet.uav[46] utilizationSecMaintenance 16314.782924869
scalar OsgEarthNet.uav[46] utilizationSecCharge 171128.61737637
scalar OsgEarthNet.uav[46] utilizationSecIdle 43705.546909258
scalar OsgEarthNet.uav[46] utilizationEnergyMission 129039.20135498
scalar OsgEarthNet.uav[46] utilizationEnergyMaintenance 75932.56180954
scalar OsgEarthNet.uav[46] utilizationEnergyCharge 202846.11254883
scalar OsgEarthNet.uav[46] utilizationEnergyOverdrawMission 0
scalar OsgEarthNet.uav[46] utilizationEnergyOverdrawMaintenance 0
scalar OsgEarthNet.uav[46] utilizationCountMissions 55
scalar OsgEarthNet.uav[46] utilizationCountManeuversMission 465
scalar OsgEarthNet.uav[46] utilizationCountManeuversMaintenance 110
scalar OsgEarthNet.uav[46] utilizationCountChargeState 55
scalar OsgEarthNet.uav[46] utilizationCountOverdrawnAfterMission 0
scalar OsgEarthNet.uav[46] utilizationCountIdleState 55
scalar OsgEarthNet.uav[46] utilizationFail 0
scalar OsgEarthNet.uav[46] simulationTime 259200
scalar OsgEarthNet.uav[47] utilizationSecMission 25599.647101778
scalar OsgEarthNet.uav[47] utilizationSecMaintenance 14919.618164566
scalar OsgEarthNet.uav[47] utilizationSecCharge 162400
scalar OsgEarthNet.uav[47] utilizationSecIdle 56280.733733655
scalar OsgEarthNet.uav[47] utilizationEnergyMission 119054.74465942
scalar OsgEarthNet.uav[47] utilizationEnergyMaintenance 70047.907482147
scalar OsgEarthNet.uav[47] utilizationEnergyCharge 189723.40991211
scalar OsgEarthNet.uav[47] utilizationEnergyOverdrawMission 0
scalar OsgEarthNet.uav[47] utilizationEnergyOverdrawMaintenance 0
scalar OsgEarthNet.uav[47] utilizationCountMissions 53
scalar OsgEarthNet.uav[47] utilizationCountManeuversMission 407
scalar OsgEarthNet.uav[47] utilizationCountManeuversMaintenance 106
scalar OsgEarthNet.uav[47] utilizationCountChargeState 53
scalar OsgEarthNet.uav[47] utilizationCountOverdrawnAfterMission 0
scalar OsgEarthNet.uav[47] utilizationCountIdleState 54
scalar OsgEarthNet.uav[47] utilizationFail 0
scalar OsgEarthNet.uav[47] simulationTime 259200
scalar OsgEarthNet.uav[48] utilizationSecMission 887.1741082606
scalar OsgEarthNet.uav[48] utilizationSecMaintenance 125.81102573108
scalar OsgEarthNet.uav[48] utilizationSecCharge 3590
scalar OsgEarthNet.uav[48] utilizationSecIdle 254597.01386601
scalar OsgEarthNet.uav[48] utilizationEnergyMission 4020.5826416016
scalar OsgEarthNet.uav[48] utilizationEnergyMaintenance 558.45723724365
scalar OsgEarthNet.uav[48] utilizationEnergyCharge 4578.822265625
scalar OsgEarthNet.uav[48] utilizationEnergyOverdrawMission 0
scalar OsgEarthNet.uav[48] utilizationEnergyOverdrawMaintenance 0
scalar OsgEarthNet.uav[48] utilizationCountMissions 1
scalar OsgEarthNet.uav[48] utilizationCountManeuversMission 14
scalar OsgEarthNet.uav[48] utilizationCountManeuversMaintenance 2
scalar OsgEarthNet.uav[48] utilizationCountChargeState 1
scalar OsgEarthNet.uav[48] utilizationCountOverdrawnAfterMission 0
scalar OsgEarthNet.uav[48] utilizationCountIdleState 2
scalar OsgEarthNet.uav[48] utilizationFail 0
scalar OsgEarthNet.uav[48] simulationTime 259200
scalar OsgEarthNet.uav[49] utilizationSecMission 26319.304174325
scalar OsgEarthNet.uav[49] utilizationSecMaintenance 12162.008207353
scalar OsgEarthNet.uav[49] utilizationSecCharge 151157.47677131
scalar OsgEarthNet.uav[49] utilizationSecIdle 69561.209847014
scalar OsgEarthNet.uav[49] utilizationEnergyMission 122490.24728394
scalar OsgEarthNet.uav[49] utilizationEnergyMaintenance 56545.354335785
scalar OsgEarthNet.uav[49] utilizationEnergyCharge 177680.31445312
scalar OsgEarthNet.uav[49] utilizationEnergyOverdrawMission 0
scalar OsgEarthNet.uav[49] utilizationEnergyOverdrawMaintenance 0
scalar OsgEarthNet.uav[49] utilizationCountMissions 49
scalar OsgEarthNet.uav[49] utilizationCountManeuversMission 433
scalar OsgEarthNet.uav[49] utilizationCountManeuversMaintenance 98
scalar OsgEarthNet.uav[49] utilizationCountChargeState 49
scalar OsgEarthNet.uav[49] utilizationCountOverdrawnAfterMission 0
scalar OsgEarthNet.uav[49] utilizationCountIdleState 49
scalar OsgEarthNet.uav[49] utilizationFail 0
scalar OsgEarthNet.uav[49] simulationTime 259200
scalar OsgEarthNet.uav[50] utilizationSecMission 23326.297441083
scalar OsgEarthNet.uav[50] utilizationSecMaintenance 15074.474915304
scalar OsgEarthNet.uav[50] utilizationSecCharge 152853.70948464
scalar OsgEarthNet.uav[50] utilizationSecIdle 67945.517158978
scalar OsgEarthNet.uav[50] utilizationEnergyMission 108994.54619598
scalar OsgEarthNet.uav[50] utilizationEnergyMaintenance 70811.723560333
scalar OsgEarthNet.uav[50] utilizationEnergyCharge 176454.80493164
scalar OsgEarthNet.uav[50] utilizationEnergyOverdrawMission 0
scalar OsgEarthNet.uav[50] utilizationEnergyOverdrawMaintenance 0
scalar OsgEarthNet.uav[50] utilizationCountMissions 52
scalar OsgEarthNet.uav[50] utilizationCountManeuversMission 382
scalar OsgEarthNet.uav[50] utilizationCountManeuversMaintenance 104
scalar OsgEarthNet.uav[50] utilizationCountChargeState 52
scalar OsgEarthNet.uav[50] utilizationCountOverdrawnAfterMission 0
scalar OsgEarthNet.uav[50] utilizationCountIdleState 52
scalar OsgEarthNet.uav[50] utilizationFail 0
scalar OsgEarthNet.uav[50] simulationTime 259200
scalar OsgEarthNet.uav[51] utilizationSecMission 23.329233930829
scalar OsgEarthNet.uav[51] utilizationSecMaintenance 636.50021886036
scalar OsgEarthNet.uav[51] utilizationSecCharge 2700
scalar OsgEarthNet.uav[51] utilizationSecIdle 255840.16954721
scalar OsgEarthNet.uav[51] utilizationEnergyMission 105.1852645874
scalar OsgEarthNet.uav[51] utilizationEnergyMaintenance 2907.7021408081
scalar OsgEarthNet.uav[51] utilizationEnergyCharge 3012.8842773438
scalar OsgEarthNet.uav[51] utilizationEnergyOverdrawMission 0
scalar OsgEarthNet.uav[51] utilizationEnergyOverdrawMaintenance 0
scalar OsgEarthNet.uav[51] utilizationCountMissions 1
scalar OsgEarthNet.uav[51] utilizationCountManeuversMission 1
scalar OsgEarthNet.uav[51] utilizationCountManeuversMaintenance 2
scalar OsgEarthNet.uav[51] utilizationCountChargeState 1
scalar OsgEarthNet.uav[51] utilizationCountOverdrawnAfterMission 0
scalar OsgEarthNet.uav[51] utilizationCountIdleState 2
scalar OsgEarthNet.uav[51] utilizationFail 0
scalar OsgEarthNet.uav[51] simulationTime 259200
scalar OsgEarthNet.uav[52] utilizationSecMission 570.98871244881
scalar OsgEarthNet.uav[52] utilizationSecMaintenance 295.50253239167
scalar OsgEarthNet.uav[52] utilizationSecCharge 3350
scalar OsgEarthNet.uav[52] utilizationSecIdle 254983.50775516
scalar OsgEarthNet.uav[52] utilizationEnergyMission 2848.6970367432
scalar OsgEarthNet.uav[52] utilizationEnergyMaintenance 1349.5234184265
scalar OsgEarthNet.uav[52] utilizationEnergyCharge 4198.224609375
scalar OsgEarthNet.uav[52] utilizationEnergyOverdrawMission 0
scalar OsgEarthNet.uav[52] utilizationEnergyOverdrawMaintenance 0
scalar OsgEarthNet.uav[52] utilizationCountMissions 1
scalar OsgEarthNet.uav[52] utilizationCountManeuversMission 8
scalar OsgEarthNet.uav[52] utilizationCountManeuversMaintenance 2
scalar OsgEarthNet.uav[52] utilizationCountChargeState 1
scalar OsgEarthNet.uav[52] utilizationCountOverdrawnAfterMission 0
scalar OsgEarthNet.uav[52] utilizationCountIdleState 2
scalar OsgEarthNet.uav[52] utilizationFail 0
scalar OsgEarthNet.uav[52] simulationTime 259200
scalar OsgEarthNet.uav[53] utilizationSecMission 10627.868105169
scalar OsgEarthNet.uav[53] utilizationSecMaintenance 4121.5400368142
scalar OsgEarthNet.uav[53] utilizationSecCharge 57390
scalar OsgEarthNet.uav[53] utilizationSecIdle 187060.59085802
scalar OsgEarthNet.uav[53] utilizationEnergyMission 48779.746894836
scalar OsgEarthNet.uav[53] utilizationEnergyMaintenance 19326.070777893
scalar OsgEarthNet.uav[53] utilizationEnergyCharge 68340.306152344
scalar OsgEarthNet.uav[53] utilizationEnergyOverdrawMission 0
scalar OsgEarthNet.uav[53] utilizationEnergyOverdrawMaintenance 0
scalar OsgEarthNet.uav[53] utilizationCountMissions 18
scalar OsgEarthNet.uav[53] utilizationCountManeuversMission 173
scalar OsgEarthNet.uav[53] utilizationCountManeuversMaintenance 36
scalar OsgEarthNet.uav[53] utilizationCountChargeState 18
scalar OsgEarthNet.uav[53] utilizationCountOverdrawnAfterMission 0
scalar OsgEarthNet.uav[53] utilizationCountIdleState 19
scalar OsgEarthNet.uav[53] utilizationFail 0
scalar OsgEarthNet.uav[53] simulationTime 259200
scalar OsgEarthNet.uav[54] utilizationSecMission 11527.489149521
scalar OsgEarthNet.uav[54] utilizationSecMaintenance 6700.4606851568
scalar OsgEarthNet.uav[54] utilizationSecCharge 72380.151760848
scalar OsgEarthNet.uav[54] utilizationSecIdle 168591.89740447
scalar OsgEarthNet.uav[54] utilizationEnergyMission 53226.471923828
scalar OsgEarthNet.uav[54] utilizationEnergyMaintenance 31440.740688324
scalar OsgEarthNet.uav[54] utilizationEnergyCharge 83845.244628906
scalar OsgEarthNet.uav[54] utilizationEnergyOverdrawMission 0
scalar OsgEarthNet.uav[54] utilizationEnergyOverdrawMaintenance 0
scalar OsgEarthNet.uav[54] utilizationCountMissions 25
scalar OsgEarthNet.uav[54] utilizationCountManeuversMission 191
scalar OsgEarthNet.uav[54] utilizationCountManeuversMaintenance 50
scalar OsgEarthNet.uav[54] utilizationCountChargeState 25
scalar OsgEarthNet.uav[54] utilizationCountOverdrawnAfterMission 0
scalar OsgEarthNet.uav[54] utilizationCountIdleState 25
scalar OsgEarthNet.uav[54] utilizationFail 0
scalar OsgEarthNet.uav[54] simulationTime 259200
scalar OsgEarthNet.uav[55] utilizationSecMission 12912.750425845
scalar OsgEarthNet.uav[55] utilizationSecMaintenance 8097.6060268722
scalar OsgEarthNet.uav[55] utilizationSecCharge 82950
scalar OsgEarthNet.uav[55] utilizationSecIdle 155239.64254728
scalar OsgEarthNet.uav[55] utilizationEnergyMission 58708.629920959
scalar OsgEarthNet.uav[55] utilizationEnergyMaintenance 38072.557762146
scalar OsgEarthNet.uav[55] utilizationEnergyCharge 97001.830566406
scalar OsgEarthNet.uav[55] utilizationEnergyOverdrawMission 0
scalar OsgEarthNet.uav[55] utilizationEnergyOverdrawMaintenance 0
scalar OsgEarthNet.uav[55] utilizationCountMissions 27
scalar OsgEarthNet.uav[55] utilizationCountManeuversMission 208
scalar OsgEarthNet.uav[55] utilizationCountManeuversMaintenance 54
scalar OsgEarthNet.uav[55] utilizationCountChargeState 27
scalar OsgEarthNet.uav[55] utilizationCountOverdrawnAfterMission 0
scalar OsgEarthNet.uav[55] utilizationCountIdleState 28
scalar OsgEarthNet.uav[55] utilizationFail 0
scalar OsgEarthNet.uav[55] simulationTime 259200
scalar OsgEarthNet.uav[56] utilizationSecMission 750.20472747826
scalar OsgEarthNet.uav[56] utilizationSecMaintenance 261.68051383311
scalar OsgEarthNet.uav[56] utilizationSecCharge 3680
scalar OsgEarthNet.uav[56] utilizationSecIdle 254508.11375869
scalar OsgEarthNet.uav[56] utilizationEnergyMission 3430.9994049072
scalar OsgEarthNet.uav[56] utilizationEnergyMaintenance 1256.1315116882
scalar OsgEarthNet.uav[56] utilizationEnergyCharge 4687.1303710938
scalar OsgEarthNet.uav[56] utilizationEnergyOverdrawMission 0
scalar OsgEarthNet.uav[56] utilizationEnergyOverdrawMaintenance 0
scalar OsgEarthNet.uav[56] utilizationCountMissions 1
scalar OsgEarthNet.uav[56] utilizationCountManeuversMission 11
scalar OsgEarthNet.uav[56] utilizationCountManeuversMaintenance 2
scalar OsgEarthNet.uav[56] utilizationCountChargeState 1
scalar OsgEarthNet.uav[56] utilizationCountOverdrawnAfterMission 0
scalar OsgEarthNet.uav[56] utilizationCountIdleState 2
scalar OsgEarthNet.uav[56] utilizationFail 0
scalar OsgEarthNet.uav[56] simulationTime 259200
scalar OsgEarthNet.uav[57] utilizationSecMission 25655.523704823
scalar OsgEarthNet.uav[57] utilizationSecMaintenance 11644.455021032
scalar OsgEarthNet.uav[57] utilizationSecCharge 143110
scalar OsgEarthNet.uav[57] utilizationSecIdle 78790.020274145
scalar OsgEarthNet.uav[57] utilizationEnergyMission 118565.49009323
scalar OsgEarthNet.uav[57] utilizationEnergyMaintenance 53444.216714659
scalar OsgEarthNet.uav[57] utilizationEnergyCharge 168088.03198242
scalar OsgEarthNet.uav[57] utilizationEnergyOverdrawMission 0
scalar OsgEarthNet.uav[57] utilizationEnergyOverdrawMaintenance 0
scalar OsgEarthNet.uav[57] utilizationCountMissions 47
scalar OsgEarthNet.uav[57] utilizationCountManeuversMission 431
scalar OsgEarthNet.uav[57] utilizationCountManeuversMaintenance 94
scalar OsgEarthNet.uav[57] utilizationCountChargeState 46
scalar OsgEarthNet.uav[57] utilizationCountOverdrawnAfterMission 0
scalar OsgEarthNet.uav[57] utilizationCountIdleState 47
scalar OsgEarthNet.uav[57] utilizationFail 0
scalar OsgEarthNet.uav[57] simulationTime 259200
scalar OsgEarthNet.uav[58] utilizationSecMission 1388.0033893995
scalar OsgEarthNet.uav[58] utilizationSecMaintenance 449.10428319859
scalar OsgEarthNet.uav[58] utilizationSecCharge 7010
scalar OsgEarthNet.uav[58] utilizationSecIdle 250352.8913274
scalar OsgEarthNet.uav[58] utilizationEnergyMission 6445.3608474731
scalar OsgEarthNet.uav[58] utilizationEnergyMaintenance 2130.7484169006
scalar OsgEarthNet.uav[58] utilizationEnergyCharge 8699.5893554688
scalar OsgEarthNet.uav[58] utilizationEnergyOverdrawMission 0
scalar OsgEarthNet.uav[58] utilizationEnergyOverdrawMaintenance 0
scalar OsgEarthNet.uav[58] utilizationCountMissions 2
scalar OsgEarthNet.uav[58] utilizationCountManeuversMission 26
scalar OsgEarthNet.uav[58] utilizationCountManeuversMaintenance 4
scalar OsgEarthNet.uav[58] utilizationCountChargeState 2
scalar OsgEarthNet.uav[58] utilizationCountOverdrawnAfterMission 0
scalar OsgEarthNet.uav[58] utilizationCountIdleState 3
scalar OsgEarthNet.uav[58] utilizationFail 0
scalar OsgEarthNet.uav[58] simulationTime 259200
scalar OsgEarthNet.uav[59] utilizationSecMission 443.5870541303
scalar OsgEarthNet.uav[59] utilizationSecMaintenance 425.80795651079
scalar OsgEarthNet.uav[59] utilizationSecCharge 3360
scalar OsgEarthNet.uav[59] utilizationSecIdle 254970.60398936
scalar OsgEarthNet.uav[59] utilizationEnergyMission 2047.2749328613
scalar OsgEarthNet.uav[59] utilizationEnergyMaintenance 2213.8660087585
scalar OsgEarthNet.uav[59] utilizationEnergyCharge 4139.6625976562
scalar OsgEarthNet.uav[59] utilizationEnergyOverdrawMission 0
scalar OsgEarthNet.uav[59] utilizationEnergyOverdrawMaintenance 0
scalar OsgEarthNet.uav[59] utilizationCountMissions 1
scalar OsgEarthNet.uav[59] utilizationCountManeuversMission 7
scalar OsgEarthNet.uav[59] utilizationCountManeuversMaintenance 2
scalar OsgEarthNet.uav[59] utilizationCountChargeState 1
scalar OsgEarthNet.uav[59] utilizationCountOverdrawnAfterMission 0
scalar OsgEarthNet.uav[59] utilizationCountIdleState 2
scalar OsgEarthNet.uav[59] utilizationFail 0
scalar OsgEarthNet.uav[59] simulationTime 259200
scalar OsgEarthNet.uav[60] utilizationSecMission 443.5870541303
scalar OsgEarthNet.uav[60] utilizationSecMaintenance 425.80795651079
scalar OsgEarthNet.uav[60] utilizationSecCharge 3400
scalar OsgEarthNet.uav[60] utilizationSecIdle 254930.60398936
scalar OsgEarthNet.uav[60] utilizationEnergyMission 2039.2070770264
scalar OsgEarthNet.uav[60] utilizationEnergyMaintenance 2104.0416679382
scalar OsgEarthNet.uav[60] utilizationEnergyCharge 4098.0366210938
scalar OsgEarthNet.uav[60] utilizationEnergyOverdrawMission 0
scalar OsgEarthNet.uav[60] utilizationEnergyOverdrawMaintenance 0
scalar OsgEarthNet.uav[60] utilizationCountMissions 1
scalar OsgEarthNet.uav[60] utilizationCountManeuversMission 7
scalar OsgEarthNet.uav[60] utilizationCountManeuversMaintenance 2
scalar OsgEarthNet.uav[60] utilizationCountChargeState 1
scalar OsgEarthNet.uav[60] utilizationCountOverdrawnAfterMission 0
scalar OsgEarthNet.uav[60] utilizationCountIdleState 2
scalar OsgEarthNet.uav[60] utilizationFail 0
scalar OsgEarthNet.uav[60] simulationTime 259200
scalar OsgEarthNet.uav[61] utilizationSecMission 5307.6470470037
scalar OsgEarthNet.uav[61] utilizationSecMaintenance 2999.8250289789
scalar OsgEarthNet.uav[61] utilizationSecCharge 33170
scalar OsgEarthNet.uav[61] utilizationSecIdle 217722.52692402
scalar OsgEarthNet.uav[61] utilizationEnergyMission 23966.567588806
scalar OsgEarthNet.uav[61] utilizationEnergyMaintenance 14596.779083252
scalar OsgEarthNet.uav[61] utilizationEnergyCharge 38563.350341797
scalar OsgEarthNet.uav[61] utilizationEnergyOverdrawMission 0
scalar OsgEarthNet.uav[61] utilizationEnergyOverdrawMaintenance 0
scalar OsgEarthNet.uav[61] utilizationCountMissions 11
scalar OsgEarthNet.uav[61] utilizationCountManeuversMission 89
scalar OsgEarthNet.uav[61] utilizationCountManeuversMaintenance 22
scalar OsgEarthNet.uav[61] utilizationCountChargeState 11
scalar OsgEarthNet.uav[61] utilizationCountOverdrawnAfterMission 0
scalar OsgEarthNet.uav[61] utilizationCountIdleState 12
scalar OsgEarthNet.uav[61] utilizationFail 0
scalar OsgEarthNet.uav[61] simulationTime 259200
scalar OsgEarthNet.uav[62] utilizationSecMission 694.00169469977
scalar OsgEarthNet.uav[62] utilizationSecMaintenance 229.48898285212
scalar OsgEarthNet.uav[62] utilizationSecCharge 3490
scalar OsgEarthNet.uav[62] utilizationSecIdle 254786.50832245
scalar OsgEarthNet.uav[62] utilizationEnergyMission 3244.0825805664
scalar OsgEarthNet.uav[62] utilizationEnergyMaintenance 1165.3909835815
scalar OsgEarthNet.uav[62] utilizationEnergyCharge 4384.9252929688
scalar OsgEarthNet.uav[62] utilizationEnergyOverdrawMission 0
scalar OsgEarthNet.uav[62] utilizationEnergyOverdrawMaintenance 0
scalar OsgEarthNet.uav[62] utilizationCountMissions 1
scalar OsgEarthNet.uav[62] utilizationCountManeuversMission 13
scalar OsgEarthNet.uav[62] utilizationCountManeuversMaintenance 2
scalar OsgEarthNet.uav[62] utilizationCountChargeState 1
scalar OsgEarthNet.uav[62] utilizationCountOverdrawnAfterMission 0
scalar OsgEarthNet.uav[62] utilizationCountIdleState 2
scalar OsgEarthNet.uav[62] utilizationFail 0
scalar OsgEarthNet.uav[62] simulationTime 259200
scalar OsgEarthNet.uav[63] utilizationSecMission 443.5870541303
scalar OsgEarthNet.uav[63] utilizationSecMaintenance 425.80795651079
scalar OsgEarthNet.uav[63] utilizationSecCharge 3490
scalar OsgEarthNet.uav[63] utilizationSecIdle 254840.60398936
scalar OsgEarthNet.uav[63] utilizationEnergyMission 2229.0267791748
scalar OsgEarthNet.uav[63] utilizationEnergyMaintenance 2014.4735527039
scalar OsgEarthNet.uav[63] utilizationEnergyCharge 4246.5561523438
scalar OsgEarthNet.uav[63] utilizationEnergyOverdrawMission 0
scalar OsgEarthNet.uav[63] utilizationEnergyOverdrawMaintenance 0
scalar OsgEarthNet.uav[63] utilizationCountMissions 1
scalar OsgEarthNet.uav[63] utilizationCountManeuversMission 7
scalar OsgEarthNet.uav[63] utilizationCountManeuversMaintenance 2
scalar OsgEarthNet.uav[63] utilizationCountChargeState 1
scalar OsgEarthNet.uav[63] utilizationCountOverdrawnAfterMission 0
scalar OsgEarthNet.uav[63] utilizationCountIdleState 2
scalar OsgEarthNet.uav[63] utilizationFail 0
scalar OsgEarthNet.uav[63] simulationTime 259200
scalar OsgEarthNet.uav[64] utilizationSecMission 28760.703265115
scalar OsgEarthNet.uav[64] utilizationSecMaintenance 11994.590035848
scalar OsgEarthNet.uav[64] utilizationSecCharge 157520
scalar OsgEarthNet.uav[64] utilizationSecIdle 60924.705699036
scalar OsgEarthNet.uav[64] utilizationEnergyMission 132927.07283144
scalar OsgEarthNet.uav[64] utilizationEnergyMaintenance 56820.395526886
scalar OsgEarthNet.uav[64] utilizationEnergyCharge 187914.87719727
scalar OsgEarthNet.uav[64] utilizationEnergyOverdrawMission 0
scalar OsgEarthNet.uav[64] utilizationEnergyOverdrawMaintenance 0
scalar OsgEarthNet.uav[64] utilizationCountMissions 49
scalar OsgEarthNet.uav[64] utilizationCountManeuversMission 465
scalar OsgEarthNet.uav[64] utilizationCountManeuversMaintenance 99
scalar OsgEarthNet.uav[64] utilizationCountChargeState 49
scalar OsgEarthNet.uav[64] utilizationCountOverdrawnAfterMission 0
scalar OsgEarthNet.uav[64] utilizationCountIdleState 50
scalar OsgEarthNet.uav[64] utilizationFail 0
scalar OsgEarthNet.uav[64] simulationTime 259200
scalar OsgEarthNet.uav[65] utilizationSecMission 26390.507305187
scalar OsgEarthNet.uav[65] utilizationSecMaintenance 12762.687471932
scalar OsgEarthNet.uav[65] utilizationSecCharge 150161.67988217
scalar OsgEarthNet.uav[65] utilizationSecIdle 69885.12434071
[...]
scalar OsgEarthNet.uav[82] utilizationSecIdle 66874.637123213
scalar OsgEarthNet.uav[82] utilizationEnergyMission 126264.23271942
scalar OsgEarthNet.uav[82] utilizationEnergyMaintenance 56480.869930267
scalar OsgEarthNet.uav[82] utilizationEnergyCharge 181947.70800781
scalar OsgEarthNet.uav[82] utilizationEnergyOverdrawMission 0
scalar OsgEarthNet.uav[82] utilizationEnergyOverdrawMaintenance 0
scalar OsgEarthNet.uav[82] utilizationCountMissions 48
scalar OsgEarthNet.uav[82] utilizationCountManeuversMission 450
scalar OsgEarthNet.uav[82] utilizationCountManeuversMaintenance 96
scalar OsgEarthNet.uav[82] utilizationCountChargeState 48
scalar OsgEarthNet.uav[82] utilizationCountOverdrawnAfterMission 0
scalar OsgEarthNet.uav[82] utilizationCountIdleState 49
scalar OsgEarthNet.uav[82] utilizationFail 0
scalar OsgEarthNet.uav[82] simulationTime 259200
scalar OsgEarthNet.uav[83] utilizationSecMission 570.98871244881
scalar OsgEarthNet.uav[83] utilizationSecMaintenance 306.2282017063
scalar OsgEarthNet.uav[83] utilizationSecCharge 3600
scalar OsgEarthNet.uav[83] utilizationSecIdle 254722.78208584
scalar OsgEarthNet.uav[83] utilizationEnergyMission 2966.5229797363
scalar OsgEarthNet.uav[83] utilizationEnergyMaintenance 1620.6400604248
scalar OsgEarthNet.uav[83] utilizationEnergyCharge 4587.1674804688
scalar OsgEarthNet.uav[83] utilizationEnergyOverdrawMission 0
scalar OsgEarthNet.uav[83] utilizationEnergyOverdrawMaintenance 0
scalar OsgEarthNet.uav[83] utilizationCountMissions 1
scalar OsgEarthNet.uav[83] utilizationCountManeuversMission 8
scalar OsgEarthNet.uav[83] utilizationCountManeuversMaintenance 2
scalar OsgEarthNet.uav[83] utilizationCountChargeState 1
scalar OsgEarthNet.uav[83] utilizationCountOverdrawnAfterMission 0
scalar OsgEarthNet.uav[83] utilizationCountIdleState 2
scalar OsgEarthNet.uav[83] utilizationFail 0
scalar OsgEarthNet.uav[83] simulationTime 259200
scalar OsgEarthNet.uav[84] utilizationSecMission 24521.875026231
scalar OsgEarthNet.uav[84] utilizationSecMaintenance 13535.583497333
scalar OsgEarthNet.uav[84] utilizationSecCharge 148718.87229845
scalar OsgEarthNet.uav[84] utilizationSecIdle 72423.668177988
scalar OsgEarthNet.uav[84] utilizationEnergyMission 113067.74616241
scalar OsgEarthNet.uav[84] utilizationEnergyMaintenance 64295.538406372
scalar OsgEarthNet.uav[84] utilizationEnergyCharge 174608.67163086
scalar OsgEarthNet.uav[84] utilizationEnergyOverdrawMission 0
scalar OsgEarthNet.uav[84] utilizationEnergyOverdrawMaintenance 0
scalar OsgEarthNet.uav[84] utilizationCountMissions 49
scalar OsgEarthNet.uav[84] utilizationCountManeuversMission 396
scalar OsgEarthNet.uav[84] utilizationCountManeuversMaintenance 98
scalar OsgEarthNet.uav[84] utilizationCountChargeState 49
scalar OsgEarthNet.uav[84] utilizationCountOverdrawnAfterMission 0
scalar OsgEarthNet.uav[84] utilizationCountIdleState 49
scalar OsgEarthNet.uav[84] utilizationFail 0
scalar OsgEarthNet.uav[84] simulationTime 259200
scalar OsgEarthNet.uav[85] utilizationSecMission 28295.008359626
scalar OsgEarthNet.uav[85] utilizationSecMaintenance 14491.384654823
scalar OsgEarthNet.uav[85] utilizationSecCharge 167119.92279547
scalar OsgEarthNet.uav[85] utilizationSecIdle 49293.683190079
scalar OsgEarthNet.uav[85] utilizationEnergyMission 130590.75948715
scalar OsgEarthNet.uav[85] utilizationEnergyMaintenance 68874.771026611
scalar OsgEarthNet.uav[85] utilizationEnergyCharge 196213.69543457
scalar OsgEarthNet.uav[85] utilizationEnergyOverdrawMission 0
scalar OsgEarthNet.uav[85] utilizationEnergyOverdrawMaintenance 0
scalar OsgEarthNet.uav[85] utilizationCountMissions 55
scalar OsgEarthNet.uav[85] utilizationCountManeuversMission 468
scalar OsgEarthNet.uav[85] utilizationCountManeuversMaintenance 110
scalar OsgEarthNet.uav[85] utilizationCountChargeState 55
scalar OsgEarthNet.uav[85] utilizationCountOverdrawnAfterMission 0
scalar OsgEarthNet.uav[85] utilizationCountIdleState 55
scalar OsgEarthNet.uav[85] utilizationFail 0
scalar OsgEarthNet.uav[85] simulationTime 259200
scalar OsgEarthNet.uav[86] utilizationSecMission 29047.922200789
scalar OsgEarthNet.uav[86] utilizationSecMaintenance 13830.076799211
scalar OsgEarthNet.uav[86] utilizationSecCharge 166860
scalar OsgEarthNet.uav[86] utilizationSecIdle 49462
scalar OsgEarthNet.uav[86] utilizationEnergyMission 134404.61456305
scalar OsgEarthNet.uav[86] utilizationEnergyMaintenance 65690.275669098
scalar OsgEarthNet.uav[86] utilizationEnergyCharge 198686.78857422
scalar OsgEarthNet.uav[86] utilizationEnergyOverdrawMission 0
scalar OsgEarthNet.uav[86] utilizationEnergyOverdrawMaintenance 0
scalar OsgEarthNet.uav[86] utilizationCountMissions 52
scalar OsgEarthNet.uav[86] utilizationCountManeuversMission 478
scalar OsgEarthNet.uav[86] utilizationCountManeuversMaintenance 104
scalar OsgEarthNet.uav[86] utilizationCountChargeState 52
scalar OsgEarthNet.uav[86] utilizationCountOverdrawnAfterMission 0
scalar OsgEarthNet.uav[86] utilizationCountIdleState 53
scalar OsgEarthNet.uav[86] utilizationFail 0
scalar OsgEarthNet.uav[86] simulationTime 259200
scalar OsgEarthNet.uav[87] utilizationSecMission 24976.59623543
scalar OsgEarthNet.uav[87] utilizationSecMaintenance 9111.6446787266
scalar OsgEarthNet.uav[87] utilizationSecCharge 130444.34819449
scalar OsgEarthNet.uav[87] utilizationSecIdle 94667.40989135
scalar OsgEarthNet.uav[87] utilizationEnergyMission 113766.06540298
scalar OsgEarthNet.uav[87] utilizationEnergyMaintenance 42954.030117035
scalar OsgEarthNet.uav[87] utilizationEnergyCharge 153403.67724609
scalar OsgEarthNet.uav[87] utilizationEnergyOverdrawMission 0
scalar OsgEarthNet.uav[87] utilizationEnergyOverdrawMaintenance 0
scalar OsgEarthNet.uav[87] utilizationCountMissions 43
scalar OsgEarthNet.uav[87] utilizationCountManeuversMission 413
scalar OsgEarthNet.uav[87] utilizationCountManeuversMaintenance 86
scalar OsgEarthNet.uav[87] utilizationCountChargeState 43
scalar OsgEarthNet.uav[87] utilizationCountOverdrawnAfterMission 0
scalar OsgEarthNet.uav[87] utilizationCountIdleState 43
scalar OsgEarthNet.uav[87] utilizationFail 0
scalar OsgEarthNet.uav[87] simulationTime 259200
scalar OsgEarthNet.uav[88] utilizationSecMission 887.1741082606
scalar OsgEarthNet.uav[88] utilizationSecMaintenance 125.81102573108
scalar OsgEarthNet.uav[88] utilizationSecCharge 3590
scalar OsgEarthNet.uav[88] utilizationSecIdle 254597.01386601
scalar OsgEarthNet.uav[88] utilizationEnergyMission 3937.1845703125
scalar OsgEarthNet.uav[88] utilizationEnergyMaintenance 617.58271026612
scalar OsgEarthNet.uav[88] utilizationEnergyCharge 4549.3608398438
scalar OsgEarthNet.uav[88] utilizationEnergyOverdrawMission 0
scalar OsgEarthNet.uav[88] utilizationEnergyOverdrawMaintenance 0
scalar OsgEarthNet.uav[88] utilizationCountMissions 1
scalar OsgEarthNet.uav[88] utilizationCountManeuversMission 14
scalar OsgEarthNet.uav[88] utilizationCountManeuversMaintenance 2
scalar OsgEarthNet.uav[88] utilizationCountChargeState 1
scalar OsgEarthNet.uav[88] utilizationCountOverdrawnAfterMission 0
scalar OsgEarthNet.uav[88] utilizationCountIdleState 2
scalar OsgEarthNet.uav[88] utilizationFail 0
scalar OsgEarthNet.uav[88] simulationTime 259200
scalar OsgEarthNet.uav[89] utilizationSecMission 29996.140324777
scalar OsgEarthNet.uav[89] utilizationSecMaintenance 14908.236036319
scalar OsgEarthNet.uav[89] utilizationSecCharge 172483.6226389
scalar OsgEarthNet.uav[89] utilizationSecIdle 41812
scalar OsgEarthNet.uav[89] utilizationEnergyMission 138571.75785202
scalar OsgEarthNet.uav[89] utilizationEnergyMaintenance 69805.408344269
scalar OsgEarthNet.uav[89] utilizationEnergyCharge 203619.19537354
scalar OsgEarthNet.uav[89] utilizationEnergyOverdrawMission 0
scalar OsgEarthNet.uav[89] utilizationEnergyOverdrawMaintenance 0
scalar OsgEarthNet.uav[89] utilizationCountMissions 56
scalar OsgEarthNet.uav[89] utilizationCountManeuversMission 494
scalar OsgEarthNet.uav[89] utilizationCountManeuversMaintenance 111
scalar OsgEarthNet.uav[89] utilizationCountChargeState 56
scalar OsgEarthNet.uav[89] utilizationCountOverdrawnAfterMission 0
scalar OsgEarthNet.uav[89] utilizationCountIdleState 56
scalar OsgEarthNet.uav[89] utilizationFail 0
scalar OsgEarthNet.uav[89] simulationTime 259200
scalar OsgEarthNet.uav[90] utilizationSecMission 570.98871244881
scalar OsgEarthNet.uav[90] utilizationSecMaintenance 276.2282017063
scalar OsgEarthNet.uav[90] utilizationSecCharge 3320
scalar OsgEarthNet.uav[90] utilizationSecIdle 255032.78208584
scalar OsgEarthNet.uav[90] utilizationEnergyMission 2800.6797790527
scalar OsgEarthNet.uav[90] utilizationEnergyMaintenance 1187.3795890808
scalar OsgEarthNet.uav[90] utilizationEnergyCharge 3988.0610351562
scalar OsgEarthNet.uav[90] utilizationEnergyOverdrawMission 0
scalar OsgEarthNet.uav[90] utilizationEnergyOverdrawMaintenance 0
scalar OsgEarthNet.uav[90] utilizationCountMissions 1
scalar OsgEarthNet.uav[90] utilizationCountManeuversMission 8
scalar OsgEarthNet.uav[90] utilizationCountManeuversMaintenance 2
scalar OsgEarthNet.uav[90] utilizationCountChargeState 1
scalar OsgEarthNet.uav[90] utilizationCountOverdrawnAfterMission 0
scalar OsgEarthNet.uav[90] utilizationCountIdleState 2
scalar OsgEarthNet.uav[90] utilizationFail 0
scalar OsgEarthNet.uav[90] simulationTime 259200
scalar OsgEarthNet.uav[91] utilizationSecMission 140.26880303701
scalar OsgEarthNet.uav[91] utilizationSecMaintenance 1139.8210306756
scalar OsgEarthNet.uav[91] utilizationSecCharge 5400
scalar OsgEarthNet.uav[91] utilizationSecIdle 252519.90916629
scalar OsgEarthNet.uav[91] utilizationEnergyMission 648.45684814453
scalar OsgEarthNet.uav[91] utilizationEnergyMaintenance 5231.8961830139
scalar OsgEarthNet.uav[91] utilizationEnergyCharge 5880.3576660156
scalar OsgEarthNet.uav[91] utilizationEnergyOverdrawMission 0
scalar OsgEarthNet.uav[91] utilizationEnergyOverdrawMaintenance 0
scalar OsgEarthNet.uav[91] utilizationCountMissions 2
scalar OsgEarthNet.uav[91] utilizationCountManeuversMission 4
scalar OsgEarthNet.uav[91] utilizationCountManeuversMaintenance 4
scalar OsgEarthNet.uav[91] utilizationCountChargeState 2
scalar OsgEarthNet.uav[91] utilizationCountOverdrawnAfterMission 0
scalar OsgEarthNet.uav[91] utilizationCountIdleState 3
scalar OsgEarthNet.uav[91] utilizationFail 0
scalar OsgEarthNet.uav[91] simulationTime 259200
scalar OsgEarthNet.uav[92] utilizationSecMission 22879.354781931
scalar OsgEarthNet.uav[92] utilizationSecMaintenance 12606.96382412
scalar OsgEarthNet.uav[92] utilizationSecCharge 138997.25780651
scalar OsgEarthNet.uav[92] utilizationSecIdle 84716.42258744
scalar OsgEarthNet.uav[92] utilizationEnergyMission 105620.8423233
scalar OsgEarthNet.uav[92] utilizationEnergyMaintenance 58178.857307434
scalar OsgEarthNet.uav[92] utilizationEnergyCharge 163882.8737793
scalar OsgEarthNet.uav[92] utilizationEnergyOverdrawMission 0
scalar OsgEarthNet.uav[92] utilizationEnergyOverdrawMaintenance 0
scalar OsgEarthNet.uav[92] utilizationCountMissions 45
scalar OsgEarthNet.uav[92] utilizationCountManeuversMission 373
scalar OsgEarthNet.uav[92] utilizationCountManeuversMaintenance 90
scalar OsgEarthNet.uav[92] utilizationCountChargeState 45
scalar OsgEarthNet.uav[92] utilizationCountOverdrawnAfterMission 0
scalar OsgEarthNet.uav[92] utilizationCountIdleState 45
scalar OsgEarthNet.uav[92] utilizationFail 0
scalar OsgEarthNet.uav[92] simulationTime 259200
scalar OsgEarthNet.uav[93] utilizationSecMission 21720.181471094
scalar OsgEarthNet.uav[93] utilizationSecMaintenance 14204.980293717
scalar OsgEarthNet.uav[93] utilizationSecCharge 143680
scalar OsgEarthNet.uav[93] utilizationSecIdle 79594.837235189
scalar OsgEarthNet.uav[93] utilizationEnergyMission 99671.794441223
scalar OsgEarthNet.uav[93] utilizationEnergyMaintenance 66304.092842102
scalar OsgEarthNet.uav[93] utilizationEnergyCharge 165930.48339844
scalar OsgEarthNet.uav[93] utilizationEnergyOverdrawMission 0
scalar OsgEarthNet.uav[93] utilizationEnergyOverdrawMaintenance 0
scalar OsgEarthNet.uav[93] utilizationCountMissions 48
scalar OsgEarthNet.uav[93] utilizationCountManeuversMission 362
scalar OsgEarthNet.uav[93] utilizationCountManeuversMaintenance 96
scalar OsgEarthNet.uav[93] utilizationCountChargeState 48
scalar OsgEarthNet.uav[93] utilizationCountOverdrawnAfterMission 0
scalar OsgEarthNet.uav[93] utilizationCountIdleState 49
scalar OsgEarthNet.uav[93] utilizationFail 0
scalar OsgEarthNet.uav[93] simulationTime 259200
scalar OsgEarthNet.uav[94] utilizationSecMission 2078.5339729811
scalar OsgEarthNet.uav[94] utilizationSecMaintenance 3584.4329666245
scalar OsgEarthNet.uav[94] utilizationSecCharge 22944.363873334
scalar OsgEarthNet.uav[94] utilizationSecIdle 230592.66818706
scalar OsgEarthNet.uav[94] utilizationEnergyMission 9783.5836410522
scalar OsgEarthNet.uav[94] utilizationEnergyMaintenance 16469.073974609
scalar OsgEarthNet.uav[94] utilizationEnergyCharge 26195.685058594
scalar OsgEarthNet.uav[94] utilizationEnergyOverdrawMission 0
scalar OsgEarthNet.uav[94] utilizationEnergyOverdrawMaintenance 0
scalar OsgEarthNet.uav[94] utilizationCountMissions 8
scalar OsgEarthNet.uav[94] utilizationCountManeuversMission 36
scalar OsgEarthNet.uav[94] utilizationCountManeuversMaintenance 16
scalar OsgEarthNet.uav[94] utilizationCountChargeState 8
scalar OsgEarthNet.uav[94] utilizationCountOverdrawnAfterMission 0
scalar OsgEarthNet.uav[94] utilizationCountIdleState 8
scalar OsgEarthNet.uav[94] utilizationFail 0
scalar OsgEarthNet.uav[94] simulationTime 259200
scalar OsgEarthNet.uav[95] utilizationSecMission 13886.118995218
scalar OsgEarthNet.uav[95] utilizationSecMaintenance 9532.8423583285
scalar OsgEarthNet.uav[95] utilizationSecCharge 92540
scalar OsgEarthNet.uav[95] utilizationSecIdle 143241.03764645
scalar OsgEarthNet.uav[95] utilizationEnergyMission 63909.563262939
scalar OsgEarthNet.uav[95] utilizationEnergyMaintenance 44584.405063629
scalar OsgEarthNet.uav[95] utilizationEnergyCharge 108142.48413086
scalar OsgEarthNet.uav[95] utilizationEnergyOverdrawMission 0
scalar OsgEarthNet.uav[95] utilizationEnergyOverdrawMaintenance 0
scalar OsgEarthNet.uav[95] utilizationCountMissions 30
scalar OsgEarthNet.uav[95] utilizationCountManeuversMission 229
scalar OsgEarthNet.uav[95] utilizationCountManeuversMaintenance 60
scalar OsgEarthNet.uav[95] utilizationCountChargeState 30
scalar OsgEarthNet.uav[95] utilizationCountOverdrawnAfterMission 0
scalar OsgEarthNet.uav[95] utilizationCountIdleState 31
scalar OsgEarthNet.uav[95] utilizationFail 0
scalar OsgEarthNet.uav[95] simulationTime 259200
scalar OsgEarthNet.uav[96] utilizationSecMission 29980.33498976
scalar OsgEarthNet.uav[96] utilizationSecMaintenance 12853.690598581
scalar OsgEarthNet.uav[96] utilizationSecCharge 165280
scalar OsgEarthNet.uav[96] utilizationSecIdle 51085.973411658
scalar OsgEarthNet.uav[96] utilizationEnergyMission 137587.36261368
scalar OsgEarthNet.uav[96] utilizationEnergyMaintenance 60784.999897003
scalar OsgEarthNet.uav[96] utilizationEnergyCharge 198221.76635742
scalar OsgEarthNet.uav[96] utilizationEnergyOverdrawMission 0
scalar OsgEarthNet.uav[96] utilizationEnergyOverdrawMaintenance 0
scalar OsgEarthNet.uav[96] utilizationCountMissions 51
scalar OsgEarthNet.uav[96] utilizationCountManeuversMission 491
scalar OsgEarthNet.uav[96] utilizationCountManeuversMaintenance 102
scalar OsgEarthNet.uav[96] utilizationCountChargeState 51
scalar OsgEarthNet.uav[96] utilizationCountOverdrawnAfterMission 0
scalar OsgEarthNet.uav[96] utilizationCountIdleState 52
scalar OsgEarthNet.uav[96] utilizationFail 0
scalar OsgEarthNet.uav[96] simulationTime 259200
scalar OsgEarthNet.uav[97] utilizationSecMission 19052.006440138
scalar OsgEarthNet.uav[97] utilizationSecMaintenance 12802.05722407
scalar OsgEarthNet.uav[97] utilizationSecCharge 127070
scalar OsgEarthNet.uav[97] utilizationSecIdle 100275.93533579
scalar OsgEarthNet.uav[97] utilizationEnergyMission 87848.851325989
scalar OsgEarthNet.uav[97] utilizationEnergyMaintenance 59930.016700745
scalar OsgEarthNet.uav[97] utilizationEnergyCharge 148055.15405273
scalar OsgEarthNet.uav[97] utilizationEnergyOverdrawMission 0
scalar OsgEarthNet.uav[97] utilizationEnergyOverdrawMaintenance 0
scalar OsgEarthNet.uav[97] utilizationCountMissions 42
scalar OsgEarthNet.uav[97] utilizationCountManeuversMission 318
scalar OsgEarthNet.uav[97] utilizationCountManeuversMaintenance 84
scalar OsgEarthNet.uav[97] utilizationCountChargeState 42
scalar OsgEarthNet.uav[97] utilizationCountOverdrawnAfterMission 0
scalar OsgEarthNet.uav[97] utilizationCountIdleState 42
scalar OsgEarthNet.uav[97] utilizationFail 0
scalar OsgEarthNet.uav[97] simulationTime 259200
scalar OsgEarthNet.uav[98] utilizationSecMission 21769.744030129
scalar OsgEarthNet.uav[98] utilizationSecMaintenance 12494.106107598
scalar OsgEarthNet.uav[98] utilizationSecCharge 133156.14347639
scalar OsgEarthNet.uav[98] utilizationSecIdle 91780.005385884
scalar OsgEarthNet.uav[98] utilizationEnergyMission 101112.51251221
scalar OsgEarthNet.uav[98] utilizationEnergyMaintenance 58909.370380402
scalar OsgEarthNet.uav[98] utilizationEnergyCharge 156282.10632324
scalar OsgEarthNet.uav[98] utilizationEnergyOverdrawMission 0
scalar OsgEarthNet.uav[98] utilizationEnergyOverdrawMaintenance 0
scalar OsgEarthNet.uav[98] utilizationCountMissions 44
scalar OsgEarthNet.uav[98] utilizationCountManeuversMission 359
scalar OsgEarthNet.uav[98] utilizationCountManeuversMaintenance 88
scalar OsgEarthNet.uav[98] utilizationCountChargeState 44
scalar OsgEarthNet.uav[98] utilizationCountOverdrawnAfterMission 0
scalar OsgEarthNet.uav[98] utilizationCountIdleState 44
scalar OsgEarthNet.uav[98] utilizationFail 0
scalar OsgEarthNet.uav[98] simulationTime 259200
scalar OsgEarthNet.uav[99] utilizationSecMission 21734.249993437
scalar OsgEarthNet.uav[99] utilizationSecMaintenance 12362.824988474
scalar OsgEarthNet.uav[99] utilizationSecCharge 134030
scalar OsgEarthNet.uav[99] utilizationSecIdle 91072.924018089
scalar OsgEarthNet.uav[99] utilizationEnergyMission 100617.32588196
scalar OsgEarthNet.uav[99] utilizationEnergyMaintenance 58728.671318054
scalar OsgEarthNet.uav[99] utilizationEnergyCharge 159502.91625977
scalar OsgEarthNet.uav[99] utilizationEnergyOverdrawMission 0
scalar OsgEarthNet.uav[99] utilizationEnergyOverdrawMaintenance 0
scalar OsgEarthNet.uav[99] utilizationCountMissions 42
scalar OsgEarthNet.uav[99] utilizationCountManeuversMission 351
scalar OsgEarthNet.uav[99] utilizationCountManeuversMaintenance 84
scalar OsgEarthNet.uav[99] utilizationCountChargeState 42
scalar OsgEarthNet.uav[99] utilizationCountOverdrawnAfterMission 0
scalar OsgEarthNet.uav[99] utilizationCountIdleState 43
scalar OsgEarthNet.uav[99] utilizationFail 0
scalar OsgEarthNet.uav[99] simulationTime 259200
scalar OsgEarthNet.cs[0] usedPower 359977.75842575
scalar OsgEarthNet.cs[0] chargedPower 359977.75842575
scalar OsgEarthNet.cs[0] chargedMobileNodes 143
scalar OsgEarthNet.cs[0] reservations 145
scalar OsgEarthNet.cs[1] usedPower 855340.91714404
scalar OsgEarthNet.cs[1] chargedPower 855340.91714404
scalar OsgEarthNet.cs[1] chargedMobileNodes 315
scalar OsgEarthNet.cs[1] reservations 318
scalar OsgEarthNet.cs[2] usedPower 3617112.6987449
scalar OsgEarthNet.cs[2] chargedPower 3617112.6987449
scalar OsgEarthNet.cs[2] chargedMobileNodes 951
scalar OsgEarthNet.cs[2] reservations 964
scalar OsgEarthNet.cs[3] usedPower 0
scalar OsgEarthNet.cs[3] chargedPower 0
scalar OsgEarthNet.cs[3] chargedMobileNodes 0
scalar OsgEarthNet.cs[3] reservations 0
scalar OsgEarthNet.cs[4] usedPower 967272.2087964
scalar OsgEarthNet.cs[4] chargedPower 967272.2087964
scalar OsgEarthNet.cs[4] chargedMobileNodes 222
scalar OsgEarthNet.cs[4] reservations 225
scalar OsgEarthNet.cs[5] usedPower 1588312.3424265
scalar OsgEarthNet.cs[5] chargedPower 1588312.3424265
scalar OsgEarthNet.cs[5] chargedMobileNodes 372
scalar OsgEarthNet.cs[5] reservations 377
scalar OsgEarthNet.cs[6] usedPower 1387423.0753342
scalar OsgEarthNet.cs[6] chargedPower 1387423.0753342
scalar OsgEarthNet.cs[6] chargedMobileNodes 360
scalar OsgEarthNet.cs[6] reservations 364

