version 2
run Szenario_Hotel_Gabelbach-1-20180709-12:19:34-51016
attr configname Szenario_Hotel_Gabelbach
attr datetime 20180709-12:19:34
attr experiment Szenario_Hotel_Gabelbach
attr inifile omnetpp.ini
attr iterationvars "$replM=2, $biWeight=0.0"
attr iterationvarsf replM=2,biWeight=0.0-
attr measurement "$replM=2, $biWeight=0.0"
attr network OsgEarthNet
attr processid 51016
attr repetition 1
attr replication #1
attr resultdir results
attr runnumber 1
attr seedset 1
itervar biWeight 0.0
itervar replM 2
param *.osgEarthScene.scene "\"Szenario_Hotel_Gabelbach.earth\""
param *.playgroundLatitude 50.6830269
param *.playgroundLongitude 10.8538055
param *.playgroundWidth 3500m
param *.playgroundHeight 3500m
param *.numUAVs 100
param *.cs[0].posX 3537m
param *.cs[0].posY 965m
param *.cs[0].posZ 538m
param *.cs[1].posX 312m
param *.cs[1].posY 1262m
param *.cs[1].posZ 539m
param *.cs[2].posX 2185m
param *.cs[2].posY 3026m
param *.cs[2].posZ 777m
param *.cs[3].posX 10m
param *.cs[3].posY 2200m
param *.cs[3].posZ 560m
param *.cs[4].posX 750m
param *.cs[4].posY 200m
param *.cs[4].posZ 540m
param *.cs[5].posX 2450m
param *.cs[5].posY 180m
param *.cs[5].posZ 524m
param *.cs[6].posX 3140m
param *.cs[6].posY 1790m
param *.cs[6].posZ 606m
param *.numCSs 7
param *.uav[*].replacementMethod 2
param *.uav[*].weightedSumWeight 0.0
param *.*.timeStep 10s
param *.uav[*].commandPreviewCommandCount 20
param *.missionControl.missionFiles "\"missions\\\\Szenario_WB_Hotel_Gabelbach_Mission_Hotel.waypoints,missions\\\\Szenario_WB_Hotel_Gabelbach_Mission_Kickelhahn.waypoints,missions\\\\Szenario_WB_Hotel_Gabelbach_Mission_Ilmenau_Sportplatz.waypoints,missions\\\\Szenario_WB_Hotel_Gabelbach_Mission_Manebach_Mitte.waypoints,missions\\\\Szenario_WB_Hotel_Gabelbach_Mission_Manebach_Sued.waypoints\""
param *.missionControl.missionFiles "\"missions\\\\Szenario_WB_Hotel_Gabelbach_Mission_Hotel.waypoints,missions\\\\Szenario_WB_Hotel_Gabelbach_Mission_Kickelhahn.waypoints,missions\\\\Szenario_WB_Hotel_Gabelbach_Mission_Ilmenau_Sportplatz.waypoints,missions\\\\Szenario_WB_Hotel_Gabelbach_Mission_Manebach_Mitte.waypoints,missions\\\\Szenario_WB_Hotel_Gabelbach_Mission_Manebach_Sued.waypoints,missions\\\\Szenario_WB_Hotel_Gabelbach_Hover_HoheSchlaufe.waypoints,missions\\\\Szenario_WB_Hotel_Gabelbach_Hover_Kickelhahn.waypoints,missions\\\\Szenario_WB_Hotel_Gabelbach_Hover_Gabelbachskopf.waypoints,missions\\\\Szenario_WB_Hotel_Gabelbach_Hover_Dachskopf.waypoints\""
param *.uav[0].startX 3537m
param *.uav[0].startY 965m
param *.uav[0].startZ 539m
param *.uav[1].startX 312m
param *.uav[1].startY 1262m
param *.uav[1].startZ 540m
param *.uav[2].startX 2185m
param *.uav[2].startY 3026m
param *.uav[2].startZ 778m
param *.uav[3].startX 3537m
param *.uav[3].startY 965m
param *.uav[3].startZ 539m
param *.uav[4].startX 312m
param *.uav[4].startY 1262m
param *.uav[4].startZ 540m
param *.uav[5].startX 2185m
param *.uav[5].startY 3026m
param *.uav[5].startZ 778m
param *.uav[6].startX 3537m
param *.uav[6].startY 965m
param *.uav[6].startZ 539m
param *.uav[7].startX 312m
param *.uav[7].startY 1262m
param *.uav[7].startZ 540m
param *.uav[8].startX 2185m
param *.uav[8].startY 3026m
param *.uav[8].startZ 778m
param *.uav[9].startX 3537m
param *.uav[9].startY 965m
param *.uav[9].startZ 539m
param *.uav[10].startX 3537m
param *.uav[10].startY 965m
param *.uav[10].startZ 539m
param *.uav[11].startX 312m
param *.uav[11].startY 1262m
param *.uav[11].startZ 540m
param *.uav[12].startX 2185m
param *.uav[12].startY 3026m
param *.uav[12].startZ 778m
param *.uav[13].startX 3537m
param *.uav[13].startY 965m
param *.uav[13].startZ 539m
param *.uav[14].startX 312m
param *.uav[14].startY 1262m
param *.uav[14].startZ 540m
param *.uav[15].startX 2185m
param *.uav[15].startY 3026m
param *.uav[15].startZ 778m
param *.uav[16].startX 3537m
param *.uav[16].startY 965m
param *.uav[16].startZ 539m
param *.uav[17].startX 312m
param *.uav[17].startY 1262m
param *.uav[17].startZ 540m
param *.uav[18].startX 2185m
param *.uav[18].startY 3026m
param *.uav[18].startZ 778m
param *.uav[19].startX 3537m
param *.uav[19].startY 965m
param *.uav[19].startZ 539m
param *.uav[20].startX 3537m
param *.uav[20].startY 965m
param *.uav[20].startZ 539m
param *.uav[21].startX 312m
param *.uav[21].startY 1262m
param *.uav[21].startZ 540m
param *.uav[22].startX 2185m
param *.uav[22].startY 3026m
param *.uav[22].startZ 778m
param *.uav[23].startX 3537m
param *.uav[23].startY 965m
param *.uav[23].startZ 539m
param *.uav[24].startX 312m
param *.uav[24].startY 1262m
param *.uav[24].startZ 540m
param *.uav[25].startX 2185m
param *.uav[25].startY 3026m
param *.uav[25].startZ 778m
param *.uav[26].startX 3537m
param *.uav[26].startY 965m
param *.uav[26].startZ 539m
param *.uav[27].startX 312m
param *.uav[27].startY 1262m
param *.uav[27].startZ 540m
param *.uav[28].startX 2185m
param *.uav[28].startY 3026m
param *.uav[28].startZ 778m
param *.uav[29].startX 3537m
param *.uav[29].startY 965m
param *.uav[29].startZ 539m
param *.uav[30].startX 3537m
param *.uav[30].startY 965m
param *.uav[30].startZ 539m
param *.uav[31].startX 312m
param *.uav[31].startY 1262m
param *.uav[31].startZ 540m
param *.uav[32].startX 2185m
param *.uav[32].startY 3026m
param *.uav[32].startZ 778m
param *.uav[33].startX 3537m
param *.uav[33].startY 965m
param *.uav[33].startZ 539m
param *.uav[34].startX 312m
param *.uav[34].startY 1262m
param *.uav[34].startZ 540m
param *.uav[35].startX 2185m
param *.uav[35].startY 3026m
param *.uav[35].startZ 778m
param *.uav[36].startX 3537m
param *.uav[36].startY 965m
param *.uav[36].startZ 539m
param *.uav[37].startX 312m
param *.uav[37].startY 1262m
param *.uav[37].startZ 540m
param *.uav[38].startX 2185m
param *.uav[38].startY 3026m
param *.uav[38].startZ 778m
param *.uav[39].startX 3537m
param *.uav[39].startY 965m
param *.uav[39].startZ 539m
param *.uav[40].startX 3537m
param *.uav[40].startY 965m
param *.uav[40].startZ 539m
param *.uav[41].startX 312m
param *.uav[41].startY 1262m
param *.uav[41].startZ 540m
param *.uav[42].startX 2185m
param *.uav[42].startY 3026m
param *.uav[42].startZ 778m
param *.uav[43].startX 3537m
param *.uav[43].startY 965m
param *.uav[43].startZ 539m
param *.uav[44].startX 312m
param *.uav[44].startY 1262m
param *.uav[44].startZ 540m
param *.uav[45].startX 2185m
param *.uav[45].startY 3026m
param *.uav[45].startZ 778m
param *.uav[46].startX 3537m
param *.uav[46].startY 965m
param *.uav[46].startZ 539m
param *.uav[47].startX 312m
param *.uav[47].startY 1262m
param *.uav[47].startZ 540m
param *.uav[48].startX 2185m
param *.uav[48].startY 3026m
param *.uav[48].startZ 778m
param *.uav[49].startX 3537m
param *.uav[49].startY 965m
param *.uav[49].startZ 539m
param *.uav[50].startX 3537m
param *.uav[50].startY 965m
param *.uav[50].startZ 539m
param *.uav[51].startX 312m
param *.uav[51].startY 1262m
param *.uav[51].startZ 540m
param *.uav[52].startX 2185m
param *.uav[52].startY 3026m
param *.uav[52].startZ 778m
param *.uav[53].startX 3537m
param *.uav[53].startY 965m
param *.uav[53].startZ 539m
param *.uav[54].startX 312m
param *.uav[54].startY 1262m
param *.uav[54].startZ 540m
param *.uav[55].startX 2185m
param *.uav[55].startY 3026m
param *.uav[55].startZ 778m
param *.uav[56].startX 3537m
param *.uav[56].startY 965m
param *.uav[56].startZ 539m
param *.uav[57].startX 312m
param *.uav[57].startY 1262m
param *.uav[57].startZ 540m
param *.uav[58].startX 2185m
param *.uav[58].startY 3026m
param *.uav[58].startZ 778m
param *.uav[59].startX 3537m
param *.uav[59].startY 965m
param *.uav[59].startZ 539m
param *.uav[60].startX 3537m
param *.uav[60].startY 965m
param *.uav[60].startZ 539m
param *.uav[61].startX 312m
param *.uav[61].startY 1262m
param *.uav[61].startZ 540m
param *.uav[62].startX 2185m
param *.uav[62].startY 3026m
param *.uav[62].startZ 778m
param *.uav[63].startX 3537m
param *.uav[63].startY 965m
param *.uav[63].startZ 539m
param *.uav[64].startX 312m
param *.uav[64].startY 1262m
param *.uav[64].startZ 540m
param *.uav[65].startX 2185m
param *.uav[65].startY 3026m
param *.uav[65].startZ 778m
param *.uav[66].startX 3537m
param *.uav[66].startY 965m
param *.uav[66].startZ 539m
param *.uav[67].startX 312m
param *.uav[67].startY 1262m
param *.uav[67].startZ 540m
param *.uav[68].startX 2185m
param *.uav[68].startY 3026m
param *.uav[68].startZ 778m
param *.uav[69].startX 3537m
param *.uav[69].startY 965m
param *.uav[69].startZ 539m
param *.uav[70].startX 3537m
param *.uav[70].startY 965m
param *.uav[70].startZ 539m
param *.uav[71].startX 312m
param *.uav[71].startY 1262m
param *.uav[71].startZ 540m
param *.uav[72].startX 2185m
param *.uav[72].startY 3026m
param *.uav[72].startZ 778m
param *.uav[73].startX 3537m
param *.uav[73].startY 965m
param *.uav[73].startZ 539m
param *.uav[74].startX 312m
param *.uav[74].startY 1262m
param *.uav[74].startZ 540m
param *.uav[75].startX 2185m
param *.uav[75].startY 3026m
param *.uav[75].startZ 778m
param *.uav[76].startX 3537m
param *.uav[76].startY 965m
param *.uav[76].startZ 539m
param *.uav[77].startX 312m
param *.uav[77].startY 1262m
param *.uav[77].startZ 540m
param *.uav[78].startX 2185m
param *.uav[78].startY 3026m
param *.uav[78].startZ 778m
param *.uav[79].startX 3537m
param *.uav[79].startY 965m
param *.uav[79].startZ 539m
param *.uav[80].startX 3537m
param *.uav[80].startY 965m
param *.uav[80].startZ 539m
param *.uav[81].startX 312m
param *.uav[81].startY 1262m
param *.uav[81].startZ 540m
param *.uav[82].startX 2185m
param *.uav[82].startY 3026m
param *.uav[82].startZ 778m
param *.uav[83].startX 3537m
param *.uav[83].startY 965m
param *.uav[83].startZ 539m
param *.uav[84].startX 312m
param *.uav[84].startY 1262m
param *.uav[84].startZ 540m
param *.uav[85].startX 2185m
param *.uav[85].startY 3026m
param *.uav[85].startZ 778m
param *.uav[86].startX 3537m
param *.uav[86].startY 965m
param *.uav[86].startZ 539m
param *.uav[87].startX 312m
param *.uav[87].startY 1262m
param *.uav[87].startZ 540m
param *.uav[88].startX 2185m
param *.uav[88].startY 3026m
param *.uav[88].startZ 778m
param *.uav[89].startX 3537m
param *.uav[89].startY 965m
param *.uav[89].startZ 539m
param *.uav[90].startX 3537m
param *.uav[90].startY 965m
param *.uav[90].startZ 539m
param *.uav[91].startX 312m
param *.uav[91].startY 1262m
param *.uav[91].startZ 540m
param *.uav[92].startX 2185m
param *.uav[92].startY 3026m
param *.uav[92].startZ 778m
param *.uav[93].startX 3537m
param *.uav[93].startY 965m
param *.uav[93].startZ 539m
param *.uav[94].startX 312m
param *.uav[94].startY 1262m
param *.uav[94].startZ 540m
param *.uav[95].startX 2185m
param *.uav[95].startY 3026m
param *.uav[95].startZ 778m
param *.uav[96].startX 3537m
param *.uav[96].startY 965m
param *.uav[96].startZ 539m
param *.uav[97].startX 312m
param *.uav[97].startY 1262m
param *.uav[97].startZ 540m
param *.uav[98].startX 2185m
param *.uav[98].startY 3026m
param *.uav[98].startZ 778m
param *.uav[99].startX 3537m
param *.uav[99].startY 965m
param *.uav[99].startZ 539m
param *.osgEarthScene.scene "\"boston.earth\""
param *.playgroundLatitude 42.3558
param *.playgroundLongitude -71.0677
param *.playgroundWidth 400m
param *.playgroundHeight 200m
param *.channelController.connectionColor "\"#0000FF40\""
param *.channelController.showConnections false
param *.uav[*].modelURL "\"quadrocopter.small.obj.15.scale.0,0,90.rot\""
param *.uav[*].labelColor "\"#FF7C00CC\""
param *.uav[*].label2Color "\"#FF7C00EE\""
param *.uav[*].batteryCapacity 5200mAh
param *.uav[*].batteryRemaining uav[index].batteryCapacity
param *.uav[*].predictionQuantile 0.95
param *.uav[*].replacementMethod 2
param *.uav[*].weightedSumWeight 0.5
param *.cs[*].modelURL "\"chargingstation_v1.osgt.2.scale.0,0,0.rot.0,0,-15e-1.trans\""
param *.cs[*].spotsWaiting 999
param *.cs[*].spotsCharging 999
param *.cs[*].chargeEffectivenessPercentage 100
param *.cs[*].nonLinearPhaseStartPercentage 85
param *.cs[*].chargeCurrent 6.0A
param *.cs[*].prioritizeFastCharge true
param *.missionControl.replacementSearchMethod 0
param *.*.timeStep 9s

scalar OsgEarthNet.uav[0] utilizationSecMission 29961.054447436
scalar OsgEarthNet.uav[0] utilizationSecMaintenance 14876.944552564
scalar OsgEarthNet.uav[0] utilizationSecCharge 171680
scalar OsgEarthNet.uav[0] utilizationSecIdle 42682
scalar OsgEarthNet.uav[0] utilizationEnergyMission 138797.41568879
scalar OsgEarthNet.uav[0] utilizationEnergyMaintenance 68704.050144287
scalar OsgEarthNet.uav[0] utilizationEnergyCharge 205913.67456055
scalar OsgEarthNet.uav[0] utilizationEnergyOverdrawMission 0
scalar OsgEarthNet.uav[0] utilizationEnergyOverdrawMaintenance 0
scalar OsgEarthNet.uav[0] utilizationCountMissions 53
scalar OsgEarthNet.uav[0] utilizationCountManeuversMission 484
scalar OsgEarthNet.uav[0] utilizationCountManeuversMaintenance 106
scalar OsgEarthNet.uav[0] utilizationCountChargeState 53
scalar OsgEarthNet.uav[0] utilizationCountOverdrawnAfterMission 0
scalar OsgEarthNet.uav[0] utilizationCountIdleState 54
scalar OsgEarthNet.uav[0] utilizationFail 0
scalar OsgEarthNet.uav[0] simulationTime 259200
scalar OsgEarthNet.uav[1] utilizationSecMission 27041.267651125
scalar OsgEarthNet.uav[1] utilizationSecMaintenance 12685.063170887
scalar OsgEarthNet.uav[1] utilizationSecCharge 154910
scalar OsgEarthNet.uav[1] utilizationSecIdle 64563.668177988
scalar OsgEarthNet.uav[1] utilizationEnergyMission 124520.59826279
scalar OsgEarthNet.uav[1] utilizationEnergyMaintenance 59826.402306984
scalar OsgEarthNet.uav[1] utilizationEnergyCharge 183770.80932617
scalar OsgEarthNet.uav[1] utilizationEnergyOverdrawMission 0
scalar OsgEarthNet.uav[1] utilizationEnergyOverdrawMaintenance 0
scalar OsgEarthNet.uav[1] utilizationCountMissions 49
scalar OsgEarthNet.uav[1] utilizationCountManeuversMission 432
scalar OsgEarthNet.uav[1] utilizationCountManeuversMaintenance 99
scalar OsgEarthNet.uav[1] utilizationCountChargeState 49
scalar OsgEarthNet.uav[1] utilizationCountOverdrawnAfterMission 0
scalar OsgEarthNet.uav[1] utilizationCountIdleState 50
scalar OsgEarthNet.uav[1] utilizationFail 0
scalar OsgEarthNet.uav[1] simulationTime 259200
scalar OsgEarthNet.uav[2] utilizationSecMission 26949.45167444
scalar OsgEarthNet.uav[2] utilizationSecMaintenance 14966.05150814
scalar OsgEarthNet.uav[2] utilizationSecCharge 169930
scalar OsgEarthNet.uav[2] utilizationSecIdle 47354.49581742
scalar OsgEarthNet.uav[2] utilizationEnergyMission 124567.310112
scalar OsgEarthNet.uav[2] utilizationEnergyMaintenance 71984.636463165
scalar OsgEarthNet.uav[2] utilizationEnergyCharge 197196.94311523
scalar OsgEarthNet.uav[2] utilizationEnergyOverdrawMission 0
scalar OsgEarthNet.uav[2] utilizationEnergyOverdrawMaintenance 0
scalar OsgEarthNet.uav[2] utilizationCountMissions 56
scalar OsgEarthNet.uav[2] utilizationCountManeuversMission 434
scalar OsgEarthNet.uav[2] utilizationCountManeuversMaintenance 112
scalar OsgEarthNet.uav[2] utilizationCountChargeState 56
scalar OsgEarthNet.uav[2] utilizationCountOverdrawnAfterMission 0
scalar OsgEarthNet.uav[2] utilizationCountIdleState 57
scalar OsgEarthNet.uav[2] utilizationFail 0
scalar OsgEarthNet.uav[2] simulationTime 259200
scalar OsgEarthNet.uav[3] utilizationSecMission 30785.752644385
scalar OsgEarthNet.uav[3] utilizationSecMaintenance 12686.56159501
scalar OsgEarthNet.uav[3] utilizationSecCharge 168980
scalar OsgEarthNet.uav[3] utilizationSecIdle 46747.684760604
scalar OsgEarthNet.uav[3] utilizationEnergyMission 141038.70085526
scalar OsgEarthNet.uav[3] utilizationEnergyMaintenance 60258.223033905
scalar OsgEarthNet.uav[3] utilizationEnergyCharge 201097.55224609
scalar OsgEarthNet.uav[3] utilizationEnergyOverdrawMission 0
scalar OsgEarthNet.uav[3] utilizationEnergyOverdrawMaintenance 0
scalar OsgEarthNet.uav[3] utilizationCountMissions 53
scalar OsgEarthNet.uav[3] utilizationCountManeuversMission 505
scalar OsgEarthNet.uav[3] utilizationCountManeuversMaintenance 106
scalar OsgEarthNet.uav[3] utilizationCountChargeState 53
scalar OsgEarthNet.uav[3] utilizationCountOverdrawnAfterMission 0
scalar OsgEarthNet.uav[3] utilizationCountIdleState 54
scalar OsgEarthNet.uav[3] utilizationFail 0
scalar OsgEarthNet.uav[3] simulationTime 259200
scalar OsgEarthNet.uav[4] utilizationSecMission 14252.341930747
scalar OsgEarthNet.uav[4] utilizationSecMaintenance 7476.7403402689
scalar OsgEarthNet.uav[4] utilizationSecCharge 83568.593040842
scalar OsgEarthNet.uav[4] utilizationSecIdle 153902.32368814
scalar OsgEarthNet.uav[4] utilizationEnergyMission 65993.105926514
scalar OsgEarthNet.uav[4] utilizationEnergyMaintenance 35571.161869049
scalar OsgEarthNet.uav[4] utilizationEnergyCharge 98326.718017578
scalar OsgEarthNet.uav[4] utilizationEnergyOverdrawMission 0
scalar OsgEarthNet.uav[4] utilizationEnergyOverdrawMaintenance 0
scalar OsgEarthNet.uav[4] utilizationCountMissions 28
scalar OsgEarthNet.uav[4] utilizationCountManeuversMission 236
scalar OsgEarthNet.uav[4] utilizationCountManeuversMaintenance 56
scalar OsgEarthNet.uav[4] utilizationCountChargeState 28
scalar OsgEarthNet.uav[4] utilizationCountOverdrawnAfterMission 0
scalar OsgEarthNet.uav[4] utilizationCountIdleState 28
scalar OsgEarthNet.uav[4] utilizationFail 0
scalar OsgEarthNet.uav[4] simulationTime 259200
scalar OsgEarthNet.uav[5] utilizationSecMission 26533.75742295
scalar OsgEarthNet.uav[5] utilizationSecMaintenance 14919.999741429
scalar OsgEarthNet.uav[5] utilizationSecCharge 160590
scalar OsgEarthNet.uav[5] utilizationSecIdle 57156.241835621
scalar OsgEarthNet.uav[5] utilizationEnergyMission 121605.55779233
scalar OsgEarthNet.uav[5] utilizationEnergyMaintenance 69375.146751404
scalar OsgEarthNet.uav[5] utilizationEnergyCharge 190071.06811523
scalar OsgEarthNet.uav[5] utilizationEnergyOverdrawMission 0
scalar OsgEarthNet.uav[5] utilizationEnergyOverdrawMaintenance 0
scalar OsgEarthNet.uav[5] utilizationCountMissions 51
scalar OsgEarthNet.uav[5] utilizationCountManeuversMission 416
scalar OsgEarthNet.uav[5] utilizationCountManeuversMaintenance 103
scalar OsgEarthNet.uav[5] utilizationCountChargeState 51
scalar OsgEarthNet.uav[5] utilizationCountOverdrawnAfterMission 0
scalar OsgEarthNet.uav[5] utilizationCountIdleState 52
scalar OsgEarthNet.uav[5] utilizationFail 0
scalar OsgEarthNet.uav[5] simulationTime 259200
scalar OsgEarthNet.uav[6] utilizationSecMission 27071.337859056
scalar OsgEarthNet.uav[6] utilizationSecMaintenance 13236.520317755
scalar OsgEarthNet.uav[6] utilizationSecCharge 156750
scalar OsgEarthNet.uav[6] utilizationSecIdle 62142.140823189
scalar OsgEarthNet.uav[6] utilizationEnergyMission 125382.19239565
scalar OsgEarthNet.uav[6] utilizationEnergyMaintenance 61840.372875214
scalar OsgEarthNet.uav[6] utilizationEnergyCharge 184960.63061523
scalar OsgEarthNet.uav[6] utilizationEnergyOverdrawMission 0
scalar OsgEarthNet.uav[6] utilizationEnergyOverdrawMaintenance 0
scalar OsgEarthNet.uav[6] utilizationCountMissions 50
scalar OsgEarthNet.uav[6] utilizationCountManeuversMission 444
scalar OsgEarthNet.uav[6] utilizationCountManeuversMaintenance 101
scalar OsgEarthNet.uav[6] utilizationCountChargeState 50
scalar OsgEarthNet.uav[6] utilizationCountOverdrawnAfterMission 0
scalar OsgEarthNet.uav[6] utilizationCountIdleState 51
scalar OsgEarthNet.uav[6] utilizationFail 0
scalar OsgEarthNet.uav[6] simulationTime 259200
scalar OsgEarthNet.uav[7] utilizationSecMission 13062.30888555
scalar OsgEarthNet.uav[7] utilizationSecMaintenance 10053.871410914
scalar OsgEarthNet.uav[7] utilizationSecCharge 92326.180440284
scalar OsgEarthNet.uav[7] utilizationSecIdle 143757.63826325
scalar OsgEarthNet.uav[7] utilizationEnergyMission 59820.52734375
scalar OsgEarthNet.uav[7] utilizationEnergyMaintenance 47189.744556427
scalar OsgEarthNet.uav[7] utilizationEnergyCharge 106948.12768555
scalar OsgEarthNet.uav[7] utilizationEnergyOverdrawMission 0
scalar OsgEarthNet.uav[7] utilizationEnergyOverdrawMaintenance 0
scalar OsgEarthNet.uav[7] utilizationCountMissions 31
scalar OsgEarthNet.uav[7] utilizationCountManeuversMission 220
scalar OsgEarthNet.uav[7] utilizationCountManeuversMaintenance 62
scalar OsgEarthNet.uav[7] utilizationCountChargeState 31
scalar OsgEarthNet.uav[7] utilizationCountOverdrawnAfterMission 0
scalar OsgEarthNet.uav[7] utilizationCountIdleState 31
scalar OsgEarthNet.uav[7] utilizationFail 0
scalar OsgEarthNet.uav[7] simulationTime 259200
scalar OsgEarthNet.uav[8] utilizationSecMission 27028.97055591
scalar OsgEarthNet.uav[8] utilizationSecMaintenance 14813.066470692
scalar OsgEarthNet.uav[8] utilizationSecCharge 163555.9619734
scalar OsgEarthNet.uav[8] utilizationSecIdle 53802
scalar OsgEarthNet.uav[8] utilizationEnergyMission 126123.48130628
scalar OsgEarthNet.uav[8] utilizationEnergyMaintenance 69263.300857544
scalar OsgEarthNet.uav[8] utilizationEnergyCharge 193642.3581543
scalar OsgEarthNet.uav[8] utilizationEnergyOverdrawMission 0
scalar OsgEarthNet.uav[8] utilizationEnergyOverdrawMaintenance 0
scalar OsgEarthNet.uav[8] utilizationCountMissions 53
scalar OsgEarthNet.uav[8] utilizationCountManeuversMission 435
scalar OsgEarthNet.uav[8] utilizationCountManeuversMaintenance 105
scalar OsgEarthNet.uav[8] utilizationCountChargeState 53
scalar OsgEarthNet.uav[8] utilizationCountOverdrawnAfterMission 0
scalar OsgEarthNet.uav[8] utilizationCountIdleState 53
scalar OsgEarthNet.uav[8] utilizationFail 0
scalar OsgEarthNet.uav[8] simulationTime 259200
scalar OsgEarthNet.uav[9] utilizationSecMission 1014.5757665791
scalar OsgEarthNet.uav[9] utilizationSecMaintenance 392.15989650704
scalar OsgEarthNet.uav[9] utilizationSecCharge 5760
scalar OsgEarthNet.uav[9] utilizationSecIdle 252033.26333691
scalar OsgEarthNet.uav[9] utilizationEnergyMission 4826.8526000977
scalar OsgEarthNet.uav[9] utilizationEnergyMaintenance 1941.8421707153
scalar OsgEarthNet.uav[9] utilizationEnergyCharge 6569.7854003906
scalar OsgEarthNet.uav[9] utilizationEnergyOverdrawMission 0
scalar OsgEarthNet.uav[9] utilizationEnergyOverdrawMaintenance 0
scalar OsgEarthNet.uav[9] utilizationCountMissions 2
scalar OsgEarthNet.uav[9] utilizationCountManeuversMission 15
scalar OsgEarthNet.uav[9] utilizationCountManeuversMaintenance 4
scalar OsgEarthNet.uav[9] utilizationCountChargeState 2
scalar OsgEarthNet.uav[9] utilizationCountOverdrawnAfterMission 0
scalar OsgEarthNet.uav[9] utilizationCountIdleState 3
scalar OsgEarthNet.uav[9] utilizationFail 0
scalar OsgEarthNet.uav[9] simulationTime 259200
scalar OsgEarthNet.uav[10] utilizationSecMission 3319.7710789971
scalar OsgEarthNet.uav[10] utilizationSecMaintenance 2081.8351855038
scalar OsgEarthNet.uav[10] utilizationSecCharge 21710
scalar OsgEarthNet.uav[10] utilizationSecIdle 232088.3927355
scalar OsgEarthNet.uav[10] utilizationEnergyMission 15377.851516724
scalar OsgEarthNet.uav[10] utilizationEnergyMaintenance 10254.386096954
scalar OsgEarthNet.uav[10] utilizationEnergyCharge 25627.783691406
scalar OsgEarthNet.uav[10] utilizationEnergyOverdrawMission 0
scalar OsgEarthNet.uav[10] utilizationEnergyOverdrawMaintenance 0
scalar OsgEarthNet.uav[10] utilizationCountMissions 7
scalar OsgEarthNet.uav[10] utilizationCountManeuversMission 51
scalar OsgEarthNet.uav[10] utilizationCountManeuversMaintenance 14
scalar OsgEarthNet.uav[10] utilizationCountChargeState 7
scalar OsgEarthNet.uav[10] utilizationCountOverdrawnAfterMission 0
scalar OsgEarthNet.uav[10] utilizationCountIdleState 8
scalar OsgEarthNet.uav[10] utilizationFail 0
scalar OsgEarthNet.uav[10] simulationTime 259200
scalar OsgEarthNet.uav[11] utilizationSecMission 8450.7895375696
scalar OsgEarthNet.uav[11] utilizationSecMaintenance 4749.9064372323
scalar OsgEarthNet.uav[11] utilizationSecCharge 52680
scalar OsgEarthNet.uav[11] utilizationSecIdle 193319.3030252
scalar OsgEarthNet.uav[11] utilizationEnergyMission 39751.522262573
scalar OsgEarthNet.uav[11] utilizationEnergyMaintenance 22215.95539093
scalar OsgEarthNet.uav[11] utilizationEnergyCharge 61939.862792969
scalar OsgEarthNet.uav[11] utilizationEnergyOverdrawMission 0
scalar OsgEarthNet.uav[11] utilizationEnergyOverdrawMaintenance 0
scalar OsgEarthNet.uav[11] utilizationCountMissions 17
scalar OsgEarthNet.uav[11] utilizationCountManeuversMission 139
scalar OsgEarthNet.uav[11] utilizationCountManeuversMaintenance 34
scalar OsgEarthNet.uav[11] utilizationCountChargeState 17
scalar OsgEarthNet.uav[11] utilizationCountOverdrawnAfterMission 0
scalar OsgEarthNet.uav[11] utilizationCountIdleState 18
scalar OsgEarthNet.uav[11] utilizationFail 0
scalar OsgEarthNet.uav[11] simulationTime 259200
scalar OsgEarthNet.uav[12] utilizationSecMission 887.1741082606
scalar OsgEarthNet.uav[12] utilizationSecMaintenance 125.81102573108
scalar OsgEarthNet.uav[12] utilizationSecCharge 3590
scalar OsgEarthNet.uav[12] utilizationSecIdle 254597.01386601
scalar OsgEarthNet.uav[12] utilizationEnergyMission 4249.6777191162
scalar OsgEarthNet.uav[12] utilizationEnergyMaintenance 543.78374481201
scalar OsgEarthNet.uav[12] utilizationEnergyCharge 4546.1547851562
scalar OsgEarthNet.uav[12] utilizationEnergyOverdrawMission 0
scalar OsgEarthNet.uav[12] utilizationEnergyOverdrawMaintenance 0
scalar OsgEarthNet.uav[12] utilizationCountMissions 1
scalar OsgEarthNet.uav[12] utilizationCountManeuversMission 14
scalar OsgEarthNet.uav[12] utilizationCountManeuversMaintenance 2
scalar OsgEarthNet.uav[12] utilizationCountChargeState 1
scalar OsgEarthNet.uav[12] utilizationCountOverdrawnAfterMission 0
scalar OsgEarthNet.uav[12] utilizationCountIdleState 2
scalar OsgEarthNet.uav[12] utilizationFail 0
scalar OsgEarthNet.uav[12] simulationTime 259200
scalar OsgEarthNet.uav[13] utilizationSecMission 2885.4638005351
scalar OsgEarthNet.uav[13] utilizationSecMaintenance 1587.0229634709
scalar OsgEarthNet.uav[13] utilizationSecCharge 18330
scalar OsgEarthNet.uav[13] utilizationSecIdle 236397.51223599
scalar OsgEarthNet.uav[13] utilizationEnergyMission 13364.079162598
scalar OsgEarthNet.uav[13] utilizationEnergyMaintenance 7960.13646698
scalar OsgEarthNet.uav[13] utilizationEnergyCharge 21324.216308594
scalar OsgEarthNet.uav[13] utilizationEnergyOverdrawMission 0
scalar OsgEarthNet.uav[13] utilizationEnergyOverdrawMaintenance 0
scalar OsgEarthNet.uav[13] utilizationCountMissions 6
scalar OsgEarthNet.uav[13] utilizationCountManeuversMission 47
scalar OsgEarthNet.uav[13] utilizationCountManeuversMaintenance 12
scalar OsgEarthNet.uav[13] utilizationCountChargeState 6
scalar OsgEarthNet.uav[13] utilizationCountOverdrawnAfterMission 0
scalar OsgEarthNet.uav[13] utilizationCountIdleState 7
scalar OsgEarthNet.uav[13] utilizationFail 0
scalar OsgEarthNet.uav[13] simulationTime 259200
scalar OsgEarthNet.uav[14] utilizationSecMission 2633.8859820811
scalar OsgEarthNet.uav[14] utilizationSecMaintenance 2063.4452911473
scalar OsgEarthNet.uav[14] utilizationSecCharge 19620
scalar OsgEarthNet.uav[14] utilizationSecIdle 234882.66772677
scalar OsgEarthNet.uav[14] utilizationEnergyMission 12426.155456543
scalar OsgEarthNet.uav[14] utilizationEnergyMaintenance 9553.2619895935
scalar OsgEarthNet.uav[14] utilizationEnergyCharge 21837.128662109
scalar OsgEarthNet.uav[14] utilizationEnergyOverdrawMission 0
scalar OsgEarthNet.uav[14] utilizationEnergyOverdrawMaintenance 0
scalar OsgEarthNet.uav[14] utilizationCountMissions 7
scalar OsgEarthNet.uav[14] utilizationCountManeuversMission 42
scalar OsgEarthNet.uav[14] utilizationCountManeuversMaintenance 14
scalar OsgEarthNet.uav[14] utilizationCountChargeState 7
scalar OsgEarthNet.uav[14] utilizationCountOverdrawnAfterMission 0
scalar OsgEarthNet.uav[14] utilizationCountIdleState 8
scalar OsgEarthNet.uav[14] utilizationFail 0
scalar OsgEarthNet.uav[14] simulationTime 259200
scalar OsgEarthNet.uav[15] utilizationSecMission 887.1741082606
scalar OsgEarthNet.uav[15] utilizationSecMaintenance 125.81102573108
scalar OsgEarthNet.uav[15] utilizationSecCharge 3620
scalar OsgEarthNet.uav[15] utilizationSecIdle 254567.01386601
scalar OsgEarthNet.uav[15] utilizationEnergyMission 3933.7666625976
scalar OsgEarthNet.uav[15] utilizationEnergyMaintenance 505.5782699585
scalar OsgEarthNet.uav[15] utilizationEnergyCharge 4548.150390625
scalar OsgEarthNet.uav[15] utilizationEnergyOverdrawMission 0
scalar OsgEarthNet.uav[15] utilizationEnergyOverdrawMaintenance 0
scalar OsgEarthNet.uav[15] utilizationCountMissions 1
scalar OsgEarthNet.uav[15] utilizationCountManeuversMission 14
scalar OsgEarthNet.uav[15] utilizationCountManeuversMaintenance 2
scalar OsgEarthNet.uav[15] utilizationCountChargeState 1
scalar OsgEarthNet.uav[15] utilizationCountOverdrawnAfterMission 0
scalar OsgEarthNet.uav[15] utilizationCountIdleState 2
scalar OsgEarthNet.uav[15] utilizationFail 0
scalar OsgEarthNet.uav[15] simulationTime 259200
scalar OsgEarthNet.uav[16] utilizationSecMission 443.5870541303
scalar OsgEarthNet.uav[16] utilizationSecMaintenance 425.80795651079
scalar OsgEarthNet.uav[16] utilizationSecCharge 3340
scalar OsgEarthNet.uav[16] utilizationSecIdle 254990.60398936
scalar OsgEarthNet.uav[16] utilizationEnergyMission 2298.790222168
scalar OsgEarthNet.uav[16] utilizationEnergyMaintenance 1908.7884941101
scalar OsgEarthNet.uav[16] utilizationEnergyCharge 4071.3525390625
scalar OsgEarthNet.uav[16] utilizationEnergyOverdrawMission 0
scalar OsgEarthNet.uav[16] utilizationEnergyOverdrawMaintenance 0
scalar OsgEarthNet.uav[16] utilizationCountMissions 1
scalar OsgEarthNet.uav[16] utilizationCountManeuversMission 7
scalar OsgEarthNet.uav[16] utilizationCountManeuversMaintenance 2
scalar OsgEarthNet.uav[16] utilizationCountChargeState 1
scalar OsgEarthNet.uav[16] utilizationCountOverdrawnAfterMission 0
scalar OsgEarthNet.uav[16] utilizationCountIdleState 2
scalar OsgEarthNet.uav[16] utilizationFail 0
scalar OsgEarthNet.uav[16] simulationTime 259200
scalar OsgEarthNet.uav[17] utilizationSecMission 682.94783150361
scalar OsgEarthNet.uav[17] utilizationSecMaintenance 228.1606024445
scalar OsgEarthNet.uav[17] utilizationSecCharge 3410
scalar OsgEarthNet.uav[17] utilizationSecIdle 254878.89056605
scalar OsgEarthNet.uav[17] utilizationEnergyMission 3078.7447738647
scalar OsgEarthNet.uav[17] utilizationEnergyMaintenance 1058.5311813354
scalar OsgEarthNet.uav[17] utilizationEnergyCharge 4137.2768554688
scalar OsgEarthNet.uav[17] utilizationEnergyOverdrawMission 0
scalar OsgEarthNet.uav[17] utilizationEnergyOverdrawMaintenance 0
scalar OsgEarthNet.uav[17] utilizationCountMissions 1
scalar OsgEarthNet.uav[17] utilizationCountManeuversMission 12
scalar OsgEarthNet.uav[17] utilizationCountManeuversMaintenance 2
scalar OsgEarthNet.uav[17] utilizationCountChargeState 1
scalar OsgEarthNet.uav[17] utilizationCountOverdrawnAfterMission 0
scalar OsgEarthNet.uav[17] utilizationCountIdleState 2
scalar OsgEarthNet.uav[17] utilizationFail 0
scalar OsgEarthNet.uav[17] simulationTime 259200
scalar OsgEarthNet.uav[18] utilizationSecMission 8150.8248212387
scalar OsgEarthNet.uav[18] utilizationSecMaintenance 3320.1693957117
scalar OsgEarthNet.uav[18] utilizationSecCharge 46080
scalar OsgEarthNet.uav[18] utilizationSecIdle 201649.00478305
scalar OsgEarthNet.uav[18] utilizationEnergyMission 37735.053718567
scalar OsgEarthNet.uav[18] utilizationEnergyMaintenance 16250.320835114
scalar OsgEarthNet.uav[18] utilizationEnergyCharge 53705.241455078
scalar OsgEarthNet.uav[18] utilizationEnergyOverdrawMission 0
scalar OsgEarthNet.uav[18] utilizationEnergyOverdrawMaintenance 0
scalar OsgEarthNet.uav[18] utilizationCountMissions 15
scalar OsgEarthNet.uav[18] utilizationCountManeuversMission 129
scalar OsgEarthNet.uav[18] utilizationCountManeuversMaintenance 30
scalar OsgEarthNet.uav[18] utilizationCountChargeState 15
scalar OsgEarthNet.uav[18] utilizationCountOverdrawnAfterMission 0
scalar OsgEarthNet.uav[18] utilizationCountIdleState 16
scalar OsgEarthNet.uav[18] utilizationFail 0
scalar OsgEarthNet.uav[18] simulationTime 259200
scalar OsgEarthNet.uav[19] utilizationSecMission 443.5870541303
scalar OsgEarthNet.uav[19] utilizationSecMaintenance 425.80795651079
scalar OsgEarthNet.uav[19] utilizationSecCharge 3410
scalar OsgEarthNet.uav[19] utilizationSecIdle 254920.60398936
scalar OsgEarthNet.uav[19] utilizationEnergyMission 2180.2620544434
scalar OsgEarthNet.uav[19] utilizationEnergyMaintenance 2073.15467453
scalar OsgEarthNet.uav[19] utilizationEnergyCharge 4219.2431640625
scalar OsgEarthNet.uav[19] utilizationEnergyOverdrawMission 0
scalar OsgEarthNet.uav[19] utilizationEnergyOverdrawMaintenance 0
scalar OsgEarthNet.uav[19] utilizationCountMissions 1
scalar OsgEarthNet.uav[19] utilizationCountManeuversMission 7
scalar OsgEarthNet.uav[19] utilizationCountManeuversMaintenance 2
scalar OsgEarthNet.uav[19] utilizationCountChargeState 1
scalar OsgEarthNet.uav[19] utilizationCountOverdrawnAfterMission 0
scalar OsgEarthNet.uav[19] utilizationCountIdleState 2
scalar OsgEarthNet.uav[19] utilizationFail 0
scalar OsgEarthNet.uav[19] simulationTime 259200
scalar OsgEarthNet.uav[20] utilizationSecMission 179.21601502944
scalar OsgEarthNet.uav[20] utilizationSecMaintenance 354.43405905663
scalar OsgEarthNet.uav[20] utilizationSecCharge 2360
scalar OsgEarthNet.uav[20] utilizationSecIdle 256306.34892591
scalar OsgEarthNet.uav[20] utilizationEnergyMission 893.83233642578
scalar OsgEarthNet.uav[20] utilizationEnergyMaintenance 1501.8076400757
scalar OsgEarthNet.uav[20] utilizationEnergyCharge 2395.6374511719
scalar OsgEarthNet.uav[20] utilizationEnergyOverdrawMission 0
scalar OsgEarthNet.uav[20] utilizationEnergyOverdrawMaintenance 0
scalar OsgEarthNet.uav[20] utilizationCountMissions 1
scalar OsgEarthNet.uav[20] utilizationCountManeuversMission 3
scalar OsgEarthNet.uav[20] utilizationCountManeuversMaintenance 2
scalar OsgEarthNet.uav[20] utilizationCountChargeState 1
scalar OsgEarthNet.uav[20] utilizationCountOverdrawnAfterMission 0
scalar OsgEarthNet.uav[20] utilizationCountIdleState 2
scalar OsgEarthNet.uav[20] utilizationFail 0
scalar OsgEarthNet.uav[20] simulationTime 259200
scalar OsgEarthNet.uav[21] utilizationSecMission 19407.880576178
scalar OsgEarthNet.uav[21] utilizationSecMaintenance 12447.382092483
scalar OsgEarthNet.uav[21] utilizationSecCharge 124975.11683551
scalar OsgEarthNet.uav[21] utilizationSecIdle 102369.61949583
scalar OsgEarthNet.uav[21] utilizationEnergyMission 89306.335243225
scalar OsgEarthNet.uav[21] utilizationEnergyMaintenance 58159.929443359
scalar OsgEarthNet.uav[21] utilizationEnergyCharge 145409.02148438
scalar OsgEarthNet.uav[21] utilizationEnergyOverdrawMission 0
scalar OsgEarthNet.uav[21] utilizationEnergyOverdrawMaintenance 0
scalar OsgEarthNet.uav[21] utilizationCountMissions 42
scalar OsgEarthNet.uav[21] utilizationCountManeuversMission 310
scalar OsgEarthNet.uav[21] utilizationCountManeuversMaintenance 84
scalar OsgEarthNet.uav[21] utilizationCountChargeState 42
scalar OsgEarthNet.uav[21] utilizationCountOverdrawnAfterMission 0
scalar OsgEarthNet.uav[21] utilizationCountIdleState 42
scalar OsgEarthNet.uav[21] utilizationFail 0
scalar OsgEarthNet.uav[21] simulationTime 259200
scalar OsgEarthNet.uav[22] utilizationSecMission 443.5870541303
scalar OsgEarthNet.uav[22] utilizationSecMaintenance 125.81102573108
scalar OsgEarthNet.uav[22] utilizationSecCharge 2510
scalar OsgEarthNet.uav[22] utilizationSecIdle 256120.60092014
scalar OsgEarthNet.uav[22] utilizationEnergyMission 1887.9015045166
scalar OsgEarthNet.uav[22] utilizationEnergyMaintenance 638.76840972901
scalar OsgEarthNet.uav[22] utilizationEnergyCharge 2664.5485839844
scalar OsgEarthNet.uav[22] utilizationEnergyOverdrawMission 0
scalar OsgEarthNet.uav[22] utilizationEnergyOverdrawMaintenance 0
scalar OsgEarthNet.uav[22] utilizationCountMissions 1
scalar OsgEarthNet.uav[22] utilizationCountManeuversMission 7
scalar OsgEarthNet.uav[22] utilizationCountManeuversMaintenance 2
scalar OsgEarthNet.uav[22] utilizationCountChargeState 1
scalar OsgEarthNet.uav[22] utilizationCountOverdrawnAfterMission 0
scalar OsgEarthNet.uav[22] utilizationCountIdleState 2
scalar OsgEarthNet.uav[22] utilizationFail 0
scalar OsgEarthNet.uav[22] simulationTime 259200
scalar OsgEarthNet.uav[23] utilizationSecMission 570.98871244881
scalar OsgEarthNet.uav[23] utilizationSecMaintenance 276.2282017063
scalar OsgEarthNet.uav[23] utilizationSecCharge 3220
scalar OsgEarthNet.uav[23] utilizationSecIdle 255132.78208584
scalar OsgEarthNet.uav[23] utilizationEnergyMission 2502.9619598389
scalar OsgEarthNet.uav[23] utilizationEnergyMaintenance 1398.2491264343
scalar OsgEarthNet.uav[23] utilizationEnergyCharge 3901.2084960938
scalar OsgEarthNet.uav[23] utilizationEnergyOverdrawMission 0
scalar OsgEarthNet.uav[23] utilizationEnergyOverdrawMaintenance 0
scalar OsgEarthNet.uav[23] utilizationCountMissions 1
scalar OsgEarthNet.uav[23] utilizationCountManeuversMission 8
scalar OsgEarthNet.uav[23] utilizationCountManeuversMaintenance 2
scalar OsgEarthNet.uav[23] utilizationCountChargeState 1
scalar OsgEarthNet.uav[23] utilizationCountOverdrawnAfterMission 0
scalar OsgEarthNet.uav[23] utilizationCountIdleState 2
scalar OsgEarthNet.uav[23] utilizationFail 0
scalar OsgEarthNet.uav[23] simulationTime 259200
scalar OsgEarthNet.uav[24] utilizationSecMission 32241.077997003
scalar OsgEarthNet.uav[24] utilizationSecMaintenance 12216.921002997
scalar OsgEarthNet.uav[24] utilizationSecCharge 171140
scalar OsgEarthNet.uav[24] utilizationSecIdle 43602
scalar OsgEarthNet.uav[24] utilizationEnergyMission 148509.10698508
scalar OsgEarthNet.uav[24] utilizationEnergyMaintenance 57955.287582397
scalar OsgEarthNet.uav[24] utilizationEnergyCharge 206856.38134766
scalar OsgEarthNet.uav[24] utilizationEnergyOverdrawMission 0
scalar OsgEarthNet.uav[24] utilizationEnergyOverdrawMaintenance 0
scalar OsgEarthNet.uav[24] utilizationCountMissions 52
scalar OsgEarthNet.uav[24] utilizationCountManeuversMission 520
scalar OsgEarthNet.uav[24] utilizationCountManeuversMaintenance 104
scalar OsgEarthNet.uav[24] utilizationCountChargeState 52
scalar OsgEarthNet.uav[24] utilizationCountOverdrawnAfterMission 0
scalar OsgEarthNet.uav[24] utilizationCountIdleState 53
scalar OsgEarthNet.uav[24] utilizationFail 0
scalar OsgEarthNet.uav[24] simulationTime 259200
scalar OsgEarthNet.uav[25] utilizationSecMission 694.00169469977
scalar OsgEarthNet.uav[25] utilizationSecMaintenance 229.48898285212
scalar OsgEarthNet.uav[25] utilizationSecCharge 3510
scalar OsgEarthNet.uav[25] utilizationSecIdle 254766.50832245
scalar OsgEarthNet.uav[25] utilizationEnergyMission 3177.2126541138
scalar OsgEarthNet.uav[25] utilizationEnergyMaintenance 1149.3885421753
scalar OsgEarthNet.uav[25] utilizationEnergyCharge 4364.8828125
scalar OsgEarthNet.uav[25] utilizationEnergyOverdrawMission 0
scalar OsgEarthNet.uav[25] utilizationEnergyOverdrawMaintenance 0
scalar OsgEarthNet.uav[25] utilizationCountMissions 1
scalar OsgEarthNet.uav[25] utilizationCountManeuversMission 13
scalar OsgEarthNet.uav[25] utilizationCountManeuversMaintenance 2
scalar OsgEarthNet.uav[25] utilizationCountChargeState 1
scalar OsgEarthNet.uav[25] utilizationCountOverdrawnAfterMission 0
scalar OsgEarthNet.uav[25] utilizationCountIdleState 2
scalar OsgEarthNet.uav[25] utilizationFail 0
scalar OsgEarthNet.uav[25] simulationTime 259200
scalar OsgEarthNet.uav[26] utilizationSecMission 643.6855834741
scalar OsgEarthNet.uav[26] utilizationSecMaintenance 176.71691540981
scalar OsgEarthNet.uav[26] utilizationSecCharge 3200
scalar OsgEarthNet.uav[26] utilizationSecIdle 255179.59650112
scalar OsgEarthNet.uav[26] utilizationEnergyMission 2841.7076721191
scalar OsgEarthNet.uav[26] utilizationEnergyMaintenance 940.80312347412
scalar OsgEarthNet.uav[26] utilizationEnergyCharge 3782.5092773438
scalar OsgEarthNet.uav[26] utilizationEnergyOverdrawMission 0
scalar OsgEarthNet.uav[26] utilizationEnergyOverdrawMaintenance 0
scalar OsgEarthNet.uav[26] utilizationCountMissions 1
scalar OsgEarthNet.uav[26] utilizationCountManeuversMission 9
scalar OsgEarthNet.uav[26] utilizationCountManeuversMaintenance 2
scalar OsgEarthNet.uav[26] utilizationCountChargeState 1
scalar OsgEarthNet.uav[26] utilizationCountOverdrawnAfterMission 0
scalar OsgEarthNet.uav[26] utilizationCountIdleState 2
scalar OsgEarthNet.uav[26] utilizationFail 0
scalar OsgEarthNet.uav[26] simulationTime 259200
scalar OsgEarthNet.uav[27] utilizationSecMission 20141.967224279
scalar OsgEarthNet.uav[27] utilizationSecMaintenance 13478.319657005
scalar OsgEarthNet.uav[27] utilizationSecCharge 133982.30222737
scalar OsgEarthNet.uav[27] utilizationSecIdle 91597.40989135
scalar OsgEarthNet.uav[27] utilizationEnergyMission 94883.199241638
scalar OsgEarthNet.uav[27] utilizationEnergyMaintenance 63831.734085083
scalar OsgEarthNet.uav[27] utilizationEnergyCharge 157781.19506836
scalar OsgEarthNet.uav[27] utilizationEnergyOverdrawMission 0
scalar OsgEarthNet.uav[27] utilizationEnergyOverdrawMaintenance 0
scalar OsgEarthNet.uav[27] utilizationCountMissions 44
scalar OsgEarthNet.uav[27] utilizationCountManeuversMission 333
scalar OsgEarthNet.uav[27] utilizationCountManeuversMaintenance 88
scalar OsgEarthNet.uav[27] utilizationCountChargeState 44
scalar OsgEarthNet.uav[27] utilizationCountOverdrawnAfterMission 0
scalar OsgEarthNet.uav[27] utilizationCountIdleState 44
scalar OsgEarthNet.uav[27] utilizationFail 0
scalar OsgEarthNet.uav[27] simulationTime 259200
scalar OsgEarthNet.uav[28] utilizationSecMission 16277.667637914
scalar OsgEarthNet.uav[28] utilizationSecMaintenance 8785.8837896139
scalar OsgEarthNet.uav[28] utilizationSecCharge 99750
scalar OsgEarthNet.uav[28] utilizationSecIdle 134386.44757247
scalar OsgEarthNet.uav[28] utilizationEnergyMission 75100.609323604
scalar OsgEarthNet.uav[28] utilizationEnergyMaintenance 41322.645061493
scalar OsgEarthNet.uav[28] utilizationEnergyCharge 115506.87158203
scalar OsgEarthNet.uav[28] utilizationEnergyOverdrawMission 0
scalar OsgEarthNet.uav[28] utilizationEnergyOverdrawMaintenance 0
scalar OsgEarthNet.uav[28] utilizationCountMissions 33
scalar OsgEarthNet.uav[28] utilizationCountManeuversMission 266
scalar OsgEarthNet.uav[28] utilizationCountManeuversMaintenance 67
scalar OsgEarthNet.uav[28] utilizationCountChargeState 33
scalar OsgEarthNet.uav[28] utilizationCountOverdrawnAfterMission 0
scalar OsgEarthNet.uav[28] utilizationCountIdleState 34
scalar OsgEarthNet.uav[28] utilizationFail 0
scalar OsgEarthNet.uav[28] simulationTime 259200
scalar OsgEarthNet.uav[29] utilizationSecMission 760.62515258028
scalar OsgEarthNet.uav[29] utilizationSecMaintenance 245.74410321072
scalar OsgEarthNet.uav[29] utilizationSecCharge 3580
scalar OsgEarthNet.uav[29] utilizationSecIdle 254613.62974421
scalar OsgEarthNet.uav[29] utilizationEnergyMission 3289.0802001953
scalar OsgEarthNet.uav[29] utilizationEnergyMaintenance 1168.0854606628
scalar OsgEarthNet.uav[29] utilizationEnergyCharge 4457.1694335938
scalar OsgEarthNet.uav[29] utilizationEnergyOverdrawMission 0
scalar OsgEarthNet.uav[29] utilizationEnergyOverdrawMaintenance 0
scalar OsgEarthNet.uav[29] utilizationCountMissions 1
scalar OsgEarthNet.uav[29] utilizationCountManeuversMission 12
scalar OsgEarthNet.uav[29] utilizationCountManeuversMaintenance 2
scalar OsgEarthNet.uav[29] utilizationCountChargeState 1
scalar OsgEarthNet.uav[29] utilizationCountOverdrawnAfterMission 0
scalar OsgEarthNet.uav[29] utilizationCountIdleState 2
scalar OsgEarthNet.uav[29] utilizationFail 0
scalar OsgEarthNet.uav[29] simulationTime 259200
scalar OsgEarthNet.uav[30] utilizationSecMission 443.5870541303
scalar OsgEarthNet.uav[30] utilizationSecMaintenance 425.80795651079
scalar OsgEarthNet.uav[30] utilizationSecCharge 3320
scalar OsgEarthNet.uav[30] utilizationSecIdle 255010.60398936
scalar OsgEarthNet.uav[30] utilizationEnergyMission 2131.1058044434
scalar OsgEarthNet.uav[30] utilizationEnergyMaintenance 1881.855632782
scalar OsgEarthNet.uav[30] utilizationEnergyCharge 4047.3110351562
scalar OsgEarthNet.uav[30] utilizationEnergyOverdrawMission 0
scalar OsgEarthNet.uav[30] utilizationEnergyOverdrawMaintenance 0
scalar OsgEarthNet.uav[30] utilizationCountMissions 1
scalar OsgEarthNet.uav[30] utilizationCountManeuversMission 7
scalar OsgEarthNet.uav[30] utilizationCountManeuversMaintenance 2
scalar OsgEarthNet.uav[30] utilizationCountChargeState 1
scalar OsgEarthNet.uav[30] utilizationCountOverdrawnAfterMission 0
scalar OsgEarthNet.uav[30] utilizationCountIdleState 2
scalar OsgEarthNet.uav[30] utilizationFail 0
scalar OsgEarthNet.uav[30] simulationTime 259200
scalar OsgEarthNet.uav[31] utilizationSecMission 23.329233930829
scalar OsgEarthNet.uav[31] utilizationSecMaintenance 626.50021886036
scalar OsgEarthNet.uav[31] utilizationSecCharge 2860
scalar OsgEarthNet.uav[31] utilizationSecIdle 255690.16954721
scalar OsgEarthNet.uav[31] utilizationEnergyMission 184.82679748535
scalar OsgEarthNet.uav[31] utilizationEnergyMaintenance 3057.3120536804
scalar OsgEarthNet.uav[31] utilizationEnergyCharge 3242.1430664062
scalar OsgEarthNet.uav[31] utilizationEnergyOverdrawMission 0
scalar OsgEarthNet.uav[31] utilizationEnergyOverdrawMaintenance 0
scalar OsgEarthNet.uav[31] utilizationCountMissions 1
scalar OsgEarthNet.uav[31] utilizationCountManeuversMission 1
scalar OsgEarthNet.uav[31] utilizationCountManeuversMaintenance 2
scalar OsgEarthNet.uav[31] utilizationCountChargeState 1
scalar OsgEarthNet.uav[31] utilizationCountOverdrawnAfterMission 0
scalar OsgEarthNet.uav[31] utilizationCountIdleState 2
scalar OsgEarthNet.uav[31] utilizationFail 0
scalar OsgEarthNet.uav[31] simulationTime 259200
scalar OsgEarthNet.uav[32] utilizationSecMission 2718.7645517904
scalar OsgEarthNet.uav[32] utilizationSecMaintenance 680.96767280007
scalar OsgEarthNet.uav[32] utilizationSecCharge 12930
scalar OsgEarthNet.uav[32] utilizationSecIdle 242870.26677541
scalar OsgEarthNet.uav[32] utilizationEnergyMission 12692.627738953
scalar OsgEarthNet.uav[32] utilizationEnergyMaintenance 3026.1506004333
scalar OsgEarthNet.uav[32] utilizationEnergyCharge 15511.428222656
scalar OsgEarthNet.uav[32] utilizationEnergyOverdrawMission 0
scalar OsgEarthNet.uav[32] utilizationEnergyOverdrawMaintenance 0
scalar OsgEarthNet.uav[32] utilizationCountMissions 4
scalar OsgEarthNet.uav[32] utilizationCountManeuversMission 47
scalar OsgEarthNet.uav[32] utilizationCountManeuversMaintenance 8
scalar OsgEarthNet.uav[32] utilizationCountChargeState 4
scalar OsgEarthNet.uav[32] utilizationCountOverdrawnAfterMission 0
scalar OsgEarthNet.uav[32] utilizationCountIdleState 5
scalar OsgEarthNet.uav[32] utilizationFail 0
scalar OsgEarthNet.uav[32] simulationTime 259200
scalar OsgEarthNet.uav[33] utilizationSecMission 14601.833631921
scalar OsgEarthNet.uav[33] utilizationSecMaintenance 4846.0830880323
scalar OsgEarthNet.uav[33] utilizationSecCharge 75040
scalar OsgEarthNet.uav[33] utilizationSecIdle 164712.08228005
scalar OsgEarthNet.uav[33] utilizationEnergyMission 67678.013053894
scalar OsgEarthNet.uav[33] utilizationEnergyMaintenance 22732.058589935
scalar OsgEarthNet.uav[33] utilizationEnergyCharge 90239.347167969
scalar OsgEarthNet.uav[33] utilizationEnergyOverdrawMission 0
scalar OsgEarthNet.uav[33] utilizationEnergyOverdrawMaintenance 0
scalar OsgEarthNet.uav[33] utilizationCountMissions 23
scalar OsgEarthNet.uav[33] utilizationCountManeuversMission 231
scalar OsgEarthNet.uav[33] utilizationCountManeuversMaintenance 46
scalar OsgEarthNet.uav[33] utilizationCountChargeState 23
scalar OsgEarthNet.uav[33] utilizationCountOverdrawnAfterMission 0
scalar OsgEarthNet.uav[33] utilizationCountIdleState 24
scalar OsgEarthNet.uav[33] utilizationFail 0
scalar OsgEarthNet.uav[33] simulationTime 259200
scalar OsgEarthNet.uav[34] utilizationSecMission 25921.919131214
scalar OsgEarthNet.uav[34] utilizationSecMaintenance 13714.31473057
scalar OsgEarthNet.uav[34] utilizationSecCharge 155392.70734302
scalar OsgEarthNet.uav[34] utilizationSecIdle 64171.057795193
scalar OsgEarthNet.uav[34] utilizationEnergyMission 119893.03328705
scalar OsgEarthNet.uav[34] utilizationEnergyMaintenance 65501.637001038
scalar OsgEarthNet.uav[34] utilizationEnergyCharge 184283.66113281
scalar OsgEarthNet.uav[34] utilizationEnergyOverdrawMission 0
scalar OsgEarthNet.uav[34] utilizationEnergyOverdrawMaintenance 0
scalar OsgEarthNet.uav[34] utilizationCountMissions 50
scalar OsgEarthNet.uav[34] utilizationCountManeuversMission 425
scalar OsgEarthNet.uav[34] utilizationCountManeuversMaintenance 100
scalar OsgEarthNet.uav[34] utilizationCountChargeState 50
scalar OsgEarthNet.uav[34] utilizationCountOverdrawnAfterMission 0
scalar OsgEarthNet.uav[34] utilizationCountIdleState 50
scalar OsgEarthNet.uav[34] utilizationFail 0
scalar OsgEarthNet.uav[34] simulationTime 259200
scalar OsgEarthNet.uav[35] utilizationSecMission 887.1741082606
scalar OsgEarthNet.uav[35] utilizationSecMaintenance 125.81102573108
scalar OsgEarthNet.uav[35] utilizationSecCharge 3600
scalar OsgEarthNet.uav[35] utilizationSecIdle 254587.01386601
scalar OsgEarthNet.uav[35] utilizationEnergyMission 4023.177444458
scalar OsgEarthNet.uav[35] utilizationEnergyMaintenance 489.46269989014
scalar OsgEarthNet.uav[35] utilizationEnergyCharge 4520.5791015625
scalar OsgEarthNet.uav[35] utilizationEnergyOverdrawMission 0
scalar OsgEarthNet.uav[35] utilizationEnergyOverdrawMaintenance 0
scalar OsgEarthNet.uav[35] utilizationCountMissions 1
scalar OsgEarthNet.uav[35] utilizationCountManeuversMission 14
scalar OsgEarthNet.uav[35] utilizationCountManeuversMaintenance 2
scalar OsgEarthNet.uav[35] utilizationCountChargeState 1
scalar OsgEarthNet.uav[35] utilizationCountOverdrawnAfterMission 0
scalar OsgEarthNet.uav[35] utilizationCountIdleState 2
scalar OsgEarthNet.uav[35] utilizationFail 0
scalar OsgEarthNet.uav[35] simulationTime 259200
scalar OsgEarthNet.uav[36] utilizationSecMission 750.20472747826
scalar OsgEarthNet.uav[36] utilizationSecMaintenance 261.68051383311
scalar OsgEarthNet.uav[36] utilizationSecCharge 3690
scalar OsgEarthNet.uav[36] utilizationSecIdle 254498.11375869
scalar OsgEarthNet.uav[36] utilizationEnergyMission 3421.3694458008
scalar OsgEarthNet.uav[36] utilizationEnergyMaintenance 1252.9157218933
scalar OsgEarthNet.uav[36] utilizationEnergyCharge 4674.2885742188
scalar OsgEarthNet.uav[36] utilizationEnergyOverdrawMission 0
scalar OsgEarthNet.uav[36] utilizationEnergyOverdrawMaintenance 0
scalar OsgEarthNet.uav[36] utilizationCountMissions 1
scalar OsgEarthNet.uav[36] utilizationCountManeuversMission 11
scalar OsgEarthNet.uav[36] utilizationCountManeuversMaintenance 2
scalar OsgEarthNet.uav[36] utilizationCountChargeState 1
scalar OsgEarthNet.uav[36] utilizationCountOverdrawnAfterMission 0
scalar OsgEarthNet.uav[36] utilizationCountIdleState 2
scalar OsgEarthNet.uav[36] utilizationFail 0
scalar OsgEarthNet.uav[36] simulationTime 259200
scalar OsgEarthNet.uav[37] utilizationSecMission 26906.764009852
scalar OsgEarthNet.uav[37] utilizationSecMaintenance 14102.853056819
scalar OsgEarthNet.uav[37] utilizationSecCharge 159040
scalar OsgEarthNet.uav[37] utilizationSecIdle 59150.381933329
scalar OsgEarthNet.uav[37] utilizationEnergyMission 123388.04612732
scalar OsgEarthNet.uav[37] utilizationEnergyMaintenance 66522.279811859
scalar OsgEarthNet.uav[37] utilizationEnergyCharge 189199.71630859
scalar OsgEarthNet.uav[37] utilizationEnergyOverdrawMission 0
scalar OsgEarthNet.uav[37] utilizationEnergyOverdrawMaintenance 0
scalar OsgEarthNet.uav[37] utilizationCountMissions 50
scalar OsgEarthNet.uav[37] utilizationCountManeuversMission 446
scalar OsgEarthNet.uav[37] utilizationCountManeuversMaintenance 100
scalar OsgEarthNet.uav[37] utilizationCountChargeState 50
scalar OsgEarthNet.uav[37] utilizationCountOverdrawnAfterMission 0
scalar OsgEarthNet.uav[37] utilizationCountIdleState 51
scalar OsgEarthNet.uav[37] utilizationFail 0
scalar OsgEarthNet.uav[37] simulationTime 259200
scalar OsgEarthNet.uav[38] utilizationSecMission 20573.262146624
scalar OsgEarthNet.uav[38] utilizationSecMaintenance 10659.573563506
scalar OsgEarthNet.uav[38] utilizationSecCharge 123670
scalar OsgEarthNet.uav[38] utilizationSecIdle 104297.16328987
scalar OsgEarthNet.uav[38] utilizationEnergyMission 95639.679573059
scalar OsgEarthNet.uav[38] utilizationEnergyMaintenance 49754.565101624
scalar OsgEarthNet.uav[38] utilizationEnergyCharge 144984.27319336
scalar OsgEarthNet.uav[38] utilizationEnergyOverdrawMission 0
scalar OsgEarthNet.uav[38] utilizationEnergyOverdrawMaintenance 0
scalar OsgEarthNet.uav[38] utilizationCountMissions 40
scalar OsgEarthNet.uav[38] utilizationCountManeuversMission 339
scalar OsgEarthNet.uav[38] utilizationCountManeuversMaintenance 80
scalar OsgEarthNet.uav[38] utilizationCountChargeState 40
scalar OsgEarthNet.uav[38] utilizationCountOverdrawnAfterMission 0
scalar OsgEarthNet.uav[38] utilizationCountIdleState 41
scalar OsgEarthNet.uav[38] utilizationFail 0
scalar OsgEarthNet.uav[38] simulationTime 259200
scalar OsgEarthNet.uav[39] utilizationSecMission 443.5870541303
scalar OsgEarthNet.uav[39] utilizationSecMaintenance 425.80795651079
scalar OsgEarthNet.uav[39] utilizationSecCharge 3280
scalar OsgEarthNet.uav[39] utilizationSecIdle 255050.60398936
scalar OsgEarthNet.uav[39] utilizationEnergyMission 2204.4762878418
scalar OsgEarthNet.uav[39] utilizationEnergyMaintenance 1806.3000144959
scalar OsgEarthNet.uav[39] utilizationEnergyCharge 3960.4248046875
scalar OsgEarthNet.uav[39] utilizationEnergyOverdrawMission 0
scalar OsgEarthNet.uav[39] utilizationEnergyOverdrawMaintenance 0
scalar OsgEarthNet.uav[39] utilizationCountMissions 1
scalar OsgEarthNet.uav[39] utilizationCountManeuversMission 7
scalar OsgEarthNet.uav[39] utilizationCountManeuversMaintenance 2
scalar OsgEarthNet.uav[39] utilizationCountChargeState 1
scalar OsgEarthNet.uav[39] utilizationCountOverdrawnAfterMission 0
scalar OsgEarthNet.uav[39] utilizationCountIdleState 2
scalar OsgEarthNet.uav[39] utilizationFail 0
scalar OsgEarthNet.uav[39] simulationTime 259200
scalar OsgEarthNet.uav[40] utilizationSecMission 179.21601502944
scalar OsgEarthNet.uav[40] utilizationSecMaintenance 354.43405905663
scalar OsgEarthNet.uav[40] utilizationSecCharge 2420
scalar OsgEarthNet.uav[40] utilizationSecIdle 256246.34892591
scalar OsgEarthNet.uav[40] utilizationEnergyMission 773.30596923828
scalar OsgEarthNet.uav[40] utilizationEnergyMaintenance 1716.04662323
scalar OsgEarthNet.uav[40] utilizationEnergyCharge 2489.3488769531
scalar OsgEarthNet.uav[40] utilizationEnergyOverdrawMission 0
scalar OsgEarthNet.uav[40] utilizationEnergyOverdrawMaintenance 0
scalar OsgEarthNet.uav[40] utilizationCountMissions 1
scalar OsgEarthNet.uav[40] utilizationCountManeuversMission 3
scalar OsgEarthNet.uav[40] utilizationCountManeuversMaintenance 2
scalar OsgEarthNet.uav[40] utilizationCountChargeState 1
scalar OsgEarthNet.uav[40] utilizationCountOverdrawnAfterMission 0
scalar OsgEarthNet.uav[40] utilizationCountIdleState 2
scalar OsgEarthNet.uav[40] utilizationFail 0
scalar OsgEarthNet.uav[40] simulationTime 259200
scalar OsgEarthNet.uav[41] utilizationSecMission 23.329233930829
scalar OsgEarthNet.uav[41] utilizationSecMaintenance 476.50021886036
scalar OsgEarthNet.uav[41] utilizationSecCharge 2300
scalar OsgEarthNet.uav[41] utilizationSecIdle 256400.16954721
scalar OsgEarthNet.uav[41] utilizationEnergyMission 117.48859405517
scalar OsgEarthNet.uav[41] utilizationEnergyMaintenance 2164.0255355835
scalar OsgEarthNet.uav[41] utilizationEnergyCharge 2281.5197753906
scalar OsgEarthNet.uav[41] utilizationEnergyOverdrawMission 0
scalar OsgEarthNet.uav[41] utilizationEnergyOverdrawMaintenance 0
scalar OsgEarthNet.uav[41] utilizationCountMissions 1
scalar OsgEarthNet.uav[41] utilizationCountManeuversMission 1
scalar OsgEarthNet.uav[41] utilizationCountManeuversMaintenance 2
scalar OsgEarthNet.uav[41] utilizationCountChargeState 1
scalar OsgEarthNet.uav[41] utilizationCountOverdrawnAfterMission 0
scalar OsgEarthNet.uav[41] utilizationCountIdleState 2
scalar OsgEarthNet.uav[41] utilizationFail 0
scalar OsgEarthNet.uav[41] simulationTime 259200
scalar OsgEarthNet.uav[42] utilizationSecMission 17384.300026243
scalar OsgEarthNet.uav[42] utilizationSecMaintenance 10282.729914554
scalar OsgEarthNet.uav[42] utilizationSecCharge 108335.69754665
scalar OsgEarthNet.uav[42] utilizationSecIdle 123197.27151255
scalar OsgEarthNet.uav[42] utilizationEnergyMission 80450.891456604
scalar OsgEarthNet.uav[42] utilizationEnergyMaintenance 48241.257793427
scalar OsgEarthNet.uav[42] utilizationEnergyCharge 128552.25952148
scalar OsgEarthNet.uav[42] utilizationEnergyOverdrawMission 0
scalar OsgEarthNet.uav[42] utilizationEnergyOverdrawMaintenance 0
scalar OsgEarthNet.uav[42] utilizationCountMissions 35
scalar OsgEarthNet.uav[42] utilizationCountManeuversMission 271
scalar OsgEarthNet.uav[42] utilizationCountManeuversMaintenance 70
scalar OsgEarthNet.uav[42] utilizationCountChargeState 35
scalar OsgEarthNet.uav[42] utilizationCountOverdrawnAfterMission 0
scalar OsgEarthNet.uav[42] utilizationCountIdleState 35
scalar OsgEarthNet.uav[42] utilizationFail 0
scalar OsgEarthNet.uav[42] simulationTime 259200
scalar OsgEarthNet.uav[43] utilizationSecMission 26752.050326694
scalar OsgEarthNet.uav[43] utilizationSecMaintenance 13791.775606638
scalar OsgEarthNet.uav[43] utilizationSecCharge 155580
scalar OsgEarthNet.uav[43] utilizationSecIdle 63076.173066668
scalar OsgEarthNet.uav[43] utilizationEnergyMission 123810.88146973
scalar OsgEarthNet.uav[43] utilizationEnergyMaintenance 65755.175613107
scalar OsgEarthNet.uav[43] utilizationEnergyCharge 184971.93701172
scalar OsgEarthNet.uav[43] utilizationEnergyOverdrawMission 0
scalar OsgEarthNet.uav[43] utilizationEnergyOverdrawMaintenance 0
scalar OsgEarthNet.uav[43] utilizationCountMissions 50
scalar OsgEarthNet.uav[43] utilizationCountManeuversMission 430
scalar OsgEarthNet.uav[43] utilizationCountManeuversMaintenance 100
scalar OsgEarthNet.uav[43] utilizationCountChargeState 49
scalar OsgEarthNet.uav[43] utilizationCountOverdrawnAfterMission 0
scalar OsgEarthNet.uav[43] utilizationCountIdleState 50
scalar OsgEarthNet.uav[43] utilizationFail 0
scalar OsgEarthNet.uav[43] simulationTime 259200
scalar OsgEarthNet.uav[44] utilizationSecMission 27639.239118368
scalar OsgEarthNet.uav[44] utilizationSecMaintenance 13896.580279995
scalar OsgEarthNet.uav[44] utilizationSecCharge 161226.86351981
scalar OsgEarthNet.uav[44] utilizationSecIdle 56437.316081831
scalar OsgEarthNet.uav[44] utilizationEnergyMission 128074.85954285
scalar OsgEarthNet.uav[44] utilizationEnergyMaintenance 65102.77355957
scalar OsgEarthNet.uav[44] utilizationEnergyCharge 189112.78564453
scalar OsgEarthNet.uav[44] utilizationEnergyOverdrawMission 0
scalar OsgEarthNet.uav[44] utilizationEnergyOverdrawMaintenance 0
scalar OsgEarthNet.uav[44] utilizationCountMissions 53
scalar OsgEarthNet.uav[44] utilizationCountManeuversMission 451
scalar OsgEarthNet.uav[44] utilizationCountManeuversMaintenance 106
scalar OsgEarthNet.uav[44] utilizationCountChargeState 53
scalar OsgEarthNet.uav[44] utilizationCountOverdrawnAfterMission 0
scalar OsgEarthNet.uav[44] utilizationCountIdleState 53
scalar OsgEarthNet.uav[44] utilizationFail 0
scalar OsgEarthNet.uav[44] simulationTime 259200
scalar OsgEarthNet.uav[45] utilizationSecMission 27707.604729825
scalar OsgEarthNet.uav[45] utilizationSecMaintenance 14235.383806899
scalar OsgEarthNet.uav[45] utilizationSecCharge 163445.01046328
scalar OsgEarthNet.uav[45] utilizationSecIdle 53812
scalar OsgEarthNet.uav[45] utilizationEnergyMission 128269.31789459
scalar OsgEarthNet.uav[45] utilizationEnergyMaintenance 66841.260261536
scalar OsgEarthNet.uav[45] utilizationEnergyCharge 192982.89208984
scalar OsgEarthNet.uav[45] utilizationEnergyOverdrawMission 0
scalar OsgEarthNet.uav[45] utilizationEnergyOverdrawMaintenance 0
scalar OsgEarthNet.uav[45] utilizationCountMissions 53
scalar OsgEarthNet.uav[45] utilizationCountManeuversMission 461
scalar OsgEarthNet.uav[45] utilizationCountManeuversMaintenance 105
scalar OsgEarthNet.uav[45] utilizationCountChargeState 53
scalar OsgEarthNet.uav[45] utilizationCountOverdrawnAfterMission 0
scalar OsgEarthNet.uav[45] utilizationCountIdleState 53
scalar OsgEarthNet.uav[45] utilizationFail 0
scalar OsgEarthNet.uav[45] simulationTime 259200
scalar OsgEarthNet.uav[46] utilizationSecMission 27397.868421627
scalar OsgEarthNet.uav[46] utilizationSecMaintenance 12821.946179262
scalar OsgEarthNet.uav[46] utilizationSecCharge 155372.52477864
scalar OsgEarthNet.uav[46] utilizationSecIdle 63607.65962047
scalar OsgEarthNet.uav[46] utilizationEnergyMission 127645.68049622
scalar OsgEarthNet.uav[46] utilizationEnergyMaintenance 60065.971656799
scalar OsgEarthNet.uav[46] utilizationEnergyCharge 186915.04077148
scalar OsgEarthNet.uav[46] utilizationEnergyOverdrawMission 0
scalar OsgEarthNet.uav[46] utilizationEnergyOverdrawMaintenance 0
scalar OsgEarthNet.uav[46] utilizationCountMissions 48
scalar OsgEarthNet.uav[46] utilizationCountManeuversMission 456
scalar OsgEarthNet.uav[46] utilizationCountManeuversMaintenance 96
scalar OsgEarthNet.uav[46] utilizationCountChargeState 48
scalar OsgEarthNet.uav[46] utilizationCountOverdrawnAfterMission 0
scalar OsgEarthNet.uav[46] utilizationCountIdleState 48
scalar OsgEarthNet.uav[46] utilizationFail 0
scalar OsgEarthNet.uav[46] simulationTime 259200
scalar OsgEarthNet.uav[47] utilizationSecMission 27011.42900098
scalar OsgEarthNet.uav[47] utilizationSecMaintenance 15155.446928361
scalar OsgEarthNet.uav[47] utilizationSecCharge 164288.51118114
scalar OsgEarthNet.uav[47] utilizationSecIdle 52744.611889516
scalar OsgEarthNet.uav[47] utilizationEnergyMission 125333.26944351
scalar OsgEarthNet.uav[47] utilizationEnergyMaintenance 71610.565166473
scalar OsgEarthNet.uav[47] utilizationEnergyCharge 193083.89379883
scalar OsgEarthNet.uav[47] utilizationEnergyOverdrawMission 0
scalar OsgEarthNet.uav[47] utilizationEnergyOverdrawMaintenance 0
scalar OsgEarthNet.uav[47] utilizationCountMissions 54
scalar OsgEarthNet.uav[47] utilizationCountManeuversMission 445
scalar OsgEarthNet.uav[47] utilizationCountManeuversMaintenance 108
scalar OsgEarthNet.uav[47] utilizationCountChargeState 54
scalar OsgEarthNet.uav[47] utilizationCountOverdrawnAfterMission 0
scalar OsgEarthNet.uav[47] utilizationCountIdleState 54
scalar OsgEarthNet.uav[47] utilizationFail 0
scalar OsgEarthNet.uav[47] simulationTime 259200
scalar OsgEarthNet.uav[48] utilizationSecMission 28590.067491674
scalar OsgEarthNet.uav[48] utilizationSecMaintenance 13902.513060593
scalar OsgEarthNet.uav[48] utilizationSecCharge 164261.41575479
scalar OsgEarthNet.uav[48] utilizationSecIdle 52446.002692942
scalar OsgEarthNet.uav[48] utilizationEnergyMission 133224.02616882
scalar OsgEarthNet.uav[48] utilizationEnergyMaintenance 64664.59179306
scalar OsgEarthNet.uav[48] utilizationEnergyCharge 196315.37133789
scalar OsgEarthNet.uav[48] utilizationEnergyOverdrawMission 0
scalar OsgEarthNet.uav[48] utilizationEnergyOverdrawMaintenance 0
scalar OsgEarthNet.uav[48] utilizationCountMissions 52
scalar OsgEarthNet.uav[48] utilizationCountManeuversMission 471
scalar OsgEarthNet.uav[48] utilizationCountManeuversMaintenance 104
scalar OsgEarthNet.uav[48] utilizationCountChargeState 52
scalar OsgEarthNet.uav[48] utilizationCountOverdrawnAfterMission 0
scalar OsgEarthNet.uav[48] utilizationCountIdleState 52
scalar OsgEarthNet.uav[48] utilizationFail 0
scalar OsgEarthNet.uav[48] simulationTime 259200
scalar OsgEarthNet.uav[49] utilizationSecMission 443.5870541303
scalar OsgEarthNet.uav[49] utilizationSecMaintenance 425.80795651079
scalar OsgEarthNet.uav[49] utilizationSecCharge 3170
scalar OsgEarthNet.uav[49] utilizationSecIdle 255160.60398936
scalar OsgEarthNet.uav[49] utilizationEnergyMission 1753.7437133789
scalar OsgEarthNet.uav[49] utilizationEnergyMaintenance 2008.7382926941
scalar OsgEarthNet.uav[49] utilizationEnergyCharge 3835.8740234375
scalar OsgEarthNet.uav[49] utilizationEnergyOverdrawMission 0
scalar OsgEarthNet.uav[49] utilizationEnergyOverdrawMaintenance 0
scalar OsgEarthNet.uav[49] utilizationCountMissions 1
scalar OsgEarthNet.uav[49] utilizationCountManeuversMission 7
scalar OsgEarthNet.uav[49] utilizationCountManeuversMaintenance 2
scalar OsgEarthNet.uav[49] utilizationCountChargeState 1
scalar OsgEarthNet.uav[49] utilizationCountOverdrawnAfterMission 0
scalar OsgEarthNet.uav[49] utilizationCountIdleState 2
scalar OsgEarthNet.uav[49] utilizationFail 0
scalar OsgEarthNet.uav[49] simulationTime 259200
scalar OsgEarthNet.uav[50] utilizationSecMission 8298.7207832676
scalar OsgEarthNet.uav[50] utilizationSecMaintenance 3355.6726160293
scalar OsgEarthNet.uav[50] utilizationSecCharge 41649.825452078
scalar OsgEarthNet.uav[50] utilizationSecIdle 205895.78014863
scalar OsgEarthNet.uav[50] utilizationEnergyMission 38246.102157593
scalar OsgEarthNet.uav[50] utilizationEnergyMaintenance 16136.482570648
scalar OsgEarthNet.uav[50] utilizationEnergyCharge 51478.626342773
scalar OsgEarthNet.uav[50] utilizationEnergyOverdrawMission 0
scalar OsgEarthNet.uav[50] utilizationEnergyOverdrawMaintenance 0
scalar OsgEarthNet.uav[50] utilizationCountMissions 13
scalar OsgEarthNet.uav[50] utilizationCountManeuversMission 132
scalar OsgEarthNet.uav[50] utilizationCountManeuversMaintenance 26
scalar OsgEarthNet.uav[50] utilizationCountChargeState 13
scalar OsgEarthNet.uav[50] utilizationCountOverdrawnAfterMission 0
scalar OsgEarthNet.uav[50] utilizationCountIdleState 13
scalar OsgEarthNet.uav[50] utilizationFail 0
scalar OsgEarthNet.uav[50] simulationTime 259200
scalar OsgEarthNet.uav[51] utilizationSecMission 23.329233930829
scalar OsgEarthNet.uav[51] utilizationSecMaintenance 616.50021886036
scalar OsgEarthNet.uav[51] utilizationSecCharge 2740
scalar OsgEarthNet.uav[51] utilizationSecIdle 255820.16954721
scalar OsgEarthNet.uav[51] utilizationEnergyMission 114.48442077637
scalar OsgEarthNet.uav[51] utilizationEnergyMaintenance 2906.9064331055
scalar OsgEarthNet.uav[51] utilizationEnergyCharge 3021.3918457031
scalar OsgEarthNet.uav[51] utilizationEnergyOverdrawMission 0
scalar OsgEarthNet.uav[51] utilizationEnergyOverdrawMaintenance 0
scalar OsgEarthNet.uav[51] utilizationCountMissions 1
scalar OsgEarthNet.uav[51] utilizationCountManeuversMission 1
scalar OsgEarthNet.uav[51] utilizationCountManeuversMaintenance 2
scalar OsgEarthNet.uav[51] utilizationCountChargeState 1
scalar OsgEarthNet.uav[51] utilizationCountOverdrawnAfterMission 0
scalar OsgEarthNet.uav[51] utilizationCountIdleState 2
scalar OsgEarthNet.uav[51] utilizationFail 0
scalar OsgEarthNet.uav[51] simulationTime 259200
scalar OsgEarthNet.uav[52] utilizationSecMission 6196.4264162173
scalar OsgEarthNet.uav[52] utilizationSecMaintenance 1594.6223788444
scalar OsgEarthNet.uav[52] utilizationSecCharge 29840
scalar OsgEarthNet.uav[52] utilizationSecIdle 221568.95020494
scalar OsgEarthNet.uav[52] utilizationEnergyMission 29014.561058044
scalar OsgEarthNet.uav[52] utilizationEnergyMaintenance 6905.7811660767
scalar OsgEarthNet.uav[52] utilizationEnergyCharge 36025.555664062
scalar OsgEarthNet.uav[52] utilizationEnergyOverdrawMission 0
scalar OsgEarthNet.uav[52] utilizationEnergyOverdrawMaintenance 0
scalar OsgEarthNet.uav[52] utilizationCountMissions 9
scalar OsgEarthNet.uav[52] utilizationCountManeuversMission 102
scalar OsgEarthNet.uav[52] utilizationCountManeuversMaintenance 18
scalar OsgEarthNet.uav[52] utilizationCountChargeState 9
scalar OsgEarthNet.uav[52] utilizationCountOverdrawnAfterMission 0
scalar OsgEarthNet.uav[52] utilizationCountIdleState 10
scalar OsgEarthNet.uav[52] utilizationFail 0
scalar OsgEarthNet.uav[52] simulationTime 259200
scalar OsgEarthNet.uav[53] utilizationSecMission 570.98871244881
scalar OsgEarthNet.uav[53] utilizationSecMaintenance 276.2282017063
scalar OsgEarthNet.uav[53] utilizationSecCharge 3320
scalar OsgEarthNet.uav[53] utilizationSecIdle 255032.78208584
scalar OsgEarthNet.uav[53] utilizationEnergyMission 2617.4150085449
scalar OsgEarthNet.uav[53] utilizationEnergyMaintenance 1432.4069328308
scalar OsgEarthNet.uav[53] utilizationEnergyCharge 4049.8232421875
scalar OsgEarthNet.uav[53] utilizationEnergyOverdrawMission 0
scalar OsgEarthNet.uav[53] utilizationEnergyOverdrawMaintenance 0
scalar OsgEarthNet.uav[53] utilizationCountMissions 1
scalar OsgEarthNet.uav[53] utilizationCountManeuversMission 8
scalar OsgEarthNet.uav[53] utilizationCountManeuversMaintenance 2
scalar OsgEarthNet.uav[53] utilizationCountChargeState 1
scalar OsgEarthNet.uav[53] utilizationCountOverdrawnAfterMission 0
scalar OsgEarthNet.uav[53] utilizationCountIdleState 2
scalar OsgEarthNet.uav[53] utilizationFail 0
scalar OsgEarthNet.uav[53] simulationTime 259200
scalar OsgEarthNet.uav[54] utilizationSecMission 18707.812876922
scalar OsgEarthNet.uav[54] utilizationSecMaintenance 8713.7964806357
scalar OsgEarthNet.uav[54] utilizationSecCharge 110420
scalar OsgEarthNet.uav[54] utilizationSecIdle 121358.38964244
scalar OsgEarthNet.uav[54] utilizationEnergyMission 86790.309570312
scalar OsgEarthNet.uav[54] utilizationEnergyMaintenance 41434.898342133
scalar OsgEarthNet.uav[54] utilizationEnergyCharge 127472.61035156
scalar OsgEarthNet.uav[54] utilizationEnergyOverdrawMission 0
scalar OsgEarthNet.uav[54] utilizationEnergyOverdrawMaintenance 0
scalar OsgEarthNet.uav[54] utilizationCountMissions 37
scalar OsgEarthNet.uav[54] utilizationCountManeuversMission 316
scalar OsgEarthNet.uav[54] utilizationCountManeuversMaintenance 74
scalar OsgEarthNet.uav[54] utilizationCountChargeState 37
scalar OsgEarthNet.uav[54] utilizationCountOverdrawnAfterMission 0
scalar OsgEarthNet.uav[54] utilizationCountIdleState 38
scalar OsgEarthNet.uav[54] utilizationFail 0
scalar OsgEarthNet.uav[54] simulationTime 259200
scalar OsgEarthNet.uav[55] utilizationSecMission 24829.667346976
scalar OsgEarthNet.uav[55] utilizationSecMaintenance 10512.587075362
scalar OsgEarthNet.uav[55] utilizationSecCharge 135438.49709495
scalar OsgEarthNet.uav[55] utilizationSecIdle 88419.24748271
scalar OsgEarthNet.uav[55] utilizationEnergyMission 114876.67441177
scalar OsgEarthNet.uav[55] utilizationEnergyMaintenance 49450.229976654
scalar OsgEarthNet.uav[55] utilizationEnergyCharge 163370.35498047
scalar OsgEarthNet.uav[55] utilizationEnergyOverdrawMission 0
scalar OsgEarthNet.uav[55] utilizationEnergyOverdrawMaintenance 0
scalar OsgEarthNet.uav[55] utilizationCountMissions 42
scalar OsgEarthNet.uav[55] utilizationCountManeuversMission 394
scalar OsgEarthNet.uav[55] utilizationCountManeuversMaintenance 84
scalar OsgEarthNet.uav[55] utilizationCountChargeState 42
scalar OsgEarthNet.uav[55] utilizationCountOverdrawnAfterMission 0
scalar OsgEarthNet.uav[55] utilizationCountIdleState 42
scalar OsgEarthNet.uav[55] utilizationFail 0
scalar OsgEarthNet.uav[55] simulationTime 259200
scalar OsgEarthNet.uav[56] utilizationSecMission 23317.375425649
scalar OsgEarthNet.uav[56] utilizationSecMaintenance 14692.572688719
scalar OsgEarthNet.uav[56] utilizationSecCharge 151090
scalar OsgEarthNet.uav[56] utilizationSecIdle 70100.050885632
scalar OsgEarthNet.uav[56] utilizationEnergyMission 106378.02751923
scalar OsgEarthNet.uav[56] utilizationEnergyMaintenance 70142.244911194
scalar OsgEarthNet.uav[56] utilizationEnergyCharge 177020.44018555
scalar OsgEarthNet.uav[56] utilizationEnergyOverdrawMission 0
scalar OsgEarthNet.uav[56] utilizationEnergyOverdrawMaintenance 0
scalar OsgEarthNet.uav[56] utilizationCountMissions 49
scalar OsgEarthNet.uav[56] utilizationCountManeuversMission 369
scalar OsgEarthNet.uav[56] utilizationCountManeuversMaintenance 98
scalar OsgEarthNet.uav[56] utilizationCountChargeState 49
scalar OsgEarthNet.uav[56] utilizationCountOverdrawnAfterMission 0
scalar OsgEarthNet.uav[56] utilizationCountIdleState 50
scalar OsgEarthNet.uav[56] utilizationFail 0
scalar OsgEarthNet.uav[56] simulationTime 259200
scalar OsgEarthNet.uav[57] utilizationSecMission 5244.4356059367
scalar OsgEarthNet.uav[57] utilizationSecMaintenance 2048.9967942487
scalar OsgEarthNet.uav[57] utilizationSecCharge 27600
scalar OsgEarthNet.uav[57] utilizationSecIdle 224306.56659981
scalar OsgEarthNet.uav[57] utilizationEnergyMission 24393.436141968
scalar OsgEarthNet.uav[57] utilizationEnergyMaintenance 9548.392665863
scalar OsgEarthNet.uav[57] utilizationEnergyCharge 33989.088867188
scalar OsgEarthNet.uav[57] utilizationEnergyOverdrawMission 0
scalar OsgEarthNet.uav[57] utilizationEnergyOverdrawMaintenance 0
scalar OsgEarthNet.uav[57] utilizationCountMissions 8
scalar OsgEarthNet.uav[57] utilizationCountManeuversMission 92
scalar OsgEarthNet.uav[57] utilizationCountManeuversMaintenance 16
scalar OsgEarthNet.uav[57] utilizationCountChargeState 8
scalar OsgEarthNet.uav[57] utilizationCountOverdrawnAfterMission 0
scalar OsgEarthNet.uav[57] utilizationCountIdleState 9
scalar OsgEarthNet.uav[57] utilizationFail 0
scalar OsgEarthNet.uav[57] simulationTime 259200
scalar OsgEarthNet.uav[58] utilizationSecMission 23169.056981654
scalar OsgEarthNet.uav[58] utilizationSecMaintenance 14543.224708951
scalar OsgEarthNet.uav[58] utilizationSecCharge 151810
scalar OsgEarthNet.uav[58] utilizationSecIdle 69677.717309395
scalar OsgEarthNet.uav[58] utilizationEnergyMission 107672.2076416
scalar OsgEarthNet.uav[58] utilizationEnergyMaintenance 68565.802509308
scalar OsgEarthNet.uav[58] utilizationEnergyCharge 176191.17700195
scalar OsgEarthNet.uav[58] utilizationEnergyOverdrawMission 0
scalar OsgEarthNet.uav[58] utilizationEnergyOverdrawMaintenance 0
scalar OsgEarthNet.uav[58] utilizationCountMissions 50
scalar OsgEarthNet.uav[58] utilizationCountManeuversMission 380
scalar OsgEarthNet.uav[58] utilizationCountManeuversMaintenance 100
scalar OsgEarthNet.uav[58] utilizationCountChargeState 50
scalar OsgEarthNet.uav[58] utilizationCountOverdrawnAfterMission 0
scalar OsgEarthNet.uav[58] utilizationCountIdleState 51
scalar OsgEarthNet.uav[58] utilizationFail 0
scalar OsgEarthNet.uav[58] simulationTime 259200
scalar OsgEarthNet.uav[59] utilizationSecMission 25547.775332086
scalar OsgEarthNet.uav[59] utilizationSecMaintenance 11415.379311556
scalar OsgEarthNet.uav[59] utilizationSecCharge 140178.79181785
scalar OsgEarthNet.uav[59] utilizationSecIdle 82058.052538512
scalar OsgEarthNet.uav[59] utilizationEnergyMission 117266.5872612
scalar OsgEarthNet.uav[59] utilizationEnergyMaintenance 54069.729137421
scalar OsgEarthNet.uav[59] utilizationEnergyCharge 170088.15527344
scalar OsgEarthNet.uav[59] utilizationEnergyOverdrawMission 0
scalar OsgEarthNet.uav[59] utilizationEnergyOverdrawMaintenance 0
scalar OsgEarthNet.uav[59] utilizationCountMissions 43
scalar OsgEarthNet.uav[59] utilizationCountManeuversMission 414
scalar OsgEarthNet.uav[59] utilizationCountManeuversMaintenance 86
scalar OsgEarthNet.uav[59] utilizationCountChargeState 43
scalar OsgEarthNet.uav[59] utilizationCountOverdrawnAfterMission 0
scalar OsgEarthNet.uav[59] utilizationCountIdleState 43
scalar OsgEarthNet.uav[59] utilizationFail 0
scalar OsgEarthNet.uav[59] simulationTime 259200
scalar OsgEarthNet.uav[60] utilizationSecMission 760.62515258028
scalar OsgEarthNet.uav[60] utilizationSecMaintenance 245.74410321072
scalar OsgEarthNet.uav[60] utilizationSecCharge 3690
scalar OsgEarthNet.uav[60] utilizationSecIdle 254503.62974421
scalar OsgEarthNet.uav[60] utilizationEnergyMission 3527.8166656494
scalar OsgEarthNet.uav[60] utilizationEnergyMaintenance 1127.8689079285
scalar OsgEarthNet.uav[60] utilizationEnergyCharge 4655.6811523438
scalar OsgEarthNet.uav[60] utilizationEnergyOverdrawMission 0
scalar OsgEarthNet.uav[60] utilizationEnergyOverdrawMaintenance 0
scalar OsgEarthNet.uav[60] utilizationCountMissions 1
scalar OsgEarthNet.uav[60] utilizationCountManeuversMission 12
scalar OsgEarthNet.uav[60] utilizationCountManeuversMaintenance 2
scalar OsgEarthNet.uav[60] utilizationCountChargeState 1
scalar OsgEarthNet.uav[60] utilizationCountOverdrawnAfterMission 0
scalar OsgEarthNet.uav[60] utilizationCountIdleState 2
scalar OsgEarthNet.uav[60] utilizationFail 0
scalar OsgEarthNet.uav[60] simulationTime 259200
scalar OsgEarthNet.uav[61] utilizationSecMission 30567.283227958
scalar OsgEarthNet.uav[61] utilizationSecMaintenance 12585.267342204
scalar OsgEarthNet.uav[61] utilizationSecCharge 164066.48444416
scalar OsgEarthNet.uav[61] utilizationSecIdle 51980.963985674
scalar OsgEarthNet.uav[61] utilizationEnergyMission 141488.81726074
scalar OsgEarthNet.uav[61] utilizationEnergyMaintenance 58360.193454742
scalar OsgEarthNet.uav[61] utilizationEnergyCharge 198130.04248047
scalar OsgEarthNet.uav[61] utilizationEnergyOverdrawMission 0
scalar OsgEarthNet.uav[61] utilizationEnergyOverdrawMaintenance 0
scalar OsgEarthNet.uav[61] utilizationCountMissions 51
scalar OsgEarthNet.uav[61] utilizationCountManeuversMission 504
scalar OsgEarthNet.uav[61] utilizationCountManeuversMaintenance 102
scalar OsgEarthNet.uav[61] utilizationCountChargeState 51
scalar OsgEarthNet.uav[61] utilizationCountOverdrawnAfterMission 0
scalar OsgEarthNet.uav[61] utilizationCountIdleState 51
scalar OsgEarthNet.uav[61] utilizationFail 0
scalar OsgEarthNet.uav[61] simulationTime 259200
scalar OsgEarthNet.uav[62] utilizationSecMission 27567.316754135
scalar OsgEarthNet.uav[62] utilizationSecMaintenance 15831.876025962
scalar OsgEarthNet.uav[62] utilizationSecCharge 168404.77012113
scalar OsgEarthNet.uav[62] utilizationSecIdle 47396.036098769
scalar OsgEarthNet.uav[62] utilizationEnergyMission 126739.33026123
scalar OsgEarthNet.uav[62] utilizationEnergyMaintenance 75659.074214935
scalar OsgEarthNet.uav[62] utilizationEnergyCharge 201924.65307617
scalar OsgEarthNet.uav[62] utilizationEnergyOverdrawMission 0
scalar OsgEarthNet.uav[62] utilizationEnergyOverdrawMaintenance 0
scalar OsgEarthNet.uav[62] utilizationCountMissions 53
scalar OsgEarthNet.uav[62] utilizationCountManeuversMission 449
scalar OsgEarthNet.uav[62] utilizationCountManeuversMaintenance 106
scalar OsgEarthNet.uav[62] utilizationCountChargeState 53
scalar OsgEarthNet.uav[62] utilizationCountOverdrawnAfterMission 0
scalar OsgEarthNet.uav[62] utilizationCountIdleState 53
scalar OsgEarthNet.uav[62] utilizationFail 0
scalar OsgEarthNet.uav[62] simulationTime 259200
scalar OsgEarthNet.uav[63] utilizationSecMission 750.20472747826
scalar OsgEarthNet.uav[63] utilizationSecMaintenance 261.68051383311
scalar OsgEarthNet.uav[63] utilizationSecCharge 3800
scalar OsgEarthNet.uav[63] utilizationSecIdle 254388.11375869
scalar OsgEarthNet.uav[63] utilizationEnergyMission 3559.3147277832
scalar OsgEarthNet.uav[63] utilizationEnergyMaintenance 1322.6801261902
scalar OsgEarthNet.uav[63] utilizationEnergyCharge 4881.9907226562
scalar OsgEarthNet.uav[63] utilizationEnergyOverdrawMission 0
scalar OsgEarthNet.uav[63] utilizationEnergyOverdrawMaintenance 0
scalar OsgEarthNet.uav[63] utilizationCountMissions 1
scalar OsgEarthNet.uav[63] utilizationCountManeuversMission 11
scalar OsgEarthNet.uav[63] utilizationCountManeuversMaintenance 2
scalar OsgEarthNet.uav[63] utilizationCountChargeState 1
scalar OsgEarthNet.uav[63] utilizationCountOverdrawnAfterMission 0
scalar OsgEarthNet.uav[63] utilizationCountIdleState 2
scalar OsgEarthNet.uav[63] utilizationFail 0
scalar OsgEarthNet.uav[63] simulationTime 259200
scalar OsgEarthNet.uav[64] utilizationSecMission 682.94783150361
scalar OsgEarthNet.uav[64] utilizationSecMaintenance 228.1606024445
scalar OsgEarthNet.uav[64] utilizationSecCharge 3430
scalar OsgEarthNet.uav[64] utilizationSecIdle 254858.89056605
scalar OsgEarthNet.uav[64] utilizationEnergyMission 3161.031173706
scalar OsgEarthNet.uav[64] utilizationEnergyMaintenance 1056.6613998413
scalar OsgEarthNet.uav[64] utilizationEnergyCharge 4217.6904296875
scalar OsgEarthNet.uav[64] utilizationEnergyOverdrawMission 0
scalar OsgEarthNet.uav[64] utilizationEnergyOverdrawMaintenance 0
scalar OsgEarthNet.uav[64] utilizationCountMissions 1
scalar OsgEarthNet.uav[64] utilizationCountManeuversMission 12
scalar OsgEarthNet.uav[64] utilizationCountManeuversMaintenance 2
scalar OsgEarthNet.uav[64] utilizationCountChargeState 1
scalar OsgEarthNet.uav[64] utilizationCountOverdrawnAfterMission 0
scalar OsgEarthNet.uav[64] utilizationCountIdleState 2
scalar OsgEarthNet.uav[64] utilizationFail 0
scalar OsgEarthNet.uav[64] simulationTime 259200
scalar OsgEarthNet.uav[65] utilizationSecMission 694.00169469977
scalar OsgEarthNet.uav[65] utilizationSecMaintenance 229.48898285212
scalar OsgEarthNet.uav[65] utilizationSecCharge 3370
scalar OsgEarthNet.uav[65] utilizationSecIdle 254906.50832245
[...]
scalar OsgEarthNet.uav[82] utilizationEnergyMission 67660.737781525
scalar OsgEarthNet.uav[82] utilizationEnergyMaintenance 43308.732555389
scalar OsgEarthNet.uav[82] utilizationEnergyCharge 110770.45556641
scalar OsgEarthNet.uav[82] utilizationEnergyOverdrawMission 0
scalar OsgEarthNet.uav[82] utilizationEnergyOverdrawMaintenance 0
scalar OsgEarthNet.uav[82] utilizationCountMissions 30
scalar OsgEarthNet.uav[82] utilizationCountManeuversMission 232
scalar OsgEarthNet.uav[82] utilizationCountManeuversMaintenance 60
scalar OsgEarthNet.uav[82] utilizationCountChargeState 30
scalar OsgEarthNet.uav[82] utilizationCountOverdrawnAfterMission 0
scalar OsgEarthNet.uav[82] utilizationCountIdleState 30
scalar OsgEarthNet.uav[82] utilizationFail 0
scalar OsgEarthNet.uav[82] simulationTime 259200
scalar OsgEarthNet.uav[83] utilizationSecMission 20810.709260871
scalar OsgEarthNet.uav[83] utilizationSecMaintenance 10644.658272535
scalar OsgEarthNet.uav[83] utilizationSecCharge 122557.0599454
scalar OsgEarthNet.uav[83] utilizationSecIdle 105187.57152119
scalar OsgEarthNet.uav[83] utilizationEnergyMission 96841.141349792
scalar OsgEarthNet.uav[83] utilizationEnergyMaintenance 49597.594814301
scalar OsgEarthNet.uav[83] utilizationEnergyCharge 146618.03613281
scalar OsgEarthNet.uav[83] utilizationEnergyOverdrawMission 0
scalar OsgEarthNet.uav[83] utilizationEnergyOverdrawMaintenance 0
scalar OsgEarthNet.uav[83] utilizationCountMissions 39
scalar OsgEarthNet.uav[83] utilizationCountManeuversMission 336
scalar OsgEarthNet.uav[83] utilizationCountManeuversMaintenance 78
scalar OsgEarthNet.uav[83] utilizationCountChargeState 39
scalar OsgEarthNet.uav[83] utilizationCountOverdrawnAfterMission 0
scalar OsgEarthNet.uav[83] utilizationCountIdleState 39
scalar OsgEarthNet.uav[83] utilizationFail 0
scalar OsgEarthNet.uav[83] simulationTime 259200
scalar OsgEarthNet.uav[84] utilizationSecMission 23405.413625059
scalar OsgEarthNet.uav[84] utilizationSecMaintenance 17009.046167706
scalar OsgEarthNet.uav[84] utilizationSecCharge 163870.8335082
scalar OsgEarthNet.uav[84] utilizationSecIdle 54914.705699036
scalar OsgEarthNet.uav[84] utilizationEnergyMission 108557.4091568
scalar OsgEarthNet.uav[84] utilizationEnergyMaintenance 80118.336315155
scalar OsgEarthNet.uav[84] utilizationEnergyCharge 188801.22924805
scalar OsgEarthNet.uav[84] utilizationEnergyOverdrawMission 0
scalar OsgEarthNet.uav[84] utilizationEnergyOverdrawMaintenance 0
scalar OsgEarthNet.uav[84] utilizationCountMissions 55
scalar OsgEarthNet.uav[84] utilizationCountManeuversMission 387
scalar OsgEarthNet.uav[84] utilizationCountManeuversMaintenance 110
scalar OsgEarthNet.uav[84] utilizationCountChargeState 55
scalar OsgEarthNet.uav[84] utilizationCountOverdrawnAfterMission 0
scalar OsgEarthNet.uav[84] utilizationCountIdleState 55
scalar OsgEarthNet.uav[84] utilizationFail 0
scalar OsgEarthNet.uav[84] simulationTime 259200
scalar OsgEarthNet.uav[85] utilizationSecMission 887.1741082606
scalar OsgEarthNet.uav[85] utilizationSecMaintenance 125.81102573108
scalar OsgEarthNet.uav[85] utilizationSecCharge 3540
scalar OsgEarthNet.uav[85] utilizationSecIdle 254647.01386601
scalar OsgEarthNet.uav[85] utilizationEnergyMission 3973.2625274658
scalar OsgEarthNet.uav[85] utilizationEnergyMaintenance 518.81168365479
scalar OsgEarthNet.uav[85] utilizationEnergyCharge 4384.2983398438
scalar OsgEarthNet.uav[85] utilizationEnergyOverdrawMission 0
scalar OsgEarthNet.uav[85] utilizationEnergyOverdrawMaintenance 0
scalar OsgEarthNet.uav[85] utilizationCountMissions 1
scalar OsgEarthNet.uav[85] utilizationCountManeuversMission 14
scalar OsgEarthNet.uav[85] utilizationCountManeuversMaintenance 2
scalar OsgEarthNet.uav[85] utilizationCountChargeState 1
scalar OsgEarthNet.uav[85] utilizationCountOverdrawnAfterMission 0
scalar OsgEarthNet.uav[85] utilizationCountIdleState 2
scalar OsgEarthNet.uav[85] utilizationFail 0
scalar OsgEarthNet.uav[85] simulationTime 259200
scalar OsgEarthNet.uav[86] utilizationSecMission 25697.69710251
scalar OsgEarthNet.uav[86] utilizationSecMaintenance 13698.180105399
scalar OsgEarthNet.uav[86] utilizationSecCharge 154782.51802742
scalar OsgEarthNet.uav[86] utilizationSecIdle 65021.603764671
scalar OsgEarthNet.uav[86] utilizationEnergyMission 118680.17717743
scalar OsgEarthNet.uav[86] utilizationEnergyMaintenance 64452.056835175
scalar OsgEarthNet.uav[86] utilizationEnergyCharge 183334.56933594
scalar OsgEarthNet.uav[86] utilizationEnergyOverdrawMission 0
scalar OsgEarthNet.uav[86] utilizationEnergyOverdrawMaintenance 0
scalar OsgEarthNet.uav[86] utilizationCountMissions 50
scalar OsgEarthNet.uav[86] utilizationCountManeuversMission 414
scalar OsgEarthNet.uav[86] utilizationCountManeuversMaintenance 100
scalar OsgEarthNet.uav[86] utilizationCountChargeState 50
scalar OsgEarthNet.uav[86] utilizationCountOverdrawnAfterMission 0
scalar OsgEarthNet.uav[86] utilizationCountIdleState 50
scalar OsgEarthNet.uav[86] utilizationFail 0
scalar OsgEarthNet.uav[86] simulationTime 259200
scalar OsgEarthNet.uav[87] utilizationSecMission 23.329233930829
scalar OsgEarthNet.uav[87] utilizationSecMaintenance 476.50021886036
scalar OsgEarthNet.uav[87] utilizationSecCharge 2310
scalar OsgEarthNet.uav[87] utilizationSecIdle 256390.16954721
scalar OsgEarthNet.uav[87] utilizationEnergyMission 104.20716094971
scalar OsgEarthNet.uav[87] utilizationEnergyMaintenance 2137.751701355
scalar OsgEarthNet.uav[87] utilizationEnergyCharge 2241.9577636719
scalar OsgEarthNet.uav[87] utilizationEnergyOverdrawMission 0
scalar OsgEarthNet.uav[87] utilizationEnergyOverdrawMaintenance 0
scalar OsgEarthNet.uav[87] utilizationCountMissions 1
scalar OsgEarthNet.uav[87] utilizationCountManeuversMission 1
scalar OsgEarthNet.uav[87] utilizationCountManeuversMaintenance 2
scalar OsgEarthNet.uav[87] utilizationCountChargeState 1
scalar OsgEarthNet.uav[87] utilizationCountOverdrawnAfterMission 0
scalar OsgEarthNet.uav[87] utilizationCountIdleState 2
scalar OsgEarthNet.uav[87] utilizationFail 0
scalar OsgEarthNet.uav[87] simulationTime 259200
scalar OsgEarthNet.uav[88] utilizationSecMission 11873.738188063
scalar OsgEarthNet.uav[88] utilizationSecMaintenance 4985.009005073
scalar OsgEarthNet.uav[88] utilizationSecCharge 61283.568820612
scalar OsgEarthNet.uav[88] utilizationSecIdle 181057.68298625
scalar OsgEarthNet.uav[88] utilizationEnergyMission 55327.078704834
scalar OsgEarthNet.uav[88] utilizationEnergyMaintenance 23471.451660156
scalar OsgEarthNet.uav[88] utilizationEnergyCharge 75364.400756836
scalar OsgEarthNet.uav[88] utilizationEnergyOverdrawMission 0
scalar OsgEarthNet.uav[88] utilizationEnergyOverdrawMaintenance 0
scalar OsgEarthNet.uav[88] utilizationCountMissions 19
scalar OsgEarthNet.uav[88] utilizationCountManeuversMission 182
scalar OsgEarthNet.uav[88] utilizationCountManeuversMaintenance 38
scalar OsgEarthNet.uav[88] utilizationCountChargeState 19
scalar OsgEarthNet.uav[88] utilizationCountOverdrawnAfterMission 0
scalar OsgEarthNet.uav[88] utilizationCountIdleState 19
scalar OsgEarthNet.uav[88] utilizationFail 0
scalar OsgEarthNet.uav[88] simulationTime 259200
scalar OsgEarthNet.uav[89] utilizationSecMission 443.5870541303
scalar OsgEarthNet.uav[89] utilizationSecMaintenance 425.80795651079
scalar OsgEarthNet.uav[89] utilizationSecCharge 3300
scalar OsgEarthNet.uav[89] utilizationSecIdle 255030.60398936
scalar OsgEarthNet.uav[89] utilizationEnergyMission 2223.3299713135
scalar OsgEarthNet.uav[89] utilizationEnergyMaintenance 1963.4303398132
scalar OsgEarthNet.uav[89] utilizationEnergyCharge 4015.7338867188
scalar OsgEarthNet.uav[89] utilizationEnergyOverdrawMission 0
scalar OsgEarthNet.uav[89] utilizationEnergyOverdrawMaintenance 0
scalar OsgEarthNet.uav[89] utilizationCountMissions 1
scalar OsgEarthNet.uav[89] utilizationCountManeuversMission 7
scalar OsgEarthNet.uav[89] utilizationCountManeuversMaintenance 2
scalar OsgEarthNet.uav[89] utilizationCountChargeState 1
scalar OsgEarthNet.uav[89] utilizationCountOverdrawnAfterMission 0
scalar OsgEarthNet.uav[89] utilizationCountIdleState 2
scalar OsgEarthNet.uav[89] utilizationFail 0
scalar OsgEarthNet.uav[89] simulationTime 259200
scalar OsgEarthNet.uav[90] utilizationSecMission 15792.8444772
scalar OsgEarthNet.uav[90] utilizationSecMaintenance 6771.5828563615
scalar OsgEarthNet.uav[90] utilizationSecCharge 87870
scalar OsgEarthNet.uav[90] utilizationSecIdle 148765.57166644
scalar OsgEarthNet.uav[90] utilizationEnergyMission 72413.268341064
scalar OsgEarthNet.uav[90] utilizationEnergyMaintenance 31415.362415314
scalar OsgEarthNet.uav[90] utilizationEnergyCharge 103857.38623047
scalar OsgEarthNet.uav[90] utilizationEnergyOverdrawMission 0
scalar OsgEarthNet.uav[90] utilizationEnergyOverdrawMaintenance 0
scalar OsgEarthNet.uav[90] utilizationCountMissions 28
scalar OsgEarthNet.uav[90] utilizationCountManeuversMission 257
scalar OsgEarthNet.uav[90] utilizationCountManeuversMaintenance 56
scalar OsgEarthNet.uav[90] utilizationCountChargeState 28
scalar OsgEarthNet.uav[90] utilizationCountOverdrawnAfterMission 0
scalar OsgEarthNet.uav[90] utilizationCountIdleState 29
scalar OsgEarthNet.uav[90] utilizationFail 0
scalar OsgEarthNet.uav[90] simulationTime 259200
scalar OsgEarthNet.uav[91] utilizationSecMission 799.88740060978
scalar OsgEarthNet.uav[91] utilizationSecMaintenance 599.79051747255
scalar OsgEarthNet.uav[91] utilizationSecCharge 5660
scalar OsgEarthNet.uav[91] utilizationSecIdle 252140.32108192
scalar OsgEarthNet.uav[91] utilizationEnergyMission 3544.5944213867
scalar OsgEarthNet.uav[91] utilizationEnergyMaintenance 2728.0901222229
scalar OsgEarthNet.uav[91] utilizationEnergyCharge 6272.6809082031
scalar OsgEarthNet.uav[91] utilizationEnergyOverdrawMission 0
scalar OsgEarthNet.uav[91] utilizationEnergyOverdrawMaintenance 0
scalar OsgEarthNet.uav[91] utilizationCountMissions 2
scalar OsgEarthNet.uav[91] utilizationCountManeuversMission 15
scalar OsgEarthNet.uav[91] utilizationCountManeuversMaintenance 4
scalar OsgEarthNet.uav[91] utilizationCountChargeState 2
scalar OsgEarthNet.uav[91] utilizationCountOverdrawnAfterMission 0
scalar OsgEarthNet.uav[91] utilizationCountIdleState 3
scalar OsgEarthNet.uav[91] utilizationFail 0
scalar OsgEarthNet.uav[91] simulationTime 259200
scalar OsgEarthNet.uav[92] utilizationSecMission 28545.366654288
scalar OsgEarthNet.uav[92] utilizationSecMaintenance 13647.753132228
scalar OsgEarthNet.uav[92] utilizationSecCharge 162662.7845497
scalar OsgEarthNet.uav[92] utilizationSecIdle 54344.094663781
scalar OsgEarthNet.uav[92] utilizationEnergyMission 130961.78462982
scalar OsgEarthNet.uav[92] utilizationEnergyMaintenance 64174.879299164
scalar OsgEarthNet.uav[92] utilizationEnergyCharge 194915.4934082
scalar OsgEarthNet.uav[92] utilizationEnergyOverdrawMission 0
scalar OsgEarthNet.uav[92] utilizationEnergyOverdrawMaintenance 0
scalar OsgEarthNet.uav[92] utilizationCountMissions 51
scalar OsgEarthNet.uav[92] utilizationCountManeuversMission 455
scalar OsgEarthNet.uav[92] utilizationCountManeuversMaintenance 102
scalar OsgEarthNet.uav[92] utilizationCountChargeState 51
scalar OsgEarthNet.uav[92] utilizationCountOverdrawnAfterMission 0
scalar OsgEarthNet.uav[92] utilizationCountIdleState 51
scalar OsgEarthNet.uav[92] utilizationFail 0
scalar OsgEarthNet.uav[92] simulationTime 259200
scalar OsgEarthNet.uav[93] utilizationSecMission 19686.79358056
scalar OsgEarthNet.uav[93] utilizationSecMaintenance 10284.526723517
scalar OsgEarthNet.uav[93] utilizationSecCharge 115050
scalar OsgEarthNet.uav[93] utilizationSecIdle 114178.67869592
scalar OsgEarthNet.uav[93] utilizationEnergyMission 90306.331391007
scalar OsgEarthNet.uav[93] utilizationEnergyMaintenance 48501.513496399
scalar OsgEarthNet.uav[93] utilizationEnergyCharge 135243.31958008
scalar OsgEarthNet.uav[93] utilizationEnergyOverdrawMission 0
scalar OsgEarthNet.uav[93] utilizationEnergyOverdrawMaintenance 0
scalar OsgEarthNet.uav[93] utilizationCountMissions 37
scalar OsgEarthNet.uav[93] utilizationCountManeuversMission 314
scalar OsgEarthNet.uav[93] utilizationCountManeuversMaintenance 75
scalar OsgEarthNet.uav[93] utilizationCountChargeState 37
scalar OsgEarthNet.uav[93] utilizationCountOverdrawnAfterMission 0
scalar OsgEarthNet.uav[93] utilizationCountIdleState 38
scalar OsgEarthNet.uav[93] utilizationFail 0
scalar OsgEarthNet.uav[93] simulationTime 259200
scalar OsgEarthNet.uav[94] utilizationSecMission 8214.2847917752
scalar OsgEarthNet.uav[94] utilizationSecMaintenance 4662.5061391136
scalar OsgEarthNet.uav[94] utilizationSecCharge 50500
scalar OsgEarthNet.uav[94] utilizationSecIdle 195823.20806911
scalar OsgEarthNet.uav[94] utilizationEnergyMission 37842.381233215
scalar OsgEarthNet.uav[94] utilizationEnergyMaintenance 21884.293209076
scalar OsgEarthNet.uav[94] utilizationEnergyCharge 59729.862548828
scalar OsgEarthNet.uav[94] utilizationEnergyOverdrawMission 0
scalar OsgEarthNet.uav[94] utilizationEnergyOverdrawMaintenance 0
scalar OsgEarthNet.uav[94] utilizationCountMissions 16
scalar OsgEarthNet.uav[94] utilizationCountManeuversMission 142
scalar OsgEarthNet.uav[94] utilizationCountManeuversMaintenance 32
scalar OsgEarthNet.uav[94] utilizationCountChargeState 16
scalar OsgEarthNet.uav[94] utilizationCountOverdrawnAfterMission 0
scalar OsgEarthNet.uav[94] utilizationCountIdleState 17
scalar OsgEarthNet.uav[94] utilizationFail 0
scalar OsgEarthNet.uav[94] simulationTime 259200
scalar OsgEarthNet.uav[95] utilizationSecMission 22806.753153773
scalar OsgEarthNet.uav[95] utilizationSecMaintenance 11745.910168594
scalar OsgEarthNet.uav[95] utilizationSecCharge 134720.26990193
scalar OsgEarthNet.uav[95] utilizationSecIdle 89927.065775698
scalar OsgEarthNet.uav[95] utilizationEnergyMission 107089.90031433
scalar OsgEarthNet.uav[95] utilizationEnergyMaintenance 54902.073310852
scalar OsgEarthNet.uav[95] utilizationEnergyCharge 161116.21801758
scalar OsgEarthNet.uav[95] utilizationEnergyOverdrawMission 0
scalar OsgEarthNet.uav[95] utilizationEnergyOverdrawMaintenance 0
scalar OsgEarthNet.uav[95] utilizationCountMissions 42
scalar OsgEarthNet.uav[95] utilizationCountManeuversMission 372
scalar OsgEarthNet.uav[95] utilizationCountManeuversMaintenance 84
scalar OsgEarthNet.uav[95] utilizationCountChargeState 42
scalar OsgEarthNet.uav[95] utilizationCountOverdrawnAfterMission 0
scalar OsgEarthNet.uav[95] utilizationCountIdleState 42
scalar OsgEarthNet.uav[95] utilizationFail 0
scalar OsgEarthNet.uav[95] simulationTime 259200
scalar OsgEarthNet.uav[96] utilizationSecMission 5709.221210942
scalar OsgEarthNet.uav[96] utilizationSecMaintenance 3275.104215512
scalar OsgEarthNet.uav[96] utilizationSecCharge 34100
scalar OsgEarthNet.uav[96] utilizationSecIdle 216115.67357355
scalar OsgEarthNet.uav[96] utilizationEnergyMission 26293.9659729
scalar OsgEarthNet.uav[96] utilizationEnergyMaintenance 15586.012336731
scalar OsgEarthNet.uav[96] utilizationEnergyCharge 41942.025634766
scalar OsgEarthNet.uav[96] utilizationEnergyOverdrawMission 0
scalar OsgEarthNet.uav[96] utilizationEnergyOverdrawMaintenance 0
scalar OsgEarthNet.uav[96] utilizationCountMissions 10
scalar OsgEarthNet.uav[96] utilizationCountManeuversMission 87
scalar OsgEarthNet.uav[96] utilizationCountManeuversMaintenance 20
scalar OsgEarthNet.uav[96] utilizationCountChargeState 10
scalar OsgEarthNet.uav[96] utilizationCountOverdrawnAfterMission 0
scalar OsgEarthNet.uav[96] utilizationCountIdleState 11
scalar OsgEarthNet.uav[96] utilizationFail 0
scalar OsgEarthNet.uav[96] simulationTime 259200
scalar OsgEarthNet.uav[97] utilizationSecMission 19118.167108414
scalar OsgEarthNet.uav[97] utilizationSecMaintenance 12745.110933486
scalar OsgEarthNet.uav[97] utilizationSecCharge 125885.43479101
scalar OsgEarthNet.uav[97] utilizationSecIdle 101451.28616709
scalar OsgEarthNet.uav[97] utilizationEnergyMission 87974.874687195
scalar OsgEarthNet.uav[97] utilizationEnergyMaintenance 59587.063491821
scalar OsgEarthNet.uav[97] utilizationEnergyCharge 147227.70336914
scalar OsgEarthNet.uav[97] utilizationEnergyOverdrawMission 0
scalar OsgEarthNet.uav[97] utilizationEnergyOverdrawMaintenance 0
scalar OsgEarthNet.uav[97] utilizationCountMissions 41
scalar OsgEarthNet.uav[97] utilizationCountManeuversMission 323
scalar OsgEarthNet.uav[97] utilizationCountManeuversMaintenance 82
scalar OsgEarthNet.uav[97] utilizationCountChargeState 41
scalar OsgEarthNet.uav[97] utilizationCountOverdrawnAfterMission 0
scalar OsgEarthNet.uav[97] utilizationCountIdleState 41
scalar OsgEarthNet.uav[97] utilizationFail 0
scalar OsgEarthNet.uav[97] simulationTime 259200
scalar OsgEarthNet.uav[98] utilizationSecMission 25581.785124451
scalar OsgEarthNet.uav[98] utilizationSecMaintenance 14506.257125313
scalar OsgEarthNet.uav[98] utilizationSecCharge 160720
scalar OsgEarthNet.uav[98] utilizationSecIdle 58391.956750235
scalar OsgEarthNet.uav[98] utilizationEnergyMission 119794.98084259
scalar OsgEarthNet.uav[98] utilizationEnergyMaintenance 70119.146270752
scalar OsgEarthNet.uav[98] utilizationEnergyCharge 188936.21630859
scalar OsgEarthNet.uav[98] utilizationEnergyOverdrawMission 0
scalar OsgEarthNet.uav[98] utilizationEnergyOverdrawMaintenance 0
scalar OsgEarthNet.uav[98] utilizationCountMissions 52
scalar OsgEarthNet.uav[98] utilizationCountManeuversMission 423
scalar OsgEarthNet.uav[98] utilizationCountManeuversMaintenance 104
scalar OsgEarthNet.uav[98] utilizationCountChargeState 52
scalar OsgEarthNet.uav[98] utilizationCountOverdrawnAfterMission 0
scalar OsgEarthNet.uav[98] utilizationCountIdleState 52
scalar OsgEarthNet.uav[98] utilizationFail 0
scalar OsgEarthNet.uav[98] simulationTime 259200
scalar OsgEarthNet.uav[99] utilizationSecMission 8620.8371079216
scalar OsgEarthNet.uav[99] utilizationSecMaintenance 7853.0982575541
scalar OsgEarthNet.uav[99] utilizationSecCharge 66130
scalar OsgEarthNet.uav[99] utilizationSecIdle 176596.06363452
scalar OsgEarthNet.uav[99] utilizationEnergyMission 39205.583740234
scalar OsgEarthNet.uav[99] utilizationEnergyMaintenance 37592.808105469
scalar OsgEarthNet.uav[99] utilizationEnergyCharge 76519.409912109
scalar OsgEarthNet.uav[99] utilizationEnergyOverdrawMission 0
scalar OsgEarthNet.uav[99] utilizationEnergyOverdrawMaintenance 0
scalar OsgEarthNet.uav[99] utilizationCountMissions 22
scalar OsgEarthNet.uav[99] utilizationCountManeuversMission 138
scalar OsgEarthNet.uav[99] utilizationCountManeuversMaintenance 44
scalar OsgEarthNet.uav[99] utilizationCountChargeState 22
scalar OsgEarthNet.uav[99] utilizationCountOverdrawnAfterMission 0
scalar OsgEarthNet.uav[99] utilizationCountIdleState 23
scalar OsgEarthNet.uav[99] utilizationFail 0
scalar OsgEarthNet.uav[99] simulationTime 259200
scalar OsgEarthNet.cs[0] usedPower 383333.28342233
scalar OsgEarthNet.cs[0] chargedPower 383333.28342233
scalar OsgEarthNet.cs[0] chargedMobileNodes 149
scalar OsgEarthNet.cs[0] reservations 150
scalar OsgEarthNet.cs[1] usedPower 884640.09855694
scalar OsgEarthNet.cs[1] chargedPower 884640.09855694
scalar OsgEarthNet.cs[1] chargedMobileNodes 322
scalar OsgEarthNet.cs[1] reservations 327
scalar OsgEarthNet.cs[2] usedPower 3549389.0336235
scalar OsgEarthNet.cs[2] chargedPower 3549389.0336235
scalar OsgEarthNet.cs[2] chargedMobileNodes 938
scalar OsgEarthNet.cs[2] reservations 949
scalar OsgEarthNet.cs[3] usedPower 0
scalar OsgEarthNet.cs[3] chargedPower 0
scalar OsgEarthNet.cs[3] chargedMobileNodes 0
scalar OsgEarthNet.cs[3] reservations 0
scalar OsgEarthNet.cs[4] usedPower 986169.96450912
scalar OsgEarthNet.cs[4] chargedPower 986169.96450912
scalar OsgEarthNet.cs[4] chargedMobileNodes 226
scalar OsgEarthNet.cs[4] reservations 230
scalar OsgEarthNet.cs[5] usedPower 1550502.8789623
scalar OsgEarthNet.cs[5] chargedPower 1550502.8789623
scalar OsgEarthNet.cs[5] chargedMobileNodes 363
scalar OsgEarthNet.cs[5] reservations 369
scalar OsgEarthNet.cs[6] usedPower 1469839.8351936
scalar OsgEarthNet.cs[6] chargedPower 1469839.8351936
scalar OsgEarthNet.cs[6] chargedMobileNodes 370
scalar OsgEarthNet.cs[6] reservations 375

