version 2
run Szenario_Hotel_Gabelbach-29-20180709-19:24:40-5092
attr configname Szenario_Hotel_Gabelbach
attr datetime 20180709-19:24:40
attr experiment Szenario_Hotel_Gabelbach
attr inifile omnetpp.ini
attr iterationvars "$replM=2, $biWeight=0.8"
attr iterationvarsf replM=2,biWeight=0.8-
attr measurement "$replM=2, $biWeight=0.8"
attr network OsgEarthNet
attr processid 5092
attr repetition 5
attr replication #5
attr resultdir results
attr runnumber 29
attr seedset 29
itervar biWeight 0.8
itervar replM 2
param *.osgEarthScene.scene "\"Szenario_Hotel_Gabelbach.earth\""
param *.playgroundLatitude 50.6830269
param *.playgroundLongitude 10.8538055
param *.playgroundWidth 3500m
param *.playgroundHeight 3500m
param *.numUAVs 100
param *.cs[0].posX 3537m
param *.cs[0].posY 965m
param *.cs[0].posZ 538m
param *.cs[1].posX 312m
param *.cs[1].posY 1262m
param *.cs[1].posZ 539m
param *.cs[2].posX 2185m
param *.cs[2].posY 3026m
param *.cs[2].posZ 777m
param *.cs[3].posX 10m
param *.cs[3].posY 2200m
param *.cs[3].posZ 560m
param *.cs[4].posX 750m
param *.cs[4].posY 200m
param *.cs[4].posZ 540m
param *.cs[5].posX 2450m
param *.cs[5].posY 180m
param *.cs[5].posZ 524m
param *.cs[6].posX 3140m
param *.cs[6].posY 1790m
param *.cs[6].posZ 606m
param *.numCSs 7
param *.uav[*].replacementMethod 2
param *.uav[*].weightedSumWeight 0.8
param *.*.timeStep 10s
param *.uav[*].commandPreviewCommandCount 20
param *.missionControl.missionFiles "\"missions\\\\Szenario_WB_Hotel_Gabelbach_Mission_Hotel.waypoints,missions\\\\Szenario_WB_Hotel_Gabelbach_Mission_Kickelhahn.waypoints,missions\\\\Szenario_WB_Hotel_Gabelbach_Mission_Ilmenau_Sportplatz.waypoints,missions\\\\Szenario_WB_Hotel_Gabelbach_Mission_Manebach_Mitte.waypoints,missions\\\\Szenario_WB_Hotel_Gabelbach_Mission_Manebach_Sued.waypoints\""
param *.missionControl.missionFiles "\"missions\\\\Szenario_WB_Hotel_Gabelbach_Mission_Hotel.waypoints,missions\\\\Szenario_WB_Hotel_Gabelbach_Mission_Kickelhahn.waypoints,missions\\\\Szenario_WB_Hotel_Gabelbach_Mission_Ilmenau_Sportplatz.waypoints,missions\\\\Szenario_WB_Hotel_Gabelbach_Mission_Manebach_Mitte.waypoints,missions\\\\Szenario_WB_Hotel_Gabelbach_Mission_Manebach_Sued.waypoints,missions\\\\Szenario_WB_Hotel_Gabelbach_Hover_HoheSchlaufe.waypoints,missions\\\\Szenario_WB_Hotel_Gabelbach_Hover_Kickelhahn.waypoints,missions\\\\Szenario_WB_Hotel_Gabelbach_Hover_Gabelbachskopf.waypoints,missions\\\\Szenario_WB_Hotel_Gabelbach_Hover_Dachskopf.waypoints\""
param *.uav[0].startX 3537m
param *.uav[0].startY 965m
param *.uav[0].startZ 539m
param *.uav[1].startX 312m
param *.uav[1].startY 1262m
param *.uav[1].startZ 540m
param *.uav[2].startX 2185m
param *.uav[2].startY 3026m
param *.uav[2].startZ 778m
param *.uav[3].startX 3537m
param *.uav[3].startY 965m
param *.uav[3].startZ 539m
param *.uav[4].startX 312m
param *.uav[4].startY 1262m
param *.uav[4].startZ 540m
param *.uav[5].startX 2185m
param *.uav[5].startY 3026m
param *.uav[5].startZ 778m
param *.uav[6].startX 3537m
param *.uav[6].startY 965m
param *.uav[6].startZ 539m
param *.uav[7].startX 312m
param *.uav[7].startY 1262m
param *.uav[7].startZ 540m
param *.uav[8].startX 2185m
param *.uav[8].startY 3026m
param *.uav[8].startZ 778m
param *.uav[9].startX 3537m
param *.uav[9].startY 965m
param *.uav[9].startZ 539m
param *.uav[10].startX 3537m
param *.uav[10].startY 965m
param *.uav[10].startZ 539m
param *.uav[11].startX 312m
param *.uav[11].startY 1262m
param *.uav[11].startZ 540m
param *.uav[12].startX 2185m
param *.uav[12].startY 3026m
param *.uav[12].startZ 778m
param *.uav[13].startX 3537m
param *.uav[13].startY 965m
param *.uav[13].startZ 539m
param *.uav[14].startX 312m
param *.uav[14].startY 1262m
param *.uav[14].startZ 540m
param *.uav[15].startX 2185m
param *.uav[15].startY 3026m
param *.uav[15].startZ 778m
param *.uav[16].startX 3537m
param *.uav[16].startY 965m
param *.uav[16].startZ 539m
param *.uav[17].startX 312m
param *.uav[17].startY 1262m
param *.uav[17].startZ 540m
param *.uav[18].startX 2185m
param *.uav[18].startY 3026m
param *.uav[18].startZ 778m
param *.uav[19].startX 3537m
param *.uav[19].startY 965m
param *.uav[19].startZ 539m
param *.uav[20].startX 3537m
param *.uav[20].startY 965m
param *.uav[20].startZ 539m
param *.uav[21].startX 312m
param *.uav[21].startY 1262m
param *.uav[21].startZ 540m
param *.uav[22].startX 2185m
param *.uav[22].startY 3026m
param *.uav[22].startZ 778m
param *.uav[23].startX 3537m
param *.uav[23].startY 965m
param *.uav[23].startZ 539m
param *.uav[24].startX 312m
param *.uav[24].startY 1262m
param *.uav[24].startZ 540m
param *.uav[25].startX 2185m
param *.uav[25].startY 3026m
param *.uav[25].startZ 778m
param *.uav[26].startX 3537m
param *.uav[26].startY 965m
param *.uav[26].startZ 539m
param *.uav[27].startX 312m
param *.uav[27].startY 1262m
param *.uav[27].startZ 540m
param *.uav[28].startX 2185m
param *.uav[28].startY 3026m
param *.uav[28].startZ 778m
param *.uav[29].startX 3537m
param *.uav[29].startY 965m
param *.uav[29].startZ 539m
param *.uav[30].startX 3537m
param *.uav[30].startY 965m
param *.uav[30].startZ 539m
param *.uav[31].startX 312m
param *.uav[31].startY 1262m
param *.uav[31].startZ 540m
param *.uav[32].startX 2185m
param *.uav[32].startY 3026m
param *.uav[32].startZ 778m
param *.uav[33].startX 3537m
param *.uav[33].startY 965m
param *.uav[33].startZ 539m
param *.uav[34].startX 312m
param *.uav[34].startY 1262m
param *.uav[34].startZ 540m
param *.uav[35].startX 2185m
param *.uav[35].startY 3026m
param *.uav[35].startZ 778m
param *.uav[36].startX 3537m
param *.uav[36].startY 965m
param *.uav[36].startZ 539m
param *.uav[37].startX 312m
param *.uav[37].startY 1262m
param *.uav[37].startZ 540m
param *.uav[38].startX 2185m
param *.uav[38].startY 3026m
param *.uav[38].startZ 778m
param *.uav[39].startX 3537m
param *.uav[39].startY 965m
param *.uav[39].startZ 539m
param *.uav[40].startX 3537m
param *.uav[40].startY 965m
param *.uav[40].startZ 539m
param *.uav[41].startX 312m
param *.uav[41].startY 1262m
param *.uav[41].startZ 540m
param *.uav[42].startX 2185m
param *.uav[42].startY 3026m
param *.uav[42].startZ 778m
param *.uav[43].startX 3537m
param *.uav[43].startY 965m
param *.uav[43].startZ 539m
param *.uav[44].startX 312m
param *.uav[44].startY 1262m
param *.uav[44].startZ 540m
param *.uav[45].startX 2185m
param *.uav[45].startY 3026m
param *.uav[45].startZ 778m
param *.uav[46].startX 3537m
param *.uav[46].startY 965m
param *.uav[46].startZ 539m
param *.uav[47].startX 312m
param *.uav[47].startY 1262m
param *.uav[47].startZ 540m
param *.uav[48].startX 2185m
param *.uav[48].startY 3026m
param *.uav[48].startZ 778m
param *.uav[49].startX 3537m
param *.uav[49].startY 965m
param *.uav[49].startZ 539m
param *.uav[50].startX 3537m
param *.uav[50].startY 965m
param *.uav[50].startZ 539m
param *.uav[51].startX 312m
param *.uav[51].startY 1262m
param *.uav[51].startZ 540m
param *.uav[52].startX 2185m
param *.uav[52].startY 3026m
param *.uav[52].startZ 778m
param *.uav[53].startX 3537m
param *.uav[53].startY 965m
param *.uav[53].startZ 539m
param *.uav[54].startX 312m
param *.uav[54].startY 1262m
param *.uav[54].startZ 540m
param *.uav[55].startX 2185m
param *.uav[55].startY 3026m
param *.uav[55].startZ 778m
param *.uav[56].startX 3537m
param *.uav[56].startY 965m
param *.uav[56].startZ 539m
param *.uav[57].startX 312m
param *.uav[57].startY 1262m
param *.uav[57].startZ 540m
param *.uav[58].startX 2185m
param *.uav[58].startY 3026m
param *.uav[58].startZ 778m
param *.uav[59].startX 3537m
param *.uav[59].startY 965m
param *.uav[59].startZ 539m
param *.uav[60].startX 3537m
param *.uav[60].startY 965m
param *.uav[60].startZ 539m
param *.uav[61].startX 312m
param *.uav[61].startY 1262m
param *.uav[61].startZ 540m
param *.uav[62].startX 2185m
param *.uav[62].startY 3026m
param *.uav[62].startZ 778m
param *.uav[63].startX 3537m
param *.uav[63].startY 965m
param *.uav[63].startZ 539m
param *.uav[64].startX 312m
param *.uav[64].startY 1262m
param *.uav[64].startZ 540m
param *.uav[65].startX 2185m
param *.uav[65].startY 3026m
param *.uav[65].startZ 778m
param *.uav[66].startX 3537m
param *.uav[66].startY 965m
param *.uav[66].startZ 539m
param *.uav[67].startX 312m
param *.uav[67].startY 1262m
param *.uav[67].startZ 540m
param *.uav[68].startX 2185m
param *.uav[68].startY 3026m
param *.uav[68].startZ 778m
param *.uav[69].startX 3537m
param *.uav[69].startY 965m
param *.uav[69].startZ 539m
param *.uav[70].startX 3537m
param *.uav[70].startY 965m
param *.uav[70].startZ 539m
param *.uav[71].startX 312m
param *.uav[71].startY 1262m
param *.uav[71].startZ 540m
param *.uav[72].startX 2185m
param *.uav[72].startY 3026m
param *.uav[72].startZ 778m
param *.uav[73].startX 3537m
param *.uav[73].startY 965m
param *.uav[73].startZ 539m
param *.uav[74].startX 312m
param *.uav[74].startY 1262m
param *.uav[74].startZ 540m
param *.uav[75].startX 2185m
param *.uav[75].startY 3026m
param *.uav[75].startZ 778m
param *.uav[76].startX 3537m
param *.uav[76].startY 965m
param *.uav[76].startZ 539m
param *.uav[77].startX 312m
param *.uav[77].startY 1262m
param *.uav[77].startZ 540m
param *.uav[78].startX 2185m
param *.uav[78].startY 3026m
param *.uav[78].startZ 778m
param *.uav[79].startX 3537m
param *.uav[79].startY 965m
param *.uav[79].startZ 539m
param *.uav[80].startX 3537m
param *.uav[80].startY 965m
param *.uav[80].startZ 539m
param *.uav[81].startX 312m
param *.uav[81].startY 1262m
param *.uav[81].startZ 540m
param *.uav[82].startX 2185m
param *.uav[82].startY 3026m
param *.uav[82].startZ 778m
param *.uav[83].startX 3537m
param *.uav[83].startY 965m
param *.uav[83].startZ 539m
param *.uav[84].startX 312m
param *.uav[84].startY 1262m
param *.uav[84].startZ 540m
param *.uav[85].startX 2185m
param *.uav[85].startY 3026m
param *.uav[85].startZ 778m
param *.uav[86].startX 3537m
param *.uav[86].startY 965m
param *.uav[86].startZ 539m
param *.uav[87].startX 312m
param *.uav[87].startY 1262m
param *.uav[87].startZ 540m
param *.uav[88].startX 2185m
param *.uav[88].startY 3026m
param *.uav[88].startZ 778m
param *.uav[89].startX 3537m
param *.uav[89].startY 965m
param *.uav[89].startZ 539m
param *.uav[90].startX 3537m
param *.uav[90].startY 965m
param *.uav[90].startZ 539m
param *.uav[91].startX 312m
param *.uav[91].startY 1262m
param *.uav[91].startZ 540m
param *.uav[92].startX 2185m
param *.uav[92].startY 3026m
param *.uav[92].startZ 778m
param *.uav[93].startX 3537m
param *.uav[93].startY 965m
param *.uav[93].startZ 539m
param *.uav[94].startX 312m
param *.uav[94].startY 1262m
param *.uav[94].startZ 540m
param *.uav[95].startX 2185m
param *.uav[95].startY 3026m
param *.uav[95].startZ 778m
param *.uav[96].startX 3537m
param *.uav[96].startY 965m
param *.uav[96].startZ 539m
param *.uav[97].startX 312m
param *.uav[97].startY 1262m
param *.uav[97].startZ 540m
param *.uav[98].startX 2185m
param *.uav[98].startY 3026m
param *.uav[98].startZ 778m
param *.uav[99].startX 3537m
param *.uav[99].startY 965m
param *.uav[99].startZ 539m
param *.osgEarthScene.scene "\"boston.earth\""
param *.playgroundLatitude 42.3558
param *.playgroundLongitude -71.0677
param *.playgroundWidth 400m
param *.playgroundHeight 200m
param *.channelController.connectionColor "\"#0000FF40\""
param *.channelController.showConnections false
param *.uav[*].modelURL "\"quadrocopter.small.obj.15.scale.0,0,90.rot\""
param *.uav[*].labelColor "\"#FF7C00CC\""
param *.uav[*].label2Color "\"#FF7C00EE\""
param *.uav[*].batteryCapacity 5200mAh
param *.uav[*].batteryRemaining uav[index].batteryCapacity
param *.uav[*].predictionQuantile 0.95
param *.uav[*].replacementMethod 2
param *.uav[*].weightedSumWeight 0.5
param *.cs[*].modelURL "\"chargingstation_v1.osgt.2.scale.0,0,0.rot.0,0,-15e-1.trans\""
param *.cs[*].spotsWaiting 999
param *.cs[*].spotsCharging 999
param *.cs[*].chargeEffectivenessPercentage 100
param *.cs[*].nonLinearPhaseStartPercentage 85
param *.cs[*].chargeCurrent 6.0A
param *.cs[*].prioritizeFastCharge true
param *.missionControl.replacementSearchMethod 0
param *.*.timeStep 9s

scalar OsgEarthNet.uav[0] utilizationSecMission 750.20472747826
scalar OsgEarthNet.uav[0] utilizationSecMaintenance 261.68051383311
scalar OsgEarthNet.uav[0] utilizationSecCharge 3770
scalar OsgEarthNet.uav[0] utilizationSecIdle 254418.11375869
scalar OsgEarthNet.uav[0] utilizationEnergyMission 3435.9790496826
scalar OsgEarthNet.uav[0] utilizationEnergyMaintenance 1326.2099723816
scalar OsgEarthNet.uav[0] utilizationEnergyCharge 4762.1875
scalar OsgEarthNet.uav[0] utilizationEnergyOverdrawMission 0
scalar OsgEarthNet.uav[0] utilizationEnergyOverdrawMaintenance 0
scalar OsgEarthNet.uav[0] utilizationCountMissions 1
scalar OsgEarthNet.uav[0] utilizationCountManeuversMission 11
scalar OsgEarthNet.uav[0] utilizationCountManeuversMaintenance 2
scalar OsgEarthNet.uav[0] utilizationCountChargeState 1
scalar OsgEarthNet.uav[0] utilizationCountOverdrawnAfterMission 0
scalar OsgEarthNet.uav[0] utilizationCountIdleState 2
scalar OsgEarthNet.uav[0] utilizationFail 0
scalar OsgEarthNet.uav[0] simulationTime 259200
scalar OsgEarthNet.uav[1] utilizationSecMission 28031.415351422
scalar OsgEarthNet.uav[1] utilizationSecMaintenance 14407.963358207
scalar OsgEarthNet.uav[1] utilizationSecCharge 158110
scalar OsgEarthNet.uav[1] utilizationSecIdle 58650.620290371
scalar OsgEarthNet.uav[1] utilizationEnergyMission 129757.57843018
scalar OsgEarthNet.uav[1] utilizationEnergyMaintenance 69239.142242432
scalar OsgEarthNet.uav[1] utilizationEnergyCharge 199084.16162109
scalar OsgEarthNet.uav[1] utilizationEnergyOverdrawMission 0
scalar OsgEarthNet.uav[1] utilizationEnergyOverdrawMaintenance 0
scalar OsgEarthNet.uav[1] utilizationCountMissions 42
scalar OsgEarthNet.uav[1] utilizationCountManeuversMission 469
scalar OsgEarthNet.uav[1] utilizationCountManeuversMaintenance 84
scalar OsgEarthNet.uav[1] utilizationCountChargeState 42
scalar OsgEarthNet.uav[1] utilizationCountOverdrawnAfterMission 0
scalar OsgEarthNet.uav[1] utilizationCountIdleState 43
scalar OsgEarthNet.uav[1] utilizationFail 0
scalar OsgEarthNet.uav[1] simulationTime 259200
scalar OsgEarthNet.uav[2] utilizationSecMission 694.00169469977
scalar OsgEarthNet.uav[2] utilizationSecMaintenance 338.49695459722
scalar OsgEarthNet.uav[2] utilizationSecCharge 3630
scalar OsgEarthNet.uav[2] utilizationSecIdle 254537.5003507
scalar OsgEarthNet.uav[2] utilizationEnergyMission 3042.5897827148
scalar OsgEarthNet.uav[2] utilizationEnergyMaintenance 1440.6421012878
scalar OsgEarthNet.uav[2] utilizationEnergyCharge 4483.2338867188
scalar OsgEarthNet.uav[2] utilizationEnergyOverdrawMission 0
scalar OsgEarthNet.uav[2] utilizationEnergyOverdrawMaintenance 0
scalar OsgEarthNet.uav[2] utilizationCountMissions 1
scalar OsgEarthNet.uav[2] utilizationCountManeuversMission 13
scalar OsgEarthNet.uav[2] utilizationCountManeuversMaintenance 2
scalar OsgEarthNet.uav[2] utilizationCountChargeState 1
scalar OsgEarthNet.uav[2] utilizationCountOverdrawnAfterMission 0
scalar OsgEarthNet.uav[2] utilizationCountIdleState 2
scalar OsgEarthNet.uav[2] utilizationFail 0
scalar OsgEarthNet.uav[2] simulationTime 259200
scalar OsgEarthNet.uav[3] utilizationSecMission 32106.569690437
scalar OsgEarthNet.uav[3] utilizationSecMaintenance 12501.438405281
scalar OsgEarthNet.uav[3] utilizationSecCharge 164640
scalar OsgEarthNet.uav[3] utilizationSecIdle 49951.990904282
scalar OsgEarthNet.uav[3] utilizationEnergyMission 148681.9090271
scalar OsgEarthNet.uav[3] utilizationEnergyMaintenance 59216.987258911
scalar OsgEarthNet.uav[3] utilizationEnergyCharge 207233.36083984
scalar OsgEarthNet.uav[3] utilizationEnergyOverdrawMission 0
scalar OsgEarthNet.uav[3] utilizationEnergyOverdrawMaintenance 0
scalar OsgEarthNet.uav[3] utilizationCountMissions 44
scalar OsgEarthNet.uav[3] utilizationCountManeuversMission 511
scalar OsgEarthNet.uav[3] utilizationCountManeuversMaintenance 87
scalar OsgEarthNet.uav[3] utilizationCountChargeState 44
scalar OsgEarthNet.uav[3] utilizationCountOverdrawnAfterMission 0
scalar OsgEarthNet.uav[3] utilizationCountIdleState 45
scalar OsgEarthNet.uav[3] utilizationFail 0
scalar OsgEarthNet.uav[3] simulationTime 259200
scalar OsgEarthNet.uav[4] utilizationSecMission 24910.041561533
scalar OsgEarthNet.uav[4] utilizationSecMaintenance 14076.044380637
scalar OsgEarthNet.uav[4] utilizationSecCharge 145470
scalar OsgEarthNet.uav[4] utilizationSecIdle 74743.91305783
scalar OsgEarthNet.uav[4] utilizationEnergyMission 115272.60262299
scalar OsgEarthNet.uav[4] utilizationEnergyMaintenance 66783.786655426
scalar OsgEarthNet.uav[4] utilizationEnergyCharge 182469.37939453
scalar OsgEarthNet.uav[4] utilizationEnergyOverdrawMission 0
scalar OsgEarthNet.uav[4] utilizationEnergyOverdrawMaintenance 0
scalar OsgEarthNet.uav[4] utilizationCountMissions 39
scalar OsgEarthNet.uav[4] utilizationCountManeuversMission 429
scalar OsgEarthNet.uav[4] utilizationCountManeuversMaintenance 78
scalar OsgEarthNet.uav[4] utilizationCountChargeState 39
scalar OsgEarthNet.uav[4] utilizationCountOverdrawnAfterMission 0
scalar OsgEarthNet.uav[4] utilizationCountIdleState 40
scalar OsgEarthNet.uav[4] utilizationFail 0
scalar OsgEarthNet.uav[4] simulationTime 259200
scalar OsgEarthNet.uav[5] utilizationSecMission 621.17604176187
scalar OsgEarthNet.uav[5] utilizationSecMaintenance 313.76167006775
scalar OsgEarthNet.uav[5] utilizationSecCharge 3580
scalar OsgEarthNet.uav[5] utilizationSecIdle 254685.06128817
scalar OsgEarthNet.uav[5] utilizationEnergyMission 3050.6112823486
scalar OsgEarthNet.uav[5] utilizationEnergyMaintenance 1367.7462272644
scalar OsgEarthNet.uav[5] utilizationEnergyCharge 4418.35546875
scalar OsgEarthNet.uav[5] utilizationEnergyOverdrawMission 0
scalar OsgEarthNet.uav[5] utilizationEnergyOverdrawMaintenance 0
scalar OsgEarthNet.uav[5] utilizationCountMissions 1
scalar OsgEarthNet.uav[5] utilizationCountManeuversMission 12
scalar OsgEarthNet.uav[5] utilizationCountManeuversMaintenance 2
scalar OsgEarthNet.uav[5] utilizationCountChargeState 1
scalar OsgEarthNet.uav[5] utilizationCountOverdrawnAfterMission 0
scalar OsgEarthNet.uav[5] utilizationCountIdleState 2
scalar OsgEarthNet.uav[5] utilizationFail 0
scalar OsgEarthNet.uav[5] simulationTime 259200
scalar OsgEarthNet.uav[6] utilizationSecMission 29946.227996025
scalar OsgEarthNet.uav[6] utilizationSecMaintenance 14158.781473164
scalar OsgEarthNet.uav[6] utilizationSecCharge 163513.47586986
scalar OsgEarthNet.uav[6] utilizationSecIdle 51581.51366095
scalar OsgEarthNet.uav[6] utilizationEnergyMission 138355.79569244
scalar OsgEarthNet.uav[6] utilizationEnergyMaintenance 67472.668270111
scalar OsgEarthNet.uav[6] utilizationEnergyCharge 205034.14111328
scalar OsgEarthNet.uav[6] utilizationEnergyOverdrawMission 0
scalar OsgEarthNet.uav[6] utilizationEnergyOverdrawMaintenance 0
scalar OsgEarthNet.uav[6] utilizationCountMissions 44
scalar OsgEarthNet.uav[6] utilizationCountManeuversMission 478
scalar OsgEarthNet.uav[6] utilizationCountManeuversMaintenance 88
scalar OsgEarthNet.uav[6] utilizationCountChargeState 44
scalar OsgEarthNet.uav[6] utilizationCountOverdrawnAfterMission 0
scalar OsgEarthNet.uav[6] utilizationCountIdleState 44
scalar OsgEarthNet.uav[6] utilizationFail 0
scalar OsgEarthNet.uav[6] simulationTime 259200
scalar OsgEarthNet.uav[7] utilizationSecMission 26007.798200769
scalar OsgEarthNet.uav[7] utilizationSecMaintenance 10344.964218867
scalar OsgEarthNet.uav[7] utilizationSecCharge 134340
scalar OsgEarthNet.uav[7] utilizationSecIdle 88507.236580364
scalar OsgEarthNet.uav[7] utilizationEnergyMission 119764.77220917
scalar OsgEarthNet.uav[7] utilizationEnergyMaintenance 49101.83625412
scalar OsgEarthNet.uav[7] utilizationEnergyCharge 168512.09570312
scalar OsgEarthNet.uav[7] utilizationEnergyOverdrawMission 0
scalar OsgEarthNet.uav[7] utilizationEnergyOverdrawMaintenance 0
scalar OsgEarthNet.uav[7] utilizationCountMissions 36
scalar OsgEarthNet.uav[7] utilizationCountManeuversMission 426
scalar OsgEarthNet.uav[7] utilizationCountManeuversMaintenance 72
scalar OsgEarthNet.uav[7] utilizationCountChargeState 36
scalar OsgEarthNet.uav[7] utilizationCountOverdrawnAfterMission 0
scalar OsgEarthNet.uav[7] utilizationCountIdleState 37
scalar OsgEarthNet.uav[7] utilizationFail 0
scalar OsgEarthNet.uav[7] simulationTime 259200
scalar OsgEarthNet.uav[8] utilizationSecMission 694.00169469977
scalar OsgEarthNet.uav[8] utilizationSecMaintenance 338.49695459722
scalar OsgEarthNet.uav[8] utilizationSecCharge 3820
scalar OsgEarthNet.uav[8] utilizationSecIdle 254347.5003507
scalar OsgEarthNet.uav[8] utilizationEnergyMission 3245.4116363525
scalar OsgEarthNet.uav[8] utilizationEnergyMaintenance 1550.8191642761
scalar OsgEarthNet.uav[8] utilizationEnergyCharge 4796.2309570312
scalar OsgEarthNet.uav[8] utilizationEnergyOverdrawMission 0
scalar OsgEarthNet.uav[8] utilizationEnergyOverdrawMaintenance 0
scalar OsgEarthNet.uav[8] utilizationCountMissions 1
scalar OsgEarthNet.uav[8] utilizationCountManeuversMission 13
scalar OsgEarthNet.uav[8] utilizationCountManeuversMaintenance 2
scalar OsgEarthNet.uav[8] utilizationCountChargeState 1
scalar OsgEarthNet.uav[8] utilizationCountOverdrawnAfterMission 0
scalar OsgEarthNet.uav[8] utilizationCountIdleState 2
scalar OsgEarthNet.uav[8] utilizationFail 0
scalar OsgEarthNet.uav[8] simulationTime 259200
scalar OsgEarthNet.uav[9] utilizationSecMission 760.62515258028
scalar OsgEarthNet.uav[9] utilizationSecMaintenance 223.6438949726
scalar OsgEarthNet.uav[9] utilizationSecCharge 3680
scalar OsgEarthNet.uav[9] utilizationSecIdle 254535.72995245
scalar OsgEarthNet.uav[9] utilizationEnergyMission 3620.6751022339
scalar OsgEarthNet.uav[9] utilizationEnergyMaintenance 1028.2942314148
scalar OsgEarthNet.uav[9] utilizationEnergyCharge 4648.966796875
scalar OsgEarthNet.uav[9] utilizationEnergyOverdrawMission 0
scalar OsgEarthNet.uav[9] utilizationEnergyOverdrawMaintenance 0
scalar OsgEarthNet.uav[9] utilizationCountMissions 1
scalar OsgEarthNet.uav[9] utilizationCountManeuversMission 12
scalar OsgEarthNet.uav[9] utilizationCountManeuversMaintenance 2
scalar OsgEarthNet.uav[9] utilizationCountChargeState 1
scalar OsgEarthNet.uav[9] utilizationCountOverdrawnAfterMission 0
scalar OsgEarthNet.uav[9] utilizationCountIdleState 2
scalar OsgEarthNet.uav[9] utilizationFail 0
scalar OsgEarthNet.uav[9] simulationTime 259200
scalar OsgEarthNet.uav[10] utilizationSecMission 760.62515258028
scalar OsgEarthNet.uav[10] utilizationSecMaintenance 291.95923480269
scalar OsgEarthNet.uav[10] utilizationSecCharge 3870
scalar OsgEarthNet.uav[10] utilizationSecIdle 254277.41461262
scalar OsgEarthNet.uav[10] utilizationEnergyMission 3411.4326934815
scalar OsgEarthNet.uav[10] utilizationEnergyMaintenance 1471.7517318726
scalar OsgEarthNet.uav[10] utilizationEnergyCharge 4883.181640625
scalar OsgEarthNet.uav[10] utilizationEnergyOverdrawMission 0
scalar OsgEarthNet.uav[10] utilizationEnergyOverdrawMaintenance 0
scalar OsgEarthNet.uav[10] utilizationCountMissions 1
scalar OsgEarthNet.uav[10] utilizationCountManeuversMission 12
scalar OsgEarthNet.uav[10] utilizationCountManeuversMaintenance 2
scalar OsgEarthNet.uav[10] utilizationCountChargeState 1
scalar OsgEarthNet.uav[10] utilizationCountOverdrawnAfterMission 0
scalar OsgEarthNet.uav[10] utilizationCountIdleState 2
scalar OsgEarthNet.uav[10] utilizationFail 0
scalar OsgEarthNet.uav[10] simulationTime 259200
scalar OsgEarthNet.uav[11] utilizationSecMission 21592.273690187
scalar OsgEarthNet.uav[11] utilizationSecMaintenance 10054.321953052
scalar OsgEarthNet.uav[11] utilizationSecCharge 116430
scalar OsgEarthNet.uav[11] utilizationSecIdle 111123.40335676
scalar OsgEarthNet.uav[11] utilizationEnergyMission 98516.405395508
scalar OsgEarthNet.uav[11] utilizationEnergyMaintenance 47621.695545197
scalar OsgEarthNet.uav[11] utilizationEnergyCharge 146313.20800781
scalar OsgEarthNet.uav[11] utilizationEnergyOverdrawMission 0
scalar OsgEarthNet.uav[11] utilizationEnergyOverdrawMaintenance 0
scalar OsgEarthNet.uav[11] utilizationCountMissions 31
scalar OsgEarthNet.uav[11] utilizationCountManeuversMission 351
scalar OsgEarthNet.uav[11] utilizationCountManeuversMaintenance 62
scalar OsgEarthNet.uav[11] utilizationCountChargeState 31
scalar OsgEarthNet.uav[11] utilizationCountOverdrawnAfterMission 0
scalar OsgEarthNet.uav[11] utilizationCountIdleState 32
scalar OsgEarthNet.uav[11] utilizationFail 0
scalar OsgEarthNet.uav[11] simulationTime 259200
scalar OsgEarthNet.uav[12] utilizationSecMission 29270.324743845
scalar OsgEarthNet.uav[12] utilizationSecMaintenance 14620.657274637
scalar OsgEarthNet.uav[12] utilizationSecCharge 164250
scalar OsgEarthNet.uav[12] utilizationSecIdle 51059.016981518
scalar OsgEarthNet.uav[12] utilizationEnergyMission 136786.09993744
scalar OsgEarthNet.uav[12] utilizationEnergyMaintenance 69211.220809937
scalar OsgEarthNet.uav[12] utilizationEnergyCharge 206095.29394531
scalar OsgEarthNet.uav[12] utilizationEnergyOverdrawMission 0
scalar OsgEarthNet.uav[12] utilizationEnergyOverdrawMaintenance 0
scalar OsgEarthNet.uav[12] utilizationCountMissions 44
scalar OsgEarthNet.uav[12] utilizationCountManeuversMission 479
scalar OsgEarthNet.uav[12] utilizationCountManeuversMaintenance 88
scalar OsgEarthNet.uav[12] utilizationCountChargeState 44
scalar OsgEarthNet.uav[12] utilizationCountOverdrawnAfterMission 0
scalar OsgEarthNet.uav[12] utilizationCountIdleState 45
scalar OsgEarthNet.uav[12] utilizationFail 0
scalar OsgEarthNet.uav[12] simulationTime 259200
scalar OsgEarthNet.uav[13] utilizationSecMission 760.62515258028
scalar OsgEarthNet.uav[13] utilizationSecMaintenance 291.95923480269
scalar OsgEarthNet.uav[13] utilizationSecCharge 3810
scalar OsgEarthNet.uav[13] utilizationSecIdle 254337.41461262
scalar OsgEarthNet.uav[13] utilizationEnergyMission 3315.6879730225
scalar OsgEarthNet.uav[13] utilizationEnergyMaintenance 1513.5489730835
scalar OsgEarthNet.uav[13] utilizationEnergyCharge 4829.234375
scalar OsgEarthNet.uav[13] utilizationEnergyOverdrawMission 0
scalar OsgEarthNet.uav[13] utilizationEnergyOverdrawMaintenance 0
scalar OsgEarthNet.uav[13] utilizationCountMissions 1
scalar OsgEarthNet.uav[13] utilizationCountManeuversMission 12
scalar OsgEarthNet.uav[13] utilizationCountManeuversMaintenance 2
scalar OsgEarthNet.uav[13] utilizationCountChargeState 1
scalar OsgEarthNet.uav[13] utilizationCountOverdrawnAfterMission 0
scalar OsgEarthNet.uav[13] utilizationCountIdleState 2
scalar OsgEarthNet.uav[13] utilizationFail 0
scalar OsgEarthNet.uav[13] simulationTime 259200
scalar OsgEarthNet.uav[14] utilizationSecMission 545.05972348896
scalar OsgEarthNet.uav[14] utilizationSecMaintenance 504.59684722431
scalar OsgEarthNet.uav[14] utilizationSecCharge 3880
scalar OsgEarthNet.uav[14] utilizationSecIdle 254270.34242929
scalar OsgEarthNet.uav[14] utilizationEnergyMission 2615.2290344238
scalar OsgEarthNet.uav[14] utilizationEnergyMaintenance 2344.9553947449
scalar OsgEarthNet.uav[14] utilizationEnergyCharge 4896.1499023438
scalar OsgEarthNet.uav[14] utilizationEnergyOverdrawMission 0
scalar OsgEarthNet.uav[14] utilizationEnergyOverdrawMaintenance 0
scalar OsgEarthNet.uav[14] utilizationCountMissions 1
scalar OsgEarthNet.uav[14] utilizationCountManeuversMission 9
scalar OsgEarthNet.uav[14] utilizationCountManeuversMaintenance 2
scalar OsgEarthNet.uav[14] utilizationCountChargeState 1
scalar OsgEarthNet.uav[14] utilizationCountOverdrawnAfterMission 0
scalar OsgEarthNet.uav[14] utilizationCountIdleState 2
scalar OsgEarthNet.uav[14] utilizationFail 0
scalar OsgEarthNet.uav[14] simulationTime 259200
scalar OsgEarthNet.uav[15] utilizationSecMission 30889.242908781
scalar OsgEarthNet.uav[15] utilizationSecMaintenance 12546.736889261
scalar OsgEarthNet.uav[15] utilizationSecCharge 160756.56893793
scalar OsgEarthNet.uav[15] utilizationSecIdle 55007.450264031
scalar OsgEarthNet.uav[15] utilizationEnergyMission 142956.43604279
scalar OsgEarthNet.uav[15] utilizationEnergyMaintenance 59099.109340668
scalar OsgEarthNet.uav[15] utilizationEnergyCharge 201988.70336914
scalar OsgEarthNet.uav[15] utilizationEnergyOverdrawMission 0
scalar OsgEarthNet.uav[15] utilizationEnergyOverdrawMaintenance 0
scalar OsgEarthNet.uav[15] utilizationCountMissions 43
scalar OsgEarthNet.uav[15] utilizationCountManeuversMission 495
scalar OsgEarthNet.uav[15] utilizationCountManeuversMaintenance 86
scalar OsgEarthNet.uav[15] utilizationCountChargeState 43
scalar OsgEarthNet.uav[15] utilizationCountOverdrawnAfterMission 0
scalar OsgEarthNet.uav[15] utilizationCountIdleState 43
scalar OsgEarthNet.uav[15] utilizationFail 0
scalar OsgEarthNet.uav[15] simulationTime 259200
scalar OsgEarthNet.uav[16] utilizationSecMission 760.62515258028
scalar OsgEarthNet.uav[16] utilizationSecMaintenance 291.95923480269
scalar OsgEarthNet.uav[16] utilizationSecCharge 3790
scalar OsgEarthNet.uav[16] utilizationSecIdle 254357.41461262
scalar OsgEarthNet.uav[16] utilizationEnergyMission 3276.0830154419
scalar OsgEarthNet.uav[16] utilizationEnergyMaintenance 1519.641746521
scalar OsgEarthNet.uav[16] utilizationEnergyCharge 4795.7221679688
scalar OsgEarthNet.uav[16] utilizationEnergyOverdrawMission 0
scalar OsgEarthNet.uav[16] utilizationEnergyOverdrawMaintenance 0
scalar OsgEarthNet.uav[16] utilizationCountMissions 1
scalar OsgEarthNet.uav[16] utilizationCountManeuversMission 12
scalar OsgEarthNet.uav[16] utilizationCountManeuversMaintenance 2
scalar OsgEarthNet.uav[16] utilizationCountChargeState 1
scalar OsgEarthNet.uav[16] utilizationCountOverdrawnAfterMission 0
scalar OsgEarthNet.uav[16] utilizationCountIdleState 2
scalar OsgEarthNet.uav[16] utilizationFail 0
scalar OsgEarthNet.uav[16] simulationTime 259200
scalar OsgEarthNet.uav[17] utilizationSecMission 25186.811917091
scalar OsgEarthNet.uav[17] utilizationSecMaintenance 12746.530253699
scalar OsgEarthNet.uav[17] utilizationSecCharge 140835.20144543
scalar OsgEarthNet.uav[17] utilizationSecIdle 80431.455383777
scalar OsgEarthNet.uav[17] utilizationEnergyMission 116622.50603104
scalar OsgEarthNet.uav[17] utilizationEnergyMaintenance 60562.50560379
scalar OsgEarthNet.uav[17] utilizationEnergyCharge 177101.60400391
scalar OsgEarthNet.uav[17] utilizationEnergyOverdrawMission 0
scalar OsgEarthNet.uav[17] utilizationEnergyOverdrawMaintenance 0
scalar OsgEarthNet.uav[17] utilizationCountMissions 38
scalar OsgEarthNet.uav[17] utilizationCountManeuversMission 407
scalar OsgEarthNet.uav[17] utilizationCountManeuversMaintenance 76
scalar OsgEarthNet.uav[17] utilizationCountChargeState 38
scalar OsgEarthNet.uav[17] utilizationCountOverdrawnAfterMission 0
scalar OsgEarthNet.uav[17] utilizationCountIdleState 38
scalar OsgEarthNet.uav[17] utilizationFail 0
scalar OsgEarthNet.uav[17] simulationTime 259200
scalar OsgEarthNet.uav[18] utilizationSecMission 29374.745677672
scalar OsgEarthNet.uav[18] utilizationSecMaintenance 13310.464946742
scalar OsgEarthNet.uav[18] utilizationSecCharge 156459.59826402
scalar OsgEarthNet.uav[18] utilizationSecIdle 60055.190111569
scalar OsgEarthNet.uav[18] utilizationEnergyMission 136192.52163696
scalar OsgEarthNet.uav[18] utilizationEnergyMaintenance 62667.738071442
scalar OsgEarthNet.uav[18] utilizationEnergyCharge 197874.41113281
scalar OsgEarthNet.uav[18] utilizationEnergyOverdrawMission 0
scalar OsgEarthNet.uav[18] utilizationEnergyOverdrawMaintenance 0
scalar OsgEarthNet.uav[18] utilizationCountMissions 42
scalar OsgEarthNet.uav[18] utilizationCountManeuversMission 470
scalar OsgEarthNet.uav[18] utilizationCountManeuversMaintenance 84
scalar OsgEarthNet.uav[18] utilizationCountChargeState 42
scalar OsgEarthNet.uav[18] utilizationCountOverdrawnAfterMission 0
scalar OsgEarthNet.uav[18] utilizationCountIdleState 42
scalar OsgEarthNet.uav[18] utilizationFail 0
scalar OsgEarthNet.uav[18] simulationTime 259200
scalar OsgEarthNet.uav[19] utilizationSecMission 684.4732299383
scalar OsgEarthNet.uav[19] utilizationSecMaintenance 298.56834692969
scalar OsgEarthNet.uav[19] utilizationSecCharge 3820
scalar OsgEarthNet.uav[19] utilizationSecIdle 254396.95742313
scalar OsgEarthNet.uav[19] utilizationEnergyMission 3316.5833435059
scalar OsgEarthNet.uav[19] utilizationEnergyMaintenance 1504.1484603882
scalar OsgEarthNet.uav[19] utilizationEnergyCharge 4820.7329101562
scalar OsgEarthNet.uav[19] utilizationEnergyOverdrawMission 0
scalar OsgEarthNet.uav[19] utilizationEnergyOverdrawMaintenance 0
scalar OsgEarthNet.uav[19] utilizationCountMissions 1
scalar OsgEarthNet.uav[19] utilizationCountManeuversMission 11
scalar OsgEarthNet.uav[19] utilizationCountManeuversMaintenance 2
scalar OsgEarthNet.uav[19] utilizationCountChargeState 1
scalar OsgEarthNet.uav[19] utilizationCountOverdrawnAfterMission 0
scalar OsgEarthNet.uav[19] utilizationCountIdleState 2
scalar OsgEarthNet.uav[19] utilizationFail 0
scalar OsgEarthNet.uav[19] simulationTime 259200
scalar OsgEarthNet.uav[20] utilizationSecMission 650.68693590098
scalar OsgEarthNet.uav[20] utilizationSecMaintenance 350.31285707965
scalar OsgEarthNet.uav[20] utilizationSecCharge 3750
scalar OsgEarthNet.uav[20] utilizationSecIdle 254448.99920702
scalar OsgEarthNet.uav[20] utilizationEnergyMission 3094.16065979
scalar OsgEarthNet.uav[20] utilizationEnergyMaintenance 1597.4056625366
scalar OsgEarthNet.uav[20] utilizationEnergyCharge 4691.5668945312
scalar OsgEarthNet.uav[20] utilizationEnergyOverdrawMission 0
scalar OsgEarthNet.uav[20] utilizationEnergyOverdrawMaintenance 0
scalar OsgEarthNet.uav[20] utilizationCountMissions 1
scalar OsgEarthNet.uav[20] utilizationCountManeuversMission 9
scalar OsgEarthNet.uav[20] utilizationCountManeuversMaintenance 2
scalar OsgEarthNet.uav[20] utilizationCountChargeState 1
scalar OsgEarthNet.uav[20] utilizationCountOverdrawnAfterMission 0
scalar OsgEarthNet.uav[20] utilizationCountIdleState 2
scalar OsgEarthNet.uav[20] utilizationFail 0
scalar OsgEarthNet.uav[20] simulationTime 259200
scalar OsgEarthNet.uav[21] utilizationSecMission 27244.320970823
scalar OsgEarthNet.uav[21] utilizationSecMaintenance 12352.403391701
scalar OsgEarthNet.uav[21] utilizationSecCharge 146120
scalar OsgEarthNet.uav[21] utilizationSecIdle 73483.274637476
scalar OsgEarthNet.uav[21] utilizationEnergyMission 125549.33834839
scalar OsgEarthNet.uav[21] utilizationEnergyMaintenance 58698.687087056
scalar OsgEarthNet.uav[21] utilizationEnergyCharge 183757.19946289
scalar OsgEarthNet.uav[21] utilizationEnergyOverdrawMission 0
scalar OsgEarthNet.uav[21] utilizationEnergyOverdrawMaintenance 0
scalar OsgEarthNet.uav[21] utilizationCountMissions 39
scalar OsgEarthNet.uav[21] utilizationCountManeuversMission 442
scalar OsgEarthNet.uav[21] utilizationCountManeuversMaintenance 79
scalar OsgEarthNet.uav[21] utilizationCountChargeState 39
scalar OsgEarthNet.uav[21] utilizationCountOverdrawnAfterMission 0
scalar OsgEarthNet.uav[21] utilizationCountIdleState 40
scalar OsgEarthNet.uav[21] utilizationFail 0
scalar OsgEarthNet.uav[21] simulationTime 259200
scalar OsgEarthNet.uav[22] utilizationSecMission 5311.6267264611
scalar OsgEarthNet.uav[22] utilizationSecMaintenance 2682.0542559361
scalar OsgEarthNet.uav[22] utilizationSecCharge 29840
scalar OsgEarthNet.uav[22] utilizationSecIdle 221366.3180176
scalar OsgEarthNet.uav[22] utilizationEnergyMission 24721.442611694
scalar OsgEarthNet.uav[22] utilizationEnergyMaintenance 12629.873809814
scalar OsgEarthNet.uav[22] utilizationEnergyCharge 37497.315429688
scalar OsgEarthNet.uav[22] utilizationEnergyOverdrawMission 0
scalar OsgEarthNet.uav[22] utilizationEnergyOverdrawMaintenance 0
scalar OsgEarthNet.uav[22] utilizationCountMissions 8
scalar OsgEarthNet.uav[22] utilizationCountManeuversMission 84
scalar OsgEarthNet.uav[22] utilizationCountManeuversMaintenance 16
scalar OsgEarthNet.uav[22] utilizationCountChargeState 8
scalar OsgEarthNet.uav[22] utilizationCountOverdrawnAfterMission 0
scalar OsgEarthNet.uav[22] utilizationCountIdleState 9
scalar OsgEarthNet.uav[22] utilizationFail 0
scalar OsgEarthNet.uav[22] simulationTime 259200
scalar OsgEarthNet.uav[23] utilizationSecMission 29311.171907678
scalar OsgEarthNet.uav[23] utilizationSecMaintenance 12469.444766597
scalar OsgEarthNet.uav[23] utilizationSecCharge 152737.38232573
scalar OsgEarthNet.uav[23] utilizationSecIdle 64682
scalar OsgEarthNet.uav[23] utilizationEnergyMission 137233.1937975
scalar OsgEarthNet.uav[23] utilizationEnergyMaintenance 58096.533638001
scalar OsgEarthNet.uav[23] utilizationEnergyCharge 191450.65570068
scalar OsgEarthNet.uav[23] utilizationEnergyOverdrawMission 0
scalar OsgEarthNet.uav[23] utilizationEnergyOverdrawMaintenance 0
scalar OsgEarthNet.uav[23] utilizationCountMissions 42
scalar OsgEarthNet.uav[23] utilizationCountManeuversMission 463
scalar OsgEarthNet.uav[23] utilizationCountManeuversMaintenance 83
scalar OsgEarthNet.uav[23] utilizationCountChargeState 42
scalar OsgEarthNet.uav[23] utilizationCountOverdrawnAfterMission 0
scalar OsgEarthNet.uav[23] utilizationCountIdleState 42
scalar OsgEarthNet.uav[23] utilizationFail 0
scalar OsgEarthNet.uav[23] simulationTime 259200
scalar OsgEarthNet.uav[24] utilizationSecMission 502.567493222
scalar OsgEarthNet.uav[24] utilizationSecMaintenance 492.34067441359
scalar OsgEarthNet.uav[24] utilizationSecCharge 3790
scalar OsgEarthNet.uav[24] utilizationSecIdle 254415.09083236
scalar OsgEarthNet.uav[24] utilizationEnergyMission 2334.2692871094
scalar OsgEarthNet.uav[24] utilizationEnergyMaintenance 2334.5641899109
scalar OsgEarthNet.uav[24] utilizationEnergyCharge 4719.3803710938
scalar OsgEarthNet.uav[24] utilizationEnergyOverdrawMission 0
scalar OsgEarthNet.uav[24] utilizationEnergyOverdrawMaintenance 0
scalar OsgEarthNet.uav[24] utilizationCountMissions 1
scalar OsgEarthNet.uav[24] utilizationCountManeuversMission 8
scalar OsgEarthNet.uav[24] utilizationCountManeuversMaintenance 2
scalar OsgEarthNet.uav[24] utilizationCountChargeState 1
scalar OsgEarthNet.uav[24] utilizationCountOverdrawnAfterMission 0
scalar OsgEarthNet.uav[24] utilizationCountIdleState 2
scalar OsgEarthNet.uav[24] utilizationFail 0
scalar OsgEarthNet.uav[24] simulationTime 259200
scalar OsgEarthNet.uav[25] utilizationSecMission 828.1936691689
scalar OsgEarthNet.uav[25] utilizationSecMaintenance 156.97870384097
scalar OsgEarthNet.uav[25] utilizationSecCharge 3750
scalar OsgEarthNet.uav[25] utilizationSecIdle 254464.82662699
scalar OsgEarthNet.uav[25] utilizationEnergyMission 3780.0068664551
scalar OsgEarthNet.uav[25] utilizationEnergyMaintenance 737.62822723389
scalar OsgEarthNet.uav[25] utilizationEnergyCharge 4706.9072265625
scalar OsgEarthNet.uav[25] utilizationEnergyOverdrawMission 0
scalar OsgEarthNet.uav[25] utilizationEnergyOverdrawMaintenance 0
scalar OsgEarthNet.uav[25] utilizationCountMissions 1
scalar OsgEarthNet.uav[25] utilizationCountManeuversMission 13
scalar OsgEarthNet.uav[25] utilizationCountManeuversMaintenance 2
scalar OsgEarthNet.uav[25] utilizationCountChargeState 1
scalar OsgEarthNet.uav[25] utilizationCountOverdrawnAfterMission 0
scalar OsgEarthNet.uav[25] utilizationCountIdleState 2
scalar OsgEarthNet.uav[25] utilizationFail 0
scalar OsgEarthNet.uav[25] simulationTime 259200
scalar OsgEarthNet.uav[26] utilizationSecMission 22604.156994379
scalar OsgEarthNet.uav[26] utilizationSecMaintenance 10354.671272374
scalar OsgEarthNet.uav[26] utilizationSecCharge 121820
scalar OsgEarthNet.uav[26] utilizationSecIdle 104421.17073325
scalar OsgEarthNet.uav[26] utilizationEnergyMission 104383.55255127
scalar OsgEarthNet.uav[26] utilizationEnergyMaintenance 48614.870235899
scalar OsgEarthNet.uav[26] utilizationEnergyCharge 152139.75195312
scalar OsgEarthNet.uav[26] utilizationEnergyOverdrawMission 0
scalar OsgEarthNet.uav[26] utilizationEnergyOverdrawMaintenance 0
scalar OsgEarthNet.uav[26] utilizationCountMissions 33
scalar OsgEarthNet.uav[26] utilizationCountManeuversMission 350
scalar OsgEarthNet.uav[26] utilizationCountManeuversMaintenance 67
scalar OsgEarthNet.uav[26] utilizationCountChargeState 33
scalar OsgEarthNet.uav[26] utilizationCountOverdrawnAfterMission 0
scalar OsgEarthNet.uav[26] utilizationCountIdleState 34
scalar OsgEarthNet.uav[26] utilizationFail 0
scalar OsgEarthNet.uav[26] simulationTime 259200
scalar OsgEarthNet.uav[27] utilizationSecMission 29219.926837394
scalar OsgEarthNet.uav[27] utilizationSecMaintenance 14119.489689425
scalar OsgEarthNet.uav[27] utilizationSecCharge 161020
scalar OsgEarthNet.uav[27] utilizationSecIdle 54840.582473182
scalar OsgEarthNet.uav[27] utilizationEnergyMission 135961.96130371
scalar OsgEarthNet.uav[27] utilizationEnergyMaintenance 66203.161777496
scalar OsgEarthNet.uav[27] utilizationEnergyCharge 202161.43505859
scalar OsgEarthNet.uav[27] utilizationEnergyOverdrawMission 0
scalar OsgEarthNet.uav[27] utilizationEnergyOverdrawMaintenance 0
scalar OsgEarthNet.uav[27] utilizationCountMissions 43
scalar OsgEarthNet.uav[27] utilizationCountManeuversMission 485
scalar OsgEarthNet.uav[27] utilizationCountManeuversMaintenance 85
scalar OsgEarthNet.uav[27] utilizationCountChargeState 43
scalar OsgEarthNet.uav[27] utilizationCountOverdrawnAfterMission 0
scalar OsgEarthNet.uav[27] utilizationCountIdleState 44
scalar OsgEarthNet.uav[27] utilizationFail 0
scalar OsgEarthNet.uav[27] simulationTime 259200
scalar OsgEarthNet.uav[28] utilizationSecMission 28684.603798038
scalar OsgEarthNet.uav[28] utilizationSecMaintenance 12496.422907971
scalar OsgEarthNet.uav[28] utilizationSecCharge 152180
scalar OsgEarthNet.uav[28] utilizationSecIdle 65838.972293992
scalar OsgEarthNet.uav[28] utilizationEnergyMission 132560.77217865
scalar OsgEarthNet.uav[28] utilizationEnergyMaintenance 58554.031269073
scalar OsgEarthNet.uav[28] utilizationEnergyCharge 190527.78369141
scalar OsgEarthNet.uav[28] utilizationEnergyOverdrawMission 0
scalar OsgEarthNet.uav[28] utilizationEnergyOverdrawMaintenance 0
scalar OsgEarthNet.uav[28] utilizationCountMissions 41
scalar OsgEarthNet.uav[28] utilizationCountManeuversMission 470
scalar OsgEarthNet.uav[28] utilizationCountManeuversMaintenance 82
scalar OsgEarthNet.uav[28] utilizationCountChargeState 41
scalar OsgEarthNet.uav[28] utilizationCountOverdrawnAfterMission 0
scalar OsgEarthNet.uav[28] utilizationCountIdleState 42
scalar OsgEarthNet.uav[28] utilizationFail 0
scalar OsgEarthNet.uav[28] simulationTime 259200
scalar OsgEarthNet.uav[29] utilizationSecMission 750.20472747826
scalar OsgEarthNet.uav[29] utilizationSecMaintenance 335.16822070369
scalar OsgEarthNet.uav[29] utilizationSecCharge 3860
scalar OsgEarthNet.uav[29] utilizationSecIdle 254254.62605182
scalar OsgEarthNet.uav[29] utilizationEnergyMission 3350.0043487549
scalar OsgEarthNet.uav[29] utilizationEnergyMaintenance 1633.6863517761
scalar OsgEarthNet.uav[29] utilizationEnergyCharge 4983.693359375
scalar OsgEarthNet.uav[29] utilizationEnergyOverdrawMission 0
scalar OsgEarthNet.uav[29] utilizationEnergyOverdrawMaintenance 0
scalar OsgEarthNet.uav[29] utilizationCountMissions 1
scalar OsgEarthNet.uav[29] utilizationCountManeuversMission 11
scalar OsgEarthNet.uav[29] utilizationCountManeuversMaintenance 2
scalar OsgEarthNet.uav[29] utilizationCountChargeState 1
scalar OsgEarthNet.uav[29] utilizationCountOverdrawnAfterMission 0
scalar OsgEarthNet.uav[29] utilizationCountIdleState 2
scalar OsgEarthNet.uav[29] utilizationFail 0
scalar OsgEarthNet.uav[29] simulationTime 259200
scalar OsgEarthNet.uav[30] utilizationSecMission 760.62515258028
scalar OsgEarthNet.uav[30] utilizationSecMaintenance 223.6438949726
scalar OsgEarthNet.uav[30] utilizationSecCharge 3780
scalar OsgEarthNet.uav[30] utilizationSecIdle 254435.72995245
scalar OsgEarthNet.uav[30] utilizationEnergyMission 3740.6451644897
scalar OsgEarthNet.uav[30] utilizationEnergyMaintenance 1014.0010185242
scalar OsgEarthNet.uav[30] utilizationEnergyCharge 4754.64453125
scalar OsgEarthNet.uav[30] utilizationEnergyOverdrawMission 0
scalar OsgEarthNet.uav[30] utilizationEnergyOverdrawMaintenance 0
scalar OsgEarthNet.uav[30] utilizationCountMissions 1
scalar OsgEarthNet.uav[30] utilizationCountManeuversMission 12
scalar OsgEarthNet.uav[30] utilizationCountManeuversMaintenance 2
scalar OsgEarthNet.uav[30] utilizationCountChargeState 1
scalar OsgEarthNet.uav[30] utilizationCountOverdrawnAfterMission 0
scalar OsgEarthNet.uav[30] utilizationCountIdleState 2
scalar OsgEarthNet.uav[30] utilizationFail 0
scalar OsgEarthNet.uav[30] simulationTime 259200
scalar OsgEarthNet.uav[31] utilizationSecMission 26047.829821475
scalar OsgEarthNet.uav[31] utilizationSecMaintenance 10872.307224036
scalar OsgEarthNet.uav[31] utilizationSecCharge 138070
scalar OsgEarthNet.uav[31] utilizationSecIdle 84209.861954489
scalar OsgEarthNet.uav[31] utilizationEnergyMission 122092.00927353
scalar OsgEarthNet.uav[31] utilizationEnergyMaintenance 51242.226036072
scalar OsgEarthNet.uav[31] utilizationEnergyCharge 173486.97265625
scalar OsgEarthNet.uav[31] utilizationEnergyOverdrawMission 0
scalar OsgEarthNet.uav[31] utilizationEnergyOverdrawMaintenance 0
scalar OsgEarthNet.uav[31] utilizationCountMissions 37
scalar OsgEarthNet.uav[31] utilizationCountManeuversMission 425
scalar OsgEarthNet.uav[31] utilizationCountManeuversMaintenance 74
scalar OsgEarthNet.uav[31] utilizationCountChargeState 37
scalar OsgEarthNet.uav[31] utilizationCountOverdrawnAfterMission 0
scalar OsgEarthNet.uav[31] utilizationCountIdleState 38
scalar OsgEarthNet.uav[31] utilizationFail 0
scalar OsgEarthNet.uav[31] simulationTime 259200
scalar OsgEarthNet.uav[32] utilizationSecMission 887.1741082606
scalar OsgEarthNet.uav[32] utilizationSecMaintenance 171.13387461676
scalar OsgEarthNet.uav[32] utilizationSecCharge 3790
scalar OsgEarthNet.uav[32] utilizationSecIdle 254351.69101712
scalar OsgEarthNet.uav[32] utilizationEnergyMission 3875.8682556152
scalar OsgEarthNet.uav[32] utilizationEnergyMaintenance 656.63765716553
scalar OsgEarthNet.uav[32] utilizationEnergyCharge 4771.296875
scalar OsgEarthNet.uav[32] utilizationEnergyOverdrawMission 0
scalar OsgEarthNet.uav[32] utilizationEnergyOverdrawMaintenance 0
scalar OsgEarthNet.uav[32] utilizationCountMissions 1
scalar OsgEarthNet.uav[32] utilizationCountManeuversMission 14
scalar OsgEarthNet.uav[32] utilizationCountManeuversMaintenance 2
scalar OsgEarthNet.uav[32] utilizationCountChargeState 1
scalar OsgEarthNet.uav[32] utilizationCountOverdrawnAfterMission 0
scalar OsgEarthNet.uav[32] utilizationCountIdleState 2
scalar OsgEarthNet.uav[32] utilizationFail 0
scalar OsgEarthNet.uav[32] simulationTime 259200
scalar OsgEarthNet.uav[33] utilizationSecMission 684.4732299383
scalar OsgEarthNet.uav[33] utilizationSecMaintenance 298.56834692969
scalar OsgEarthNet.uav[33] utilizationSecCharge 3670
scalar OsgEarthNet.uav[33] utilizationSecIdle 254546.95742313
scalar OsgEarthNet.uav[33] utilizationEnergyMission 3158.493812561
scalar OsgEarthNet.uav[33] utilizationEnergyMaintenance 1487.3043441772
scalar OsgEarthNet.uav[33] utilizationEnergyCharge 4645.7998046875
scalar OsgEarthNet.uav[33] utilizationEnergyOverdrawMission 0
scalar OsgEarthNet.uav[33] utilizationEnergyOverdrawMaintenance 0
scalar OsgEarthNet.uav[33] utilizationCountMissions 1
scalar OsgEarthNet.uav[33] utilizationCountManeuversMission 11
scalar OsgEarthNet.uav[33] utilizationCountManeuversMaintenance 2
scalar OsgEarthNet.uav[33] utilizationCountChargeState 1
scalar OsgEarthNet.uav[33] utilizationCountOverdrawnAfterMission 0
scalar OsgEarthNet.uav[33] utilizationCountIdleState 2
scalar OsgEarthNet.uav[33] utilizationFail 0
scalar OsgEarthNet.uav[33] simulationTime 259200
scalar OsgEarthNet.uav[34] utilizationSecMission 27026.771387824
scalar OsgEarthNet.uav[34] utilizationSecMaintenance 12828.033716532
scalar OsgEarthNet.uav[34] utilizationSecCharge 145740
scalar OsgEarthNet.uav[34] utilizationSecIdle 73605.193895644
scalar OsgEarthNet.uav[34] utilizationEnergyMission 126057.35902886
scalar OsgEarthNet.uav[34] utilizationEnergyMaintenance 59573.569274902
scalar OsgEarthNet.uav[34] utilizationEnergyCharge 183235.46044922
scalar OsgEarthNet.uav[34] utilizationEnergyOverdrawMission 0
scalar OsgEarthNet.uav[34] utilizationEnergyOverdrawMaintenance 0
scalar OsgEarthNet.uav[34] utilizationCountMissions 39
scalar OsgEarthNet.uav[34] utilizationCountManeuversMission 456
scalar OsgEarthNet.uav[34] utilizationCountManeuversMaintenance 79
scalar OsgEarthNet.uav[34] utilizationCountChargeState 39
scalar OsgEarthNet.uav[34] utilizationCountOverdrawnAfterMission 0
scalar OsgEarthNet.uav[34] utilizationCountIdleState 40
scalar OsgEarthNet.uav[34] utilizationFail 0
scalar OsgEarthNet.uav[34] simulationTime 259200
scalar OsgEarthNet.uav[35] utilizationSecMission 20963.850679297
scalar OsgEarthNet.uav[35] utilizationSecMaintenance 8400.9196384589
scalar OsgEarthNet.uav[35] utilizationSecCharge 106588.57537292
scalar OsgEarthNet.uav[35] utilizationSecIdle 123246.65330932
scalar OsgEarthNet.uav[35] utilizationEnergyMission 98541.870109558
scalar OsgEarthNet.uav[35] utilizationEnergyMaintenance 38792.78560257
scalar OsgEarthNet.uav[35] utilizationEnergyCharge 134722.04150391
scalar OsgEarthNet.uav[35] utilizationEnergyOverdrawMission 0
scalar OsgEarthNet.uav[35] utilizationEnergyOverdrawMaintenance 0
scalar OsgEarthNet.uav[35] utilizationCountMissions 29
scalar OsgEarthNet.uav[35] utilizationCountManeuversMission 338
scalar OsgEarthNet.uav[35] utilizationCountManeuversMaintenance 58
scalar OsgEarthNet.uav[35] utilizationCountChargeState 29
scalar OsgEarthNet.uav[35] utilizationCountOverdrawnAfterMission 0
scalar OsgEarthNet.uav[35] utilizationCountIdleState 29
scalar OsgEarthNet.uav[35] utilizationFail 0
scalar OsgEarthNet.uav[35] simulationTime 259200
scalar OsgEarthNet.uav[36] utilizationSecMission 836.77707522227
scalar OsgEarthNet.uav[36] utilizationSecMaintenance 217.0347828456
scalar OsgEarthNet.uav[36] utilizationSecCharge 3860
scalar OsgEarthNet.uav[36] utilizationSecIdle 254286.18714193
scalar OsgEarthNet.uav[36] utilizationEnergyMission 3750.2909088135
scalar OsgEarthNet.uav[36] utilizationEnergyMaintenance 1104.5372123718
scalar OsgEarthNet.uav[36] utilizationEnergyCharge 4854.8310546875
scalar OsgEarthNet.uav[36] utilizationEnergyOverdrawMission 0
scalar OsgEarthNet.uav[36] utilizationEnergyOverdrawMaintenance 0
scalar OsgEarthNet.uav[36] utilizationCountMissions 1
scalar OsgEarthNet.uav[36] utilizationCountManeuversMission 13
scalar OsgEarthNet.uav[36] utilizationCountManeuversMaintenance 2
scalar OsgEarthNet.uav[36] utilizationCountChargeState 1
scalar OsgEarthNet.uav[36] utilizationCountOverdrawnAfterMission 0
scalar OsgEarthNet.uav[36] utilizationCountIdleState 2
scalar OsgEarthNet.uav[36] utilizationFail 0
scalar OsgEarthNet.uav[36] simulationTime 259200
scalar OsgEarthNet.uav[37] utilizationSecMission 15585.987207737
scalar OsgEarthNet.uav[37] utilizationSecMaintenance 5747.8714289569
scalar OsgEarthNet.uav[37] utilizationSecCharge 79050
scalar OsgEarthNet.uav[37] utilizationSecIdle 158816.14036331
scalar OsgEarthNet.uav[37] utilizationEnergyMission 72285.691886902
scalar OsgEarthNet.uav[37] utilizationEnergyMaintenance 27049.110973358
scalar OsgEarthNet.uav[37] utilizationEnergyCharge 99420.455078125
scalar OsgEarthNet.uav[37] utilizationEnergyOverdrawMission 0
scalar OsgEarthNet.uav[37] utilizationEnergyOverdrawMaintenance 0
scalar OsgEarthNet.uav[37] utilizationCountMissions 21
scalar OsgEarthNet.uav[37] utilizationCountManeuversMission 253
scalar OsgEarthNet.uav[37] utilizationCountManeuversMaintenance 42
scalar OsgEarthNet.uav[37] utilizationCountChargeState 21
scalar OsgEarthNet.uav[37] utilizationCountOverdrawnAfterMission 0
scalar OsgEarthNet.uav[37] utilizationCountIdleState 22
scalar OsgEarthNet.uav[37] utilizationFail 0
scalar OsgEarthNet.uav[37] simulationTime 259200
scalar OsgEarthNet.uav[38] utilizationSecMission 27669.498825027
scalar OsgEarthNet.uav[38] utilizationSecMaintenance 10036.787592529
scalar OsgEarthNet.uav[38] utilizationSecCharge 138280
scalar OsgEarthNet.uav[38] utilizationSecIdle 83213.712582444
scalar OsgEarthNet.uav[38] utilizationEnergyMission 127817.69278717
scalar OsgEarthNet.uav[38] utilizationEnergyMaintenance 46776.788337708
scalar OsgEarthNet.uav[38] utilizationEnergyCharge 173568.59912109
scalar OsgEarthNet.uav[38] utilizationEnergyOverdrawMission 0
scalar OsgEarthNet.uav[38] utilizationEnergyOverdrawMaintenance 0
scalar OsgEarthNet.uav[38] utilizationCountMissions 37
scalar OsgEarthNet.uav[38] utilizationCountManeuversMission 430
scalar OsgEarthNet.uav[38] utilizationCountManeuversMaintenance 74
scalar OsgEarthNet.uav[38] utilizationCountChargeState 37
scalar OsgEarthNet.uav[38] utilizationCountOverdrawnAfterMission 0
scalar OsgEarthNet.uav[38] utilizationCountIdleState 38
scalar OsgEarthNet.uav[38] utilizationFail 0
scalar OsgEarthNet.uav[38] simulationTime 259200
scalar OsgEarthNet.uav[39] utilizationSecMission 836.77707522227
scalar OsgEarthNet.uav[39] utilizationSecMaintenance 217.0347828456
scalar OsgEarthNet.uav[39] utilizationSecCharge 3870
scalar OsgEarthNet.uav[39] utilizationSecIdle 254276.18714193
scalar OsgEarthNet.uav[39] utilizationEnergyMission 3812.8532791138
scalar OsgEarthNet.uav[39] utilizationEnergyMaintenance 1148.305431366
scalar OsgEarthNet.uav[39] utilizationEnergyCharge 4961.1596679688
scalar OsgEarthNet.uav[39] utilizationEnergyOverdrawMission 0
scalar OsgEarthNet.uav[39] utilizationEnergyOverdrawMaintenance 0
scalar OsgEarthNet.uav[39] utilizationCountMissions 1
scalar OsgEarthNet.uav[39] utilizationCountManeuversMission 13
scalar OsgEarthNet.uav[39] utilizationCountManeuversMaintenance 2
scalar OsgEarthNet.uav[39] utilizationCountChargeState 1
scalar OsgEarthNet.uav[39] utilizationCountOverdrawnAfterMission 0
scalar OsgEarthNet.uav[39] utilizationCountIdleState 2
scalar OsgEarthNet.uav[39] utilizationFail 0
scalar OsgEarthNet.uav[39] simulationTime 259200
scalar OsgEarthNet.uav[40] utilizationSecMission 760.62515258028
scalar OsgEarthNet.uav[40] utilizationSecMaintenance 223.6438949726
scalar OsgEarthNet.uav[40] utilizationSecCharge 3750
scalar OsgEarthNet.uav[40] utilizationSecIdle 254465.72995245
scalar OsgEarthNet.uav[40] utilizationEnergyMission 3647.908203125
scalar OsgEarthNet.uav[40] utilizationEnergyMaintenance 1111.45936203
scalar OsgEarthNet.uav[40] utilizationEnergyCharge 4759.3696289062
scalar OsgEarthNet.uav[40] utilizationEnergyOverdrawMission 0
scalar OsgEarthNet.uav[40] utilizationEnergyOverdrawMaintenance 0
scalar OsgEarthNet.uav[40] utilizationCountMissions 1
scalar OsgEarthNet.uav[40] utilizationCountManeuversMission 12
scalar OsgEarthNet.uav[40] utilizationCountManeuversMaintenance 2
scalar OsgEarthNet.uav[40] utilizationCountChargeState 1
scalar OsgEarthNet.uav[40] utilizationCountOverdrawnAfterMission 0
scalar OsgEarthNet.uav[40] utilizationCountIdleState 2
scalar OsgEarthNet.uav[40] utilizationFail 0
scalar OsgEarthNet.uav[40] simulationTime 259200
scalar OsgEarthNet.uav[41] utilizationSecMission 8595.4934824552
scalar OsgEarthNet.uav[41] utilizationSecMaintenance 4493.9362372026
scalar OsgEarthNet.uav[41] utilizationSecCharge 48650
scalar OsgEarthNet.uav[41] utilizationSecIdle 197460.56928034
scalar OsgEarthNet.uav[41] utilizationEnergyMission 39183.051795959
scalar OsgEarthNet.uav[41] utilizationEnergyMaintenance 21711.67950058
scalar OsgEarthNet.uav[41] utilizationEnergyCharge 60975.227539062
scalar OsgEarthNet.uav[41] utilizationEnergyOverdrawMission 0
scalar OsgEarthNet.uav[41] utilizationEnergyOverdrawMaintenance 0
scalar OsgEarthNet.uav[41] utilizationCountMissions 13
scalar OsgEarthNet.uav[41] utilizationCountManeuversMission 147
scalar OsgEarthNet.uav[41] utilizationCountManeuversMaintenance 26
scalar OsgEarthNet.uav[41] utilizationCountChargeState 13
scalar OsgEarthNet.uav[41] utilizationCountOverdrawnAfterMission 0
scalar OsgEarthNet.uav[41] utilizationCountIdleState 14
scalar OsgEarthNet.uav[41] utilizationFail 0
scalar OsgEarthNet.uav[41] simulationTime 259200
scalar OsgEarthNet.uav[42] utilizationSecMission 5332.1003831755
scalar OsgEarthNet.uav[42] utilizationSecMaintenance 1810.8755657254
scalar OsgEarthNet.uav[42] utilizationSecCharge 26060
scalar OsgEarthNet.uav[42] utilizationSecIdle 225997.0230511
scalar OsgEarthNet.uav[42] utilizationEnergyMission 24739.462341309
scalar OsgEarthNet.uav[42] utilizationEnergyMaintenance 8323.1861114502
scalar OsgEarthNet.uav[42] utilizationEnergyCharge 32732.948730469
scalar OsgEarthNet.uav[42] utilizationEnergyOverdrawMission 0
scalar OsgEarthNet.uav[42] utilizationEnergyOverdrawMaintenance 0
scalar OsgEarthNet.uav[42] utilizationCountMissions 7
scalar OsgEarthNet.uav[42] utilizationCountManeuversMission 85
scalar OsgEarthNet.uav[42] utilizationCountManeuversMaintenance 14
scalar OsgEarthNet.uav[42] utilizationCountChargeState 7
scalar OsgEarthNet.uav[42] utilizationCountOverdrawnAfterMission 0
scalar OsgEarthNet.uav[42] utilizationCountIdleState 8
scalar OsgEarthNet.uav[42] utilizationFail 0
scalar OsgEarthNet.uav[42] simulationTime 259200
scalar OsgEarthNet.uav[43] utilizationSecMission 836.77707522227
scalar OsgEarthNet.uav[43] utilizationSecMaintenance 217.0347828456
scalar OsgEarthNet.uav[43] utilizationSecCharge 3940
scalar OsgEarthNet.uav[43] utilizationSecIdle 254206.18714193
scalar OsgEarthNet.uav[43] utilizationEnergyMission 3902.2844543457
scalar OsgEarthNet.uav[43] utilizationEnergyMaintenance 1169.4381828308
scalar OsgEarthNet.uav[43] utilizationEnergyCharge 5071.7265625
scalar OsgEarthNet.uav[43] utilizationEnergyOverdrawMission 0
scalar OsgEarthNet.uav[43] utilizationEnergyOverdrawMaintenance 0
scalar OsgEarthNet.uav[43] utilizationCountMissions 1
scalar OsgEarthNet.uav[43] utilizationCountManeuversMission 13
scalar OsgEarthNet.uav[43] utilizationCountManeuversMaintenance 2
scalar OsgEarthNet.uav[43] utilizationCountChargeState 1
scalar OsgEarthNet.uav[43] utilizationCountOverdrawnAfterMission 0
scalar OsgEarthNet.uav[43] utilizationCountIdleState 2
scalar OsgEarthNet.uav[43] utilizationFail 0
scalar OsgEarthNet.uav[43] simulationTime 259200
scalar OsgEarthNet.uav[44] utilizationSecMission 29907.279868869
scalar OsgEarthNet.uav[44] utilizationSecMaintenance 13633.6576687
scalar OsgEarthNet.uav[44] utilizationSecCharge 160769.50645785
scalar OsgEarthNet.uav[44] utilizationSecIdle 54889.555004578
scalar OsgEarthNet.uav[44] utilizationEnergyMission 138365.20923615
scalar OsgEarthNet.uav[44] utilizationEnergyMaintenance 63586.468826294
scalar OsgEarthNet.uav[44] utilizationEnergyCharge 201648.37744141
scalar OsgEarthNet.uav[44] utilizationEnergyOverdrawMission 0
scalar OsgEarthNet.uav[44] utilizationEnergyOverdrawMaintenance 0
scalar OsgEarthNet.uav[44] utilizationCountMissions 43
scalar OsgEarthNet.uav[44] utilizationCountManeuversMission 495
scalar OsgEarthNet.uav[44] utilizationCountManeuversMaintenance 86
scalar OsgEarthNet.uav[44] utilizationCountChargeState 43
scalar OsgEarthNet.uav[44] utilizationCountOverdrawnAfterMission 0
scalar OsgEarthNet.uav[44] utilizationCountIdleState 43
scalar OsgEarthNet.uav[44] utilizationFail 0
scalar OsgEarthNet.uav[44] simulationTime 259200
scalar OsgEarthNet.uav[45] utilizationSecMission 31311.673404667
scalar OsgEarthNet.uav[45] utilizationSecMaintenance 11846.325595333
scalar OsgEarthNet.uav[45] utilizationSecCharge 159540
scalar OsgEarthNet.uav[45] utilizationSecIdle 56502
scalar OsgEarthNet.uav[45] utilizationEnergyMission 145105.12027031
scalar OsgEarthNet.uav[45] utilizationEnergyMaintenance 54947.744304965
scalar OsgEarthNet.uav[45] utilizationEnergyCharge 199520.08300781
scalar OsgEarthNet.uav[45] utilizationEnergyOverdrawMission 0
scalar OsgEarthNet.uav[45] utilizationEnergyOverdrawMaintenance 0
scalar OsgEarthNet.uav[45] utilizationCountMissions 43
scalar OsgEarthNet.uav[45] utilizationCountManeuversMission 498
scalar OsgEarthNet.uav[45] utilizationCountManeuversMaintenance 86
scalar OsgEarthNet.uav[45] utilizationCountChargeState 43
scalar OsgEarthNet.uav[45] utilizationCountOverdrawnAfterMission 0
scalar OsgEarthNet.uav[45] utilizationCountIdleState 44
scalar OsgEarthNet.uav[45] utilizationFail 0
scalar OsgEarthNet.uav[45] simulationTime 259200
scalar OsgEarthNet.uav[46] utilizationSecMission 760.62515258028
scalar OsgEarthNet.uav[46] utilizationSecMaintenance 291.95923480269
scalar OsgEarthNet.uav[46] utilizationSecCharge 3740
scalar OsgEarthNet.uav[46] utilizationSecIdle 254407.41461262
scalar OsgEarthNet.uav[46] utilizationEnergyMission 3410.4413146973
scalar OsgEarthNet.uav[46] utilizationEnergyMaintenance 1338.9738998413
scalar OsgEarthNet.uav[46] utilizationEnergyCharge 4749.41796875
scalar OsgEarthNet.uav[46] utilizationEnergyOverdrawMission 0
scalar OsgEarthNet.uav[46] utilizationEnergyOverdrawMaintenance 0
scalar OsgEarthNet.uav[46] utilizationCountMissions 1
scalar OsgEarthNet.uav[46] utilizationCountManeuversMission 12
scalar OsgEarthNet.uav[46] utilizationCountManeuversMaintenance 2
scalar OsgEarthNet.uav[46] utilizationCountChargeState 1
scalar OsgEarthNet.uav[46] utilizationCountOverdrawnAfterMission 0
scalar OsgEarthNet.uav[46] utilizationCountIdleState 2
scalar OsgEarthNet.uav[46] utilizationFail 0
scalar OsgEarthNet.uav[46] simulationTime 259200
scalar OsgEarthNet.uav[47] utilizationSecMission 16329.420682558
scalar OsgEarthNet.uav[47] utilizationSecMaintenance 9741.2165510412
scalar OsgEarthNet.uav[47] utilizationSecCharge 96820
scalar OsgEarthNet.uav[47] utilizationSecIdle 136309.3617664
scalar OsgEarthNet.uav[47] utilizationEnergyMission 75887.130661011
scalar OsgEarthNet.uav[47] utilizationEnergyMaintenance 45610.150821686
scalar OsgEarthNet.uav[47] utilizationEnergyCharge 121449.42236328
scalar OsgEarthNet.uav[47] utilizationEnergyOverdrawMission 0
scalar OsgEarthNet.uav[47] utilizationEnergyOverdrawMaintenance 0
scalar OsgEarthNet.uav[47] utilizationCountMissions 26
scalar OsgEarthNet.uav[47] utilizationCountManeuversMission 270
scalar OsgEarthNet.uav[47] utilizationCountManeuversMaintenance 52
scalar OsgEarthNet.uav[47] utilizationCountChargeState 26
scalar OsgEarthNet.uav[47] utilizationCountOverdrawnAfterMission 0
scalar OsgEarthNet.uav[47] utilizationCountIdleState 27
scalar OsgEarthNet.uav[47] utilizationFail 0
scalar OsgEarthNet.uav[47] simulationTime 259200
scalar OsgEarthNet.uav[48] utilizationSecMission 694.00169469977
scalar OsgEarthNet.uav[48] utilizationSecMaintenance 282.18572599206
scalar OsgEarthNet.uav[48] utilizationSecCharge 3730
scalar OsgEarthNet.uav[48] utilizationSecIdle 254493.81157931
scalar OsgEarthNet.uav[48] utilizationEnergyMission 3355.4573364258
scalar OsgEarthNet.uav[48] utilizationEnergyMaintenance 1301.384727478
scalar OsgEarthNet.uav[48] utilizationEnergyCharge 4656.841796875
scalar OsgEarthNet.uav[48] utilizationEnergyOverdrawMission 0
scalar OsgEarthNet.uav[48] utilizationEnergyOverdrawMaintenance 0
scalar OsgEarthNet.uav[48] utilizationCountMissions 1
scalar OsgEarthNet.uav[48] utilizationCountManeuversMission 13
scalar OsgEarthNet.uav[48] utilizationCountManeuversMaintenance 2
scalar OsgEarthNet.uav[48] utilizationCountChargeState 1
scalar OsgEarthNet.uav[48] utilizationCountOverdrawnAfterMission 0
scalar OsgEarthNet.uav[48] utilizationCountIdleState 2
scalar OsgEarthNet.uav[48] utilizationFail 0
scalar OsgEarthNet.uav[48] simulationTime 259200
scalar OsgEarthNet.uav[49] utilizationSecMission 684.4732299383
scalar OsgEarthNet.uav[49] utilizationSecMaintenance 298.56834692969
scalar OsgEarthNet.uav[49] utilizationSecCharge 3740
scalar OsgEarthNet.uav[49] utilizationSecIdle 254476.95742313
scalar OsgEarthNet.uav[49] utilizationEnergyMission 3334.1408691406
scalar OsgEarthNet.uav[49] utilizationEnergyMaintenance 1393.7000961304
scalar OsgEarthNet.uav[49] utilizationEnergyCharge 4727.8408203125
scalar OsgEarthNet.uav[49] utilizationEnergyOverdrawMission 0
scalar OsgEarthNet.uav[49] utilizationEnergyOverdrawMaintenance 0
scalar OsgEarthNet.uav[49] utilizationCountMissions 1
scalar OsgEarthNet.uav[49] utilizationCountManeuversMission 11
scalar OsgEarthNet.uav[49] utilizationCountManeuversMaintenance 2
scalar OsgEarthNet.uav[49] utilizationCountChargeState 1
scalar OsgEarthNet.uav[49] utilizationCountOverdrawnAfterMission 0
scalar OsgEarthNet.uav[49] utilizationCountIdleState 2
scalar OsgEarthNet.uav[49] utilizationFail 0
scalar OsgEarthNet.uav[49] simulationTime 259200
scalar OsgEarthNet.uav[50] utilizationSecMission 836.77707522227
scalar OsgEarthNet.uav[50] utilizationSecMaintenance 217.0347828456
scalar OsgEarthNet.uav[50] utilizationSecCharge 3760
scalar OsgEarthNet.uav[50] utilizationSecIdle 254386.18714193
scalar OsgEarthNet.uav[50] utilizationEnergyMission 3733.7806549072
scalar OsgEarthNet.uav[50] utilizationEnergyMaintenance 1053.4221916199
scalar OsgEarthNet.uav[50] utilizationEnergyCharge 4787.1997070312
scalar OsgEarthNet.uav[50] utilizationEnergyOverdrawMission 0
scalar OsgEarthNet.uav[50] utilizationEnergyOverdrawMaintenance 0
scalar OsgEarthNet.uav[50] utilizationCountMissions 1
scalar OsgEarthNet.uav[50] utilizationCountManeuversMission 13
scalar OsgEarthNet.uav[50] utilizationCountManeuversMaintenance 2
scalar OsgEarthNet.uav[50] utilizationCountChargeState 1
scalar OsgEarthNet.uav[50] utilizationCountOverdrawnAfterMission 0
scalar OsgEarthNet.uav[50] utilizationCountIdleState 2
scalar OsgEarthNet.uav[50] utilizationFail 0
scalar OsgEarthNet.uav[50] simulationTime 259200
scalar OsgEarthNet.uav[51] utilizationSecMission 29211.952283295
scalar OsgEarthNet.uav[51] utilizationSecMaintenance 14526.742660054
scalar OsgEarthNet.uav[51] utilizationSecCharge 159660
scalar OsgEarthNet.uav[51] utilizationSecIdle 55801.304056651
scalar OsgEarthNet.uav[51] utilizationEnergyMission 136193.95403946
scalar OsgEarthNet.uav[51] utilizationEnergyMaintenance 67502.690322876
scalar OsgEarthNet.uav[51] utilizationEnergyCharge 200082.51269531
scalar OsgEarthNet.uav[51] utilizationEnergyOverdrawMission 0
scalar OsgEarthNet.uav[51] utilizationEnergyOverdrawMaintenance 0
scalar OsgEarthNet.uav[51] utilizationCountMissions 43
scalar OsgEarthNet.uav[51] utilizationCountManeuversMission 493
scalar OsgEarthNet.uav[51] utilizationCountManeuversMaintenance 87
scalar OsgEarthNet.uav[51] utilizationCountChargeState 43
scalar OsgEarthNet.uav[51] utilizationCountOverdrawnAfterMission 0
scalar OsgEarthNet.uav[51] utilizationCountIdleState 44
scalar OsgEarthNet.uav[51] utilizationFail 0
scalar OsgEarthNet.uav[51] simulationTime 259200
scalar OsgEarthNet.uav[52] utilizationSecMission 844.68187799363
scalar OsgEarthNet.uav[52] utilizationSecMaintenance 168.94893785192
scalar OsgEarthNet.uav[52] utilizationSecCharge 3740
scalar OsgEarthNet.uav[52] utilizationSecIdle 254446.36818415
scalar OsgEarthNet.uav[52] utilizationEnergyMission 4082.0697937012
scalar OsgEarthNet.uav[52] utilizationEnergyMaintenance 715.37501144409
scalar OsgEarthNet.uav[52] utilizationEnergyCharge 4651.2744140625
scalar OsgEarthNet.uav[52] utilizationEnergyOverdrawMission 0
scalar OsgEarthNet.uav[52] utilizationEnergyOverdrawMaintenance 0
scalar OsgEarthNet.uav[52] utilizationCountMissions 1
scalar OsgEarthNet.uav[52] utilizationCountManeuversMission 13
scalar OsgEarthNet.uav[52] utilizationCountManeuversMaintenance 2
scalar OsgEarthNet.uav[52] utilizationCountChargeState 1
scalar OsgEarthNet.uav[52] utilizationCountOverdrawnAfterMission 0
scalar OsgEarthNet.uav[52] utilizationCountIdleState 2
scalar OsgEarthNet.uav[52] utilizationFail 0
scalar OsgEarthNet.uav[52] simulationTime 259200
scalar OsgEarthNet.uav[53] utilizationSecMission 760.62515258028
scalar OsgEarthNet.uav[53] utilizationSecMaintenance 291.95923480269
scalar OsgEarthNet.uav[53] utilizationSecCharge 3840
scalar OsgEarthNet.uav[53] utilizationSecIdle 254307.41461262
scalar OsgEarthNet.uav[53] utilizationEnergyMission 3431.3479309082
scalar OsgEarthNet.uav[53] utilizationEnergyMaintenance 1481.7749252319
scalar OsgEarthNet.uav[53] utilizationEnergyCharge 4913.1181640625
scalar OsgEarthNet.uav[53] utilizationEnergyOverdrawMission 0
scalar OsgEarthNet.uav[53] utilizationEnergyOverdrawMaintenance 0
scalar OsgEarthNet.uav[53] utilizationCountMissions 1
scalar OsgEarthNet.uav[53] utilizationCountManeuversMission 12
scalar OsgEarthNet.uav[53] utilizationCountManeuversMaintenance 2
scalar OsgEarthNet.uav[53] utilizationCountChargeState 1
scalar OsgEarthNet.uav[53] utilizationCountOverdrawnAfterMission 0
scalar OsgEarthNet.uav[53] utilizationCountIdleState 2
scalar OsgEarthNet.uav[53] utilizationFail 0
scalar OsgEarthNet.uav[53] simulationTime 259200
scalar OsgEarthNet.uav[54] utilizationSecMission 28147.411448761
scalar OsgEarthNet.uav[54] utilizationSecMaintenance 13914.67063045
scalar OsgEarthNet.uav[54] utilizationSecCharge 152644.25074908
scalar OsgEarthNet.uav[54] utilizationSecIdle 64493.666171714
scalar OsgEarthNet.uav[54] utilizationEnergyMission 129378.69715118
scalar OsgEarthNet.uav[54] utilizationEnergyMaintenance 66006.43655777
scalar OsgEarthNet.uav[54] utilizationEnergyCharge 191394.41986084
scalar OsgEarthNet.uav[54] utilizationEnergyOverdrawMission 0
scalar OsgEarthNet.uav[54] utilizationEnergyOverdrawMaintenance 0
scalar OsgEarthNet.uav[54] utilizationCountMissions 42
scalar OsgEarthNet.uav[54] utilizationCountManeuversMission 459
scalar OsgEarthNet.uav[54] utilizationCountManeuversMaintenance 84
scalar OsgEarthNet.uav[54] utilizationCountChargeState 42
scalar OsgEarthNet.uav[54] utilizationCountOverdrawnAfterMission 0
scalar OsgEarthNet.uav[54] utilizationCountIdleState 42
scalar OsgEarthNet.uav[54] utilizationFail 0
scalar OsgEarthNet.uav[54] simulationTime 259200
scalar OsgEarthNet.uav[55] utilizationSecMission 694.00169469977
scalar OsgEarthNet.uav[55] utilizationSecMaintenance 338.49695459722
scalar OsgEarthNet.uav[55] utilizationSecCharge 3770
scalar OsgEarthNet.uav[55] utilizationSecIdle 254397.5003507
scalar OsgEarthNet.uav[55] utilizationEnergyMission 3063.6645774841
scalar OsgEarthNet.uav[55] utilizationEnergyMaintenance 1658.5781364441
scalar OsgEarthNet.uav[55] utilizationEnergyCharge 4722.244140625
scalar OsgEarthNet.uav[55] utilizationEnergyOverdrawMission 0
scalar OsgEarthNet.uav[55] utilizationEnergyOverdrawMaintenance 0
scalar OsgEarthNet.uav[55] utilizationCountMissions 1
scalar OsgEarthNet.uav[55] utilizationCountManeuversMission 13
scalar OsgEarthNet.uav[55] utilizationCountManeuversMaintenance 2
scalar OsgEarthNet.uav[55] utilizationCountChargeState 1
scalar OsgEarthNet.uav[55] utilizationCountOverdrawnAfterMission 0
scalar OsgEarthNet.uav[55] utilizationCountIdleState 2
scalar OsgEarthNet.uav[55] utilizationFail 0
scalar OsgEarthNet.uav[55] simulationTime 259200
scalar OsgEarthNet.uav[56] utilizationSecMission 760.62515258028
scalar OsgEarthNet.uav[56] utilizationSecMaintenance 291.95923480269
scalar OsgEarthNet.uav[56] utilizationSecCharge 3770
scalar OsgEarthNet.uav[56] utilizationSecIdle 254377.41461262
scalar OsgEarthNet.uav[56] utilizationEnergyMission 3538.7238922119
scalar OsgEarthNet.uav[56] utilizationEnergyMaintenance 1213.6823348999
scalar OsgEarthNet.uav[56] utilizationEnergyCharge 4752.4096679688
scalar OsgEarthNet.uav[56] utilizationEnergyOverdrawMission 0
scalar OsgEarthNet.uav[56] utilizationEnergyOverdrawMaintenance 0
scalar OsgEarthNet.uav[56] utilizationCountMissions 1
scalar OsgEarthNet.uav[56] utilizationCountManeuversMission 12
scalar OsgEarthNet.uav[56] utilizationCountManeuversMaintenance 2
scalar OsgEarthNet.uav[56] utilizationCountChargeState 1
scalar OsgEarthNet.uav[56] utilizationCountOverdrawnAfterMission 0
scalar OsgEarthNet.uav[56] utilizationCountIdleState 2
scalar OsgEarthNet.uav[56] utilizationFail 0
scalar OsgEarthNet.uav[56] simulationTime 259200
scalar OsgEarthNet.uav[57] utilizationSecMission 30264.553859433
scalar OsgEarthNet.uav[57] utilizationSecMaintenance 14019.624106562
scalar OsgEarthNet.uav[57] utilizationSecCharge 161443.82052662
scalar OsgEarthNet.uav[57] utilizationSecIdle 53472.000507383
scalar OsgEarthNet.uav[57] utilizationEnergyMission 139318.1437912
scalar OsgEarthNet.uav[57] utilizationEnergyMaintenance 65481.723934174
scalar OsgEarthNet.uav[57] utilizationEnergyCharge 203157.75317383
scalar OsgEarthNet.uav[57] utilizationEnergyOverdrawMission 0
scalar OsgEarthNet.uav[57] utilizationEnergyOverdrawMaintenance 0
scalar OsgEarthNet.uav[57] utilizationCountMissions 44
scalar OsgEarthNet.uav[57] utilizationCountManeuversMission 523
scalar OsgEarthNet.uav[57] utilizationCountManeuversMaintenance 88
scalar OsgEarthNet.uav[57] utilizationCountChargeState 44
scalar OsgEarthNet.uav[57] utilizationCountOverdrawnAfterMission 0
scalar OsgEarthNet.uav[57] utilizationCountIdleState 44
scalar OsgEarthNet.uav[57] utilizationFail 0
scalar OsgEarthNet.uav[57] simulationTime 259200
scalar OsgEarthNet.uav[58] utilizationSecMission 12347.819444836
scalar OsgEarthNet.uav[58] utilizationSecMaintenance 3888.6932178352
scalar OsgEarthNet.uav[58] utilizationSecCharge 59640
scalar OsgEarthNet.uav[58] utilizationSecIdle 183323.48633733
scalar OsgEarthNet.uav[58] utilizationEnergyMission 56366.94405365
scalar OsgEarthNet.uav[58] utilizationEnergyMaintenance 17968.76467514
scalar OsgEarthNet.uav[58] utilizationEnergyCharge 74802.937744141
scalar OsgEarthNet.uav[58] utilizationEnergyOverdrawMission 0
scalar OsgEarthNet.uav[58] utilizationEnergyOverdrawMaintenance 0
scalar OsgEarthNet.uav[58] utilizationCountMissions 16
scalar OsgEarthNet.uav[58] utilizationCountManeuversMission 196
scalar OsgEarthNet.uav[58] utilizationCountManeuversMaintenance 32
scalar OsgEarthNet.uav[58] utilizationCountChargeState 16
scalar OsgEarthNet.uav[58] utilizationCountOverdrawnAfterMission 0
scalar OsgEarthNet.uav[58] utilizationCountIdleState 17
scalar OsgEarthNet.uav[58] utilizationFail 0
scalar OsgEarthNet.uav[58] simulationTime 259200
scalar OsgEarthNet.uav[59] utilizationSecMission 702.6942798579
scalar OsgEarthNet.uav[59] utilizationSecMaintenance 282.29565405678
scalar OsgEarthNet.uav[59] utilizationSecCharge 3750
scalar OsgEarthNet.uav[59] utilizationSecIdle 254465.00906609
scalar OsgEarthNet.uav[59] utilizationEnergyMission 3293.2807769775
scalar OsgEarthNet.uav[59] utilizationEnergyMaintenance 1456.5904350281
scalar OsgEarthNet.uav[59] utilizationEnergyCharge 4749.8676757812
scalar OsgEarthNet.uav[59] utilizationEnergyOverdrawMission 0
scalar OsgEarthNet.uav[59] utilizationEnergyOverdrawMaintenance 0
scalar OsgEarthNet.uav[59] utilizationCountMissions 1
scalar OsgEarthNet.uav[59] utilizationCountManeuversMission 10
scalar OsgEarthNet.uav[59] utilizationCountManeuversMaintenance 2
scalar OsgEarthNet.uav[59] utilizationCountChargeState 1
scalar OsgEarthNet.uav[59] utilizationCountOverdrawnAfterMission 0
scalar OsgEarthNet.uav[59] utilizationCountIdleState 2
scalar OsgEarthNet.uav[59] utilizationFail 0
scalar OsgEarthNet.uav[59] simulationTime 259200
scalar OsgEarthNet.uav[60] utilizationSecMission 702.6942798579
scalar OsgEarthNet.uav[60] utilizationSecMaintenance 282.29565405678
scalar OsgEarthNet.uav[60] utilizationSecCharge 3730
scalar OsgEarthNet.uav[60] utilizationSecIdle 254485.00906609
scalar OsgEarthNet.uav[60] utilizationEnergyMission 3185.2968444824
scalar OsgEarthNet.uav[60] utilizationEnergyMaintenance 1488.1613578796
scalar OsgEarthNet.uav[60] utilizationEnergyCharge 4673.455078125
scalar OsgEarthNet.uav[60] utilizationEnergyOverdrawMission 0
scalar OsgEarthNet.uav[60] utilizationEnergyOverdrawMaintenance 0
scalar OsgEarthNet.uav[60] utilizationCountMissions 1
scalar OsgEarthNet.uav[60] utilizationCountManeuversMission 10
scalar OsgEarthNet.uav[60] utilizationCountManeuversMaintenance 2
scalar OsgEarthNet.uav[60] utilizationCountChargeState 1
scalar OsgEarthNet.uav[60] utilizationCountOverdrawnAfterMission 0
scalar OsgEarthNet.uav[60] utilizationCountIdleState 2
scalar OsgEarthNet.uav[60] utilizationFail 0
scalar OsgEarthNet.uav[60] simulationTime 259200
scalar OsgEarthNet.uav[61] utilizationSecMission 528.55000878666
scalar OsgEarthNet.uav[61] utilizationSecMaintenance 478.92797493542
scalar OsgEarthNet.uav[61] utilizationSecCharge 3620
scalar OsgEarthNet.uav[61] utilizationSecIdle 254572.52101628
scalar OsgEarthNet.uav[61] utilizationEnergyMission 2318.7311859131
scalar OsgEarthNet.uav[61] utilizationEnergyMaintenance 2239.0093002319
scalar OsgEarthNet.uav[61] utilizationEnergyCharge 4557.7407226562
scalar OsgEarthNet.uav[61] utilizationEnergyOverdrawMission 0
scalar OsgEarthNet.uav[61] utilizationEnergyOverdrawMaintenance 0
scalar OsgEarthNet.uav[61] utilizationCountMissions 1
scalar OsgEarthNet.uav[61] utilizationCountManeuversMission 10
scalar OsgEarthNet.uav[61] utilizationCountManeuversMaintenance 2
scalar OsgEarthNet.uav[61] utilizationCountChargeState 1
scalar OsgEarthNet.uav[61] utilizationCountOverdrawnAfterMission 0
scalar OsgEarthNet.uav[61] utilizationCountIdleState 2
scalar OsgEarthNet.uav[61] utilizationFail 0
scalar OsgEarthNet.uav[61] simulationTime 259200
scalar OsgEarthNet.uav[62] utilizationSecMission 1514.5726658684
scalar OsgEarthNet.uav[62] utilizationSecMaintenance 485.33300636808
scalar OsgEarthNet.uav[62] utilizationSecCharge 7400
scalar OsgEarthNet.uav[62] utilizationSecIdle 249800.09332776
scalar OsgEarthNet.uav[62] utilizationEnergyMission 6947.8609390259
scalar OsgEarthNet.uav[62] utilizationEnergyMaintenance 2185.0798988342
scalar OsgEarthNet.uav[62] utilizationEnergyCharge 9248.0185546875
scalar OsgEarthNet.uav[62] utilizationEnergyOverdrawMission 0
scalar OsgEarthNet.uav[62] utilizationEnergyOverdrawMaintenance 0
scalar OsgEarthNet.uav[62] utilizationCountMissions 2
scalar OsgEarthNet.uav[62] utilizationCountManeuversMission 26
scalar OsgEarthNet.uav[62] utilizationCountManeuversMaintenance 4
scalar OsgEarthNet.uav[62] utilizationCountChargeState 2
scalar OsgEarthNet.uav[62] utilizationCountOverdrawnAfterMission 0
scalar OsgEarthNet.uav[62] utilizationCountIdleState 3
scalar OsgEarthNet.uav[62] utilizationFail 0
scalar OsgEarthNet.uav[62] simulationTime 259200
scalar OsgEarthNet.uav[63] utilizationSecMission 836.77707522227
scalar OsgEarthNet.uav[63] utilizationSecMaintenance 217.0347828456
scalar OsgEarthNet.uav[63] utilizationSecCharge 3840
scalar OsgEarthNet.uav[63] utilizationSecIdle 254306.18714193
scalar OsgEarthNet.uav[63] utilizationEnergyMission 3859.126663208
scalar OsgEarthNet.uav[63] utilizationEnergyMaintenance 1051.0654716492
scalar OsgEarthNet.uav[63] utilizationEnergyCharge 4910.1918945312
scalar OsgEarthNet.uav[63] utilizationEnergyOverdrawMission 0
scalar OsgEarthNet.uav[63] utilizationEnergyOverdrawMaintenance 0
scalar OsgEarthNet.uav[63] utilizationCountMissions 1
scalar OsgEarthNet.uav[63] utilizationCountManeuversMission 13
scalar OsgEarthNet.uav[63] utilizationCountManeuversMaintenance 2
scalar OsgEarthNet.uav[63] utilizationCountChargeState 1
scalar OsgEarthNet.uav[63] utilizationCountOverdrawnAfterMission 0
scalar OsgEarthNet.uav[63] utilizationCountIdleState 2
scalar OsgEarthNet.uav[63] utilizationFail 0
scalar OsgEarthNet.uav[63] simulationTime 259200
scalar OsgEarthNet.uav[64] utilizationSecMission 26582.139499894
scalar OsgEarthNet.uav[64] utilizationSecMaintenance 14312.689651409
scalar OsgEarthNet.uav[64] utilizationSecCharge 150306.00106152
scalar OsgEarthNet.uav[64] utilizationSecIdle 67999.168787179
scalar OsgEarthNet.uav[64] utilizationEnergyMission 123020.47917938
scalar OsgEarthNet.uav[64] utilizationEnergyMaintenance 67312.927349091
scalar OsgEarthNet.uav[64] utilizationEnergyCharge 190025.58544922
scalar OsgEarthNet.uav[64] utilizationEnergyOverdrawMission 0
scalar OsgEarthNet.uav[64] utilizationEnergyOverdrawMaintenance 0
scalar OsgEarthNet.uav[64] utilizationCountMissions 40
scalar OsgEarthNet.uav[64] utilizationCountManeuversMission 445
scalar OsgEarthNet.uav[64] utilizationCountManeuversMaintenance 80
scalar OsgEarthNet.uav[64] utilizationCountChargeState 40
scalar OsgEarthNet.uav[64] utilizationCountOverdrawnAfterMission 0
scalar OsgEarthNet.uav[64] utilizationCountIdleState 40
scalar OsgEarthNet.uav[64] utilizationFail 0
scalar OsgEarthNet.uav[64] simulationTime 259200
scalar OsgEarthNet.uav[65] utilizationSecMission 28305.391160938
scalar OsgEarthNet.uav[65] utilizationSecMaintenance 12698.16026659
scalar OsgEarthNet.uav[65] utilizationSecCharge 149720
scalar OsgEarthNet.uav[65] utilizationSecIdle 68476.447572472
scalar OsgEarthNet.uav[65] utilizationEnergyMission 132124.35623442
[...]
scalar OsgEarthNet.uav[82] utilizationEnergyMission 80284.929876743
scalar OsgEarthNet.uav[82] utilizationEnergyMaintenance 36905.39630127
scalar OsgEarthNet.uav[82] utilizationEnergyCharge 112763.84326172
scalar OsgEarthNet.uav[82] utilizationEnergyOverdrawMission 0
scalar OsgEarthNet.uav[82] utilizationEnergyOverdrawMaintenance 0
scalar OsgEarthNet.uav[82] utilizationCountMissions 24
scalar OsgEarthNet.uav[82] utilizationCountManeuversMission 290
scalar OsgEarthNet.uav[82] utilizationCountManeuversMaintenance 49
scalar OsgEarthNet.uav[82] utilizationCountChargeState 24
scalar OsgEarthNet.uav[82] utilizationCountOverdrawnAfterMission 0
scalar OsgEarthNet.uav[82] utilizationCountIdleState 25
scalar OsgEarthNet.uav[82] utilizationFail 0
scalar OsgEarthNet.uav[82] simulationTime 259200
scalar OsgEarthNet.uav[83] utilizationSecMission 684.4732299383
scalar OsgEarthNet.uav[83] utilizationSecMaintenance 298.56834692969
scalar OsgEarthNet.uav[83] utilizationSecCharge 3680
scalar OsgEarthNet.uav[83] utilizationSecIdle 254536.95742313
scalar OsgEarthNet.uav[83] utilizationEnergyMission 3116.6551055908
scalar OsgEarthNet.uav[83] utilizationEnergyMaintenance 1495.4928207397
scalar OsgEarthNet.uav[83] utilizationEnergyCharge 4612.1459960938
scalar OsgEarthNet.uav[83] utilizationEnergyOverdrawMission 0
scalar OsgEarthNet.uav[83] utilizationEnergyOverdrawMaintenance 0
scalar OsgEarthNet.uav[83] utilizationCountMissions 1
scalar OsgEarthNet.uav[83] utilizationCountManeuversMission 11
scalar OsgEarthNet.uav[83] utilizationCountManeuversMaintenance 2
scalar OsgEarthNet.uav[83] utilizationCountChargeState 1
scalar OsgEarthNet.uav[83] utilizationCountOverdrawnAfterMission 0
scalar OsgEarthNet.uav[83] utilizationCountIdleState 2
scalar OsgEarthNet.uav[83] utilizationFail 0
scalar OsgEarthNet.uav[83] simulationTime 259200
scalar OsgEarthNet.uav[84] utilizationSecMission 27014.722863842
scalar OsgEarthNet.uav[84] utilizationSecMaintenance 15776.016706063
scalar OsgEarthNet.uav[84] utilizationSecCharge 157485.94578624
scalar OsgEarthNet.uav[84] utilizationSecIdle 58923.313643856
scalar OsgEarthNet.uav[84] utilizationEnergyMission 126164.10484314
scalar OsgEarthNet.uav[84] utilizationEnergyMaintenance 75100.685184479
scalar OsgEarthNet.uav[84] utilizationEnergyCharge 197723.77807617
scalar OsgEarthNet.uav[84] utilizationEnergyOverdrawMission 0
scalar OsgEarthNet.uav[84] utilizationEnergyOverdrawMaintenance 0
scalar OsgEarthNet.uav[84] utilizationCountMissions 43
scalar OsgEarthNet.uav[84] utilizationCountManeuversMission 450
scalar OsgEarthNet.uav[84] utilizationCountManeuversMaintenance 86
scalar OsgEarthNet.uav[84] utilizationCountChargeState 43
scalar OsgEarthNet.uav[84] utilizationCountOverdrawnAfterMission 0
scalar OsgEarthNet.uav[84] utilizationCountIdleState 43
scalar OsgEarthNet.uav[84] utilizationFail 0
scalar OsgEarthNet.uav[84] simulationTime 259200
scalar OsgEarthNet.uav[85] utilizationSecMission 750.20472747826
scalar OsgEarthNet.uav[85] utilizationSecMaintenance 280.95484451848
scalar OsgEarthNet.uav[85] utilizationSecCharge 3810
scalar OsgEarthNet.uav[85] utilizationSecIdle 254358.839428
scalar OsgEarthNet.uav[85] utilizationEnergyMission 3468.2788848877
scalar OsgEarthNet.uav[85] utilizationEnergyMaintenance 1321.9224967957
scalar OsgEarthNet.uav[85] utilizationEnergyCharge 4790.2016601562
scalar OsgEarthNet.uav[85] utilizationEnergyOverdrawMission 0
scalar OsgEarthNet.uav[85] utilizationEnergyOverdrawMaintenance 0
scalar OsgEarthNet.uav[85] utilizationCountMissions 1
scalar OsgEarthNet.uav[85] utilizationCountManeuversMission 11
scalar OsgEarthNet.uav[85] utilizationCountManeuversMaintenance 2
scalar OsgEarthNet.uav[85] utilizationCountChargeState 1
scalar OsgEarthNet.uav[85] utilizationCountOverdrawnAfterMission 0
scalar OsgEarthNet.uav[85] utilizationCountIdleState 2
scalar OsgEarthNet.uav[85] utilizationFail 0
scalar OsgEarthNet.uav[85] simulationTime 259200
scalar OsgEarthNet.uav[86] utilizationSecMission 623.68863475643
scalar OsgEarthNet.uav[86] utilizationSecMaintenance 394.94199877579
scalar OsgEarthNet.uav[86] utilizationSecCharge 3890
scalar OsgEarthNet.uav[86] utilizationSecIdle 254291.36836647
scalar OsgEarthNet.uav[86] utilizationEnergyMission 2868.3449707031
scalar OsgEarthNet.uav[86] utilizationEnergyMaintenance 1976.8194198608
scalar OsgEarthNet.uav[86] utilizationEnergyCharge 4950.1923828125
scalar OsgEarthNet.uav[86] utilizationEnergyOverdrawMission 0
scalar OsgEarthNet.uav[86] utilizationEnergyOverdrawMaintenance 0
scalar OsgEarthNet.uav[86] utilizationCountMissions 1
scalar OsgEarthNet.uav[86] utilizationCountManeuversMission 10
scalar OsgEarthNet.uav[86] utilizationCountManeuversMaintenance 2
scalar OsgEarthNet.uav[86] utilizationCountChargeState 1
scalar OsgEarthNet.uav[86] utilizationCountOverdrawnAfterMission 0
scalar OsgEarthNet.uav[86] utilizationCountIdleState 2
scalar OsgEarthNet.uav[86] utilizationFail 0
scalar OsgEarthNet.uav[86] simulationTime 259200
scalar OsgEarthNet.uav[87] utilizationSecMission 20118.423177695
scalar OsgEarthNet.uav[87] utilizationSecMaintenance 8790.1480089251
scalar OsgEarthNet.uav[87] utilizationSecCharge 106469.47099648
scalar OsgEarthNet.uav[87] utilizationSecIdle 123821.9568169
scalar OsgEarthNet.uav[87] utilizationEnergyMission 93009.612915039
scalar OsgEarthNet.uav[87] utilizationEnergyMaintenance 42009.585521698
scalar OsgEarthNet.uav[87] utilizationEnergyCharge 134483.69555664
scalar OsgEarthNet.uav[87] utilizationEnergyOverdrawMission 0
scalar OsgEarthNet.uav[87] utilizationEnergyOverdrawMaintenance 0
scalar OsgEarthNet.uav[87] utilizationCountMissions 29
scalar OsgEarthNet.uav[87] utilizationCountManeuversMission 319
scalar OsgEarthNet.uav[87] utilizationCountManeuversMaintenance 58
scalar OsgEarthNet.uav[87] utilizationCountChargeState 29
scalar OsgEarthNet.uav[87] utilizationCountOverdrawnAfterMission 0
scalar OsgEarthNet.uav[87] utilizationCountIdleState 29
scalar OsgEarthNet.uav[87] utilizationFail 0
scalar OsgEarthNet.uav[87] simulationTime 259200
scalar OsgEarthNet.uav[88] utilizationSecMission 887.1741082606
scalar OsgEarthNet.uav[88] utilizationSecMaintenance 181.20511066264
scalar OsgEarthNet.uav[88] utilizationSecCharge 3810
scalar OsgEarthNet.uav[88] utilizationSecIdle 254321.61978108
scalar OsgEarthNet.uav[88] utilizationEnergyMission 4141.5010223389
scalar OsgEarthNet.uav[88] utilizationEnergyMaintenance 834.17237472534
scalar OsgEarthNet.uav[88] utilizationEnergyCharge 4805.4760742188
scalar OsgEarthNet.uav[88] utilizationEnergyOverdrawMission 0
scalar OsgEarthNet.uav[88] utilizationEnergyOverdrawMaintenance 0
scalar OsgEarthNet.uav[88] utilizationCountMissions 1
scalar OsgEarthNet.uav[88] utilizationCountManeuversMission 14
scalar OsgEarthNet.uav[88] utilizationCountManeuversMaintenance 2
scalar OsgEarthNet.uav[88] utilizationCountChargeState 1
scalar OsgEarthNet.uav[88] utilizationCountOverdrawnAfterMission 0
scalar OsgEarthNet.uav[88] utilizationCountIdleState 2
scalar OsgEarthNet.uav[88] utilizationFail 0
scalar OsgEarthNet.uav[88] simulationTime 259200
scalar OsgEarthNet.uav[89] utilizationSecMission 760.62515258028
scalar OsgEarthNet.uav[89] utilizationSecMaintenance 291.95923480269
scalar OsgEarthNet.uav[89] utilizationSecCharge 3790
scalar OsgEarthNet.uav[89] utilizationSecIdle 254357.41461262
scalar OsgEarthNet.uav[89] utilizationEnergyMission 3406.2780761719
scalar OsgEarthNet.uav[89] utilizationEnergyMaintenance 1344.4231185913
scalar OsgEarthNet.uav[89] utilizationEnergyCharge 4750.6967773438
scalar OsgEarthNet.uav[89] utilizationEnergyOverdrawMission 0
scalar OsgEarthNet.uav[89] utilizationEnergyOverdrawMaintenance 0
scalar OsgEarthNet.uav[89] utilizationCountMissions 1
scalar OsgEarthNet.uav[89] utilizationCountManeuversMission 12
scalar OsgEarthNet.uav[89] utilizationCountManeuversMaintenance 2
scalar OsgEarthNet.uav[89] utilizationCountChargeState 1
scalar OsgEarthNet.uav[89] utilizationCountOverdrawnAfterMission 0
scalar OsgEarthNet.uav[89] utilizationCountIdleState 2
scalar OsgEarthNet.uav[89] utilizationFail 0
scalar OsgEarthNet.uav[89] simulationTime 259200
scalar OsgEarthNet.uav[90] utilizationSecMission 1298.5141543378
scalar OsgEarthNet.uav[90] utilizationSecMaintenance 733.06288470354
scalar OsgEarthNet.uav[90] utilizationSecCharge 7610
scalar OsgEarthNet.uav[90] utilizationSecIdle 249558.42196096
scalar OsgEarthNet.uav[90] utilizationEnergyMission 6249.1321716309
scalar OsgEarthNet.uav[90] utilizationEnergyMaintenance 3379.8563156128
scalar OsgEarthNet.uav[90] utilizationEnergyCharge 9628.98828125
scalar OsgEarthNet.uav[90] utilizationEnergyOverdrawMission 0
scalar OsgEarthNet.uav[90] utilizationEnergyOverdrawMaintenance 0
scalar OsgEarthNet.uav[90] utilizationCountMissions 2
scalar OsgEarthNet.uav[90] utilizationCountManeuversMission 21
scalar OsgEarthNet.uav[90] utilizationCountManeuversMaintenance 4
scalar OsgEarthNet.uav[90] utilizationCountChargeState 2
scalar OsgEarthNet.uav[90] utilizationCountOverdrawnAfterMission 0
scalar OsgEarthNet.uav[90] utilizationCountIdleState 3
scalar OsgEarthNet.uav[90] utilizationFail 0
scalar OsgEarthNet.uav[90] simulationTime 259200
scalar OsgEarthNet.uav[91] utilizationSecMission 27439.944307199
scalar OsgEarthNet.uav[91] utilizationSecMaintenance 12846.313058072
scalar OsgEarthNet.uav[91] utilizationSecCharge 145858.00654464
scalar OsgEarthNet.uav[91] utilizationSecIdle 73055.735090086
scalar OsgEarthNet.uav[91] utilizationEnergyMission 126635.83776093
scalar OsgEarthNet.uav[91] utilizationEnergyMaintenance 60060.536102295
scalar OsgEarthNet.uav[91] utilizationEnergyCharge 183346.4810791
scalar OsgEarthNet.uav[91] utilizationEnergyOverdrawMission 0
scalar OsgEarthNet.uav[91] utilizationEnergyOverdrawMaintenance 0
scalar OsgEarthNet.uav[91] utilizationCountMissions 40
scalar OsgEarthNet.uav[91] utilizationCountManeuversMission 451
scalar OsgEarthNet.uav[91] utilizationCountManeuversMaintenance 80
scalar OsgEarthNet.uav[91] utilizationCountChargeState 40
scalar OsgEarthNet.uav[91] utilizationCountOverdrawnAfterMission 0
scalar OsgEarthNet.uav[91] utilizationCountIdleState 40
scalar OsgEarthNet.uav[91] utilizationFail 0
scalar OsgEarthNet.uav[91] simulationTime 259200
scalar OsgEarthNet.uav[92] utilizationSecMission 31456.407731954
scalar OsgEarthNet.uav[92] utilizationSecMaintenance 13094.153550551
scalar OsgEarthNet.uav[92] utilizationSecCharge 163697.43771749
scalar OsgEarthNet.uav[92] utilizationSecIdle 50952
scalar OsgEarthNet.uav[92] utilizationEnergyMission 145276.9847309
scalar OsgEarthNet.uav[92] utilizationEnergyMaintenance 60460.334411621
scalar OsgEarthNet.uav[92] utilizationEnergyCharge 206381.84033203
scalar OsgEarthNet.uav[92] utilizationEnergyOverdrawMission 0
scalar OsgEarthNet.uav[92] utilizationEnergyOverdrawMaintenance 0
scalar OsgEarthNet.uav[92] utilizationCountMissions 44
scalar OsgEarthNet.uav[92] utilizationCountManeuversMission 504
scalar OsgEarthNet.uav[92] utilizationCountManeuversMaintenance 87
scalar OsgEarthNet.uav[92] utilizationCountChargeState 44
scalar OsgEarthNet.uav[92] utilizationCountOverdrawnAfterMission 0
scalar OsgEarthNet.uav[92] utilizationCountIdleState 44
scalar OsgEarthNet.uav[92] utilizationFail 0
scalar OsgEarthNet.uav[92] simulationTime 259200
scalar OsgEarthNet.uav[93] utilizationSecMission 2153.6247548508
scalar OsgEarthNet.uav[93] utilizationSecMaintenance 918.97654509787
scalar OsgEarthNet.uav[93] utilizationSecCharge 11390
scalar OsgEarthNet.uav[93] utilizationSecIdle 244737.39770005
scalar OsgEarthNet.uav[93] utilizationEnergyMission 10081.197677612
scalar OsgEarthNet.uav[93] utilizationEnergyMaintenance 4354.0026893616
scalar OsgEarthNet.uav[93] utilizationEnergyCharge 14467.926269531
scalar OsgEarthNet.uav[93] utilizationEnergyOverdrawMission 0
scalar OsgEarthNet.uav[93] utilizationEnergyOverdrawMaintenance 0
scalar OsgEarthNet.uav[93] utilizationCountMissions 3
scalar OsgEarthNet.uav[93] utilizationCountManeuversMission 33
scalar OsgEarthNet.uav[93] utilizationCountManeuversMaintenance 6
scalar OsgEarthNet.uav[93] utilizationCountChargeState 3
scalar OsgEarthNet.uav[93] utilizationCountOverdrawnAfterMission 0
scalar OsgEarthNet.uav[93] utilizationCountIdleState 4
scalar OsgEarthNet.uav[93] utilizationFail 0
scalar OsgEarthNet.uav[93] simulationTime 259200
scalar OsgEarthNet.uav[94] utilizationSecMission 28130.253000968
scalar OsgEarthNet.uav[94] utilizationSecMaintenance 13309.5365609
scalar OsgEarthNet.uav[94] utilizationSecCharge 149327.02434999
scalar OsgEarthNet.uav[94] utilizationSecIdle 68433.185088145
scalar OsgEarthNet.uav[94] utilizationEnergyMission 130632.71270752
scalar OsgEarthNet.uav[94] utilizationEnergyMaintenance 62001.064159393
scalar OsgEarthNet.uav[94] utilizationEnergyCharge 187270.94967651
scalar OsgEarthNet.uav[94] utilizationEnergyOverdrawMission 0
scalar OsgEarthNet.uav[94] utilizationEnergyOverdrawMaintenance 0
scalar OsgEarthNet.uav[94] utilizationCountMissions 41
scalar OsgEarthNet.uav[94] utilizationCountManeuversMission 455
scalar OsgEarthNet.uav[94] utilizationCountManeuversMaintenance 82
scalar OsgEarthNet.uav[94] utilizationCountChargeState 41
scalar OsgEarthNet.uav[94] utilizationCountOverdrawnAfterMission 0
scalar OsgEarthNet.uav[94] utilizationCountIdleState 41
scalar OsgEarthNet.uav[94] utilizationFail 0
scalar OsgEarthNet.uav[94] simulationTime 259200
scalar OsgEarthNet.uav[95] utilizationSecMission 23266.768425972
scalar OsgEarthNet.uav[95] utilizationSecMaintenance 10894.970300882
scalar OsgEarthNet.uav[95] utilizationSecCharge 123371.55491074
scalar OsgEarthNet.uav[95] utilizationSecIdle 101666.7053624
scalar OsgEarthNet.uav[95] utilizationEnergyMission 107048.60924149
scalar OsgEarthNet.uav[95] utilizationEnergyMaintenance 51455.635261536
scalar OsgEarthNet.uav[95] utilizationEnergyCharge 154858.1784668
scalar OsgEarthNet.uav[95] utilizationEnergyOverdrawMission 0
scalar OsgEarthNet.uav[95] utilizationEnergyOverdrawMaintenance 0
scalar OsgEarthNet.uav[95] utilizationCountMissions 34
scalar OsgEarthNet.uav[95] utilizationCountManeuversMission 376
scalar OsgEarthNet.uav[95] utilizationCountManeuversMaintenance 68
scalar OsgEarthNet.uav[95] utilizationCountChargeState 34
scalar OsgEarthNet.uav[95] utilizationCountOverdrawnAfterMission 0
scalar OsgEarthNet.uav[95] utilizationCountIdleState 34
scalar OsgEarthNet.uav[95] utilizationFail 0
scalar OsgEarthNet.uav[95] simulationTime 259200
scalar OsgEarthNet.uav[96] utilizationSecMission 31599.487664929
scalar OsgEarthNet.uav[96] utilizationSecMaintenance 12333.29914726
scalar OsgEarthNet.uav[96] utilizationSecCharge 158967.89507432
scalar OsgEarthNet.uav[96] utilizationSecIdle 56299.317113489
scalar OsgEarthNet.uav[96] utilizationEnergyMission 146233.5824852
scalar OsgEarthNet.uav[96] utilizationEnergyMaintenance 57373.067386627
scalar OsgEarthNet.uav[96] utilizationEnergyCharge 200606.36035156
scalar OsgEarthNet.uav[96] utilizationEnergyOverdrawMission 0
scalar OsgEarthNet.uav[96] utilizationEnergyOverdrawMaintenance 0
scalar OsgEarthNet.uav[96] utilizationCountMissions 43
scalar OsgEarthNet.uav[96] utilizationCountManeuversMission 504
scalar OsgEarthNet.uav[96] utilizationCountManeuversMaintenance 86
scalar OsgEarthNet.uav[96] utilizationCountChargeState 43
scalar OsgEarthNet.uav[96] utilizationCountOverdrawnAfterMission 0
scalar OsgEarthNet.uav[96] utilizationCountIdleState 43
scalar OsgEarthNet.uav[96] utilizationFail 0
scalar OsgEarthNet.uav[96] simulationTime 259200
scalar OsgEarthNet.uav[97] utilizationSecMission 22664.148873263
scalar OsgEarthNet.uav[97] utilizationSecMaintenance 13159.246252953
scalar OsgEarthNet.uav[97] utilizationSecCharge 131655.41338222
scalar OsgEarthNet.uav[97] utilizationSecIdle 91721.190491565
scalar OsgEarthNet.uav[97] utilizationEnergyMission 104404.84735107
scalar OsgEarthNet.uav[97] utilizationEnergyMaintenance 62630.435562134
scalar OsgEarthNet.uav[97] utilizationEnergyCharge 165503.55224609
scalar OsgEarthNet.uav[97] utilizationEnergyOverdrawMission 0
scalar OsgEarthNet.uav[97] utilizationEnergyOverdrawMaintenance 0
scalar OsgEarthNet.uav[97] utilizationCountMissions 36
scalar OsgEarthNet.uav[97] utilizationCountManeuversMission 394
scalar OsgEarthNet.uav[97] utilizationCountManeuversMaintenance 72
scalar OsgEarthNet.uav[97] utilizationCountChargeState 36
scalar OsgEarthNet.uav[97] utilizationCountOverdrawnAfterMission 0
scalar OsgEarthNet.uav[97] utilizationCountIdleState 36
scalar OsgEarthNet.uav[97] utilizationFail 0
scalar OsgEarthNet.uav[97] simulationTime 259200
scalar OsgEarthNet.uav[98] utilizationSecMission 29153.909179654
scalar OsgEarthNet.uav[98] utilizationSecMaintenance 14474.127362891
scalar OsgEarthNet.uav[98] utilizationSecCharge 160855.72062183
scalar OsgEarthNet.uav[98] utilizationSecIdle 54716.241835621
scalar OsgEarthNet.uav[98] utilizationEnergyMission 135476.63353729
scalar OsgEarthNet.uav[98] utilizationEnergyMaintenance 67770.715957642
scalar OsgEarthNet.uav[98] utilizationEnergyCharge 202099.11083984
scalar OsgEarthNet.uav[98] utilizationEnergyOverdrawMission 0
scalar OsgEarthNet.uav[98] utilizationEnergyOverdrawMaintenance 0
scalar OsgEarthNet.uav[98] utilizationCountMissions 44
scalar OsgEarthNet.uav[98] utilizationCountManeuversMission 487
scalar OsgEarthNet.uav[98] utilizationCountManeuversMaintenance 88
scalar OsgEarthNet.uav[98] utilizationCountChargeState 44
scalar OsgEarthNet.uav[98] utilizationCountOverdrawnAfterMission 0
scalar OsgEarthNet.uav[98] utilizationCountIdleState 44
scalar OsgEarthNet.uav[98] utilizationFail 0
scalar OsgEarthNet.uav[98] simulationTime 259200
scalar OsgEarthNet.uav[99] utilizationSecMission 9919.9390723099
scalar OsgEarthNet.uav[99] utilizationSecMaintenance 7293.4356170636
scalar OsgEarthNet.uav[99] utilizationSecCharge 63290
scalar OsgEarthNet.uav[99] utilizationSecIdle 178696.62431063
scalar OsgEarthNet.uav[99] utilizationEnergyMission 47104.494082558
scalar OsgEarthNet.uav[99] utilizationEnergyMaintenance 33801.366252899
scalar OsgEarthNet.uav[99] utilizationEnergyCharge 79182.923828125
scalar OsgEarthNet.uav[99] utilizationEnergyOverdrawMission 0
scalar OsgEarthNet.uav[99] utilizationEnergyOverdrawMaintenance 0
scalar OsgEarthNet.uav[99] utilizationCountMissions 17
scalar OsgEarthNet.uav[99] utilizationCountManeuversMission 161
scalar OsgEarthNet.uav[99] utilizationCountManeuversMaintenance 35
scalar OsgEarthNet.uav[99] utilizationCountChargeState 17
scalar OsgEarthNet.uav[99] utilizationCountOverdrawnAfterMission 0
scalar OsgEarthNet.uav[99] utilizationCountIdleState 18
scalar OsgEarthNet.uav[99] utilizationFail 0
scalar OsgEarthNet.uav[99] simulationTime 259200
scalar OsgEarthNet.cs[0] usedPower 502137.5109357
scalar OsgEarthNet.cs[0] chargedPower 502137.5109357
scalar OsgEarthNet.cs[0] chargedMobileNodes 106
scalar OsgEarthNet.cs[0] reservations 107
scalar OsgEarthNet.cs[1] usedPower 1066729.8986268
scalar OsgEarthNet.cs[1] chargedPower 1066729.8986268
scalar OsgEarthNet.cs[1] chargedMobileNodes 227
scalar OsgEarthNet.cs[1] reservations 229
scalar OsgEarthNet.cs[2] usedPower 2287427.6278219
scalar OsgEarthNet.cs[2] chargedPower 2287427.6278219
scalar OsgEarthNet.cs[2] chargedMobileNodes 481
scalar OsgEarthNet.cs[2] reservations 488
scalar OsgEarthNet.cs[3] usedPower 1162696.7119003
scalar OsgEarthNet.cs[3] chargedPower 1162696.7119003
scalar OsgEarthNet.cs[3] chargedMobileNodes 247
scalar OsgEarthNet.cs[3] reservations 250
scalar OsgEarthNet.cs[4] usedPower 709962.59921558
scalar OsgEarthNet.cs[4] chargedPower 709962.59921558
scalar OsgEarthNet.cs[4] chargedMobileNodes 150
scalar OsgEarthNet.cs[4] reservations 153
scalar OsgEarthNet.cs[5] usedPower 403321.94850405
scalar OsgEarthNet.cs[5] chargedPower 403321.94850405
scalar OsgEarthNet.cs[5] chargedMobileNodes 85
scalar OsgEarthNet.cs[5] reservations 86
scalar OsgEarthNet.cs[6] usedPower 2569005.5097397
scalar OsgEarthNet.cs[6] chargedPower 2569005.5097397
scalar OsgEarthNet.cs[6] chargedMobileNodes 544
scalar OsgEarthNet.cs[6] reservations 554

