version 2
run Szenario_Hotel_Gabelbach-76-20180718-22:47:54-5636
attr configname Szenario_Hotel_Gabelbach
attr datetime 20180718-22:47:54
attr experiment Szenario_Hotel_Gabelbach
attr inifile omnetpp.ini
attr iterationvars "$replM=2, $biWeight=0.35, $replSearchM=1, $numUAVs=56"
attr iterationvarsf replM=2,biWeight=0.35,replSearchM=1,numUAVs=56-
attr measurement "$replM=2, $biWeight=0.35, $replSearchM=1, $numUAVs=56"
attr network OsgEarthNet
attr processid 5636
attr repetition 28
attr replication #28
attr resultdir results
attr runnumber 76
attr seedset 76
itervar biWeight 0.35
itervar numUAVs 56
itervar replM 2
itervar replSearchM 1
param *.osgEarthScene.scene "\"Szenario_Hotel_Gabelbach.earth\""
param *.playgroundLatitude 50.6830269
param *.playgroundLongitude 10.8538055
param *.playgroundWidth 3500m
param *.playgroundHeight 3500m
param *.cs[0].posX 3537m
param *.cs[0].posY 965m
param *.cs[0].posZ 538m
param *.cs[1].posX 312m
param *.cs[1].posY 1262m
param *.cs[1].posZ 539m
param *.cs[2].posX 2185m
param *.cs[2].posY 3026m
param *.cs[2].posZ 777m
param *.cs[3].posX 10m
param *.cs[3].posY 2200m
param *.cs[3].posZ 560m
param *.cs[4].posX 750m
param *.cs[4].posY 200m
param *.cs[4].posZ 540m
param *.cs[5].posX 2450m
param *.cs[5].posY 180m
param *.cs[5].posZ 524m
param *.cs[6].posX 3140m
param *.cs[6].posY 1790m
param *.cs[6].posZ 606m
param *.numCSs 3
param *.uav[*].replacementMethod 2
param *.uav[*].weightedSumWeight 0.35
param *.missionControl.replacementSearchMethod 1
param *.numUAVs 56
param *.*.timeStep 10s
param *.uav[*].commandPreviewCommandCount 20
param *.missionControl.missionFiles "\"missions\\\\Szenario_WB_Hotel_Gabelbach_Mission_Hotel.waypoints,missions\\\\Szenario_WB_Hotel_Gabelbach_Mission_Kickelhahn.waypoints,missions\\\\Szenario_WB_Hotel_Gabelbach_Mission_Ilmenau_Sportplatz.waypoints,missions\\\\Szenario_WB_Hotel_Gabelbach_Mission_Manebach_Mitte.waypoints,missions\\\\Szenario_WB_Hotel_Gabelbach_Mission_Manebach_Sued.waypoints,missions\\\\Szenario_WB_Hotel_Gabelbach_Hover_HoheSchlaufe.waypoints,missions\\\\Szenario_WB_Hotel_Gabelbach_Hover_Kickelhahn.waypoints,missions\\\\Szenario_WB_Hotel_Gabelbach_Hover_Gabelbachskopf.waypoints,missions\\\\Szenario_WB_Hotel_Gabelbach_Hover_Dachskopf.waypoints\""
param *.uav[0].startX 3537m
param *.uav[0].startY 965m
param *.uav[0].startZ 539m
param *.uav[1].startX 312m
param *.uav[1].startY 1262m
param *.uav[1].startZ 540m
param *.uav[2].startX 2185m
param *.uav[2].startY 3026m
param *.uav[2].startZ 778m
param *.uav[3].startX 3537m
param *.uav[3].startY 965m
param *.uav[3].startZ 539m
param *.uav[4].startX 312m
param *.uav[4].startY 1262m
param *.uav[4].startZ 540m
param *.uav[5].startX 2185m
param *.uav[5].startY 3026m
param *.uav[5].startZ 778m
param *.uav[6].startX 3537m
param *.uav[6].startY 965m
param *.uav[6].startZ 539m
param *.uav[7].startX 312m
param *.uav[7].startY 1262m
param *.uav[7].startZ 540m
param *.uav[8].startX 2185m
param *.uav[8].startY 3026m
param *.uav[8].startZ 778m
param *.uav[9].startX 3537m
param *.uav[9].startY 965m
param *.uav[9].startZ 539m
param *.uav[10].startX 3537m
param *.uav[10].startY 965m
param *.uav[10].startZ 539m
param *.uav[11].startX 312m
param *.uav[11].startY 1262m
param *.uav[11].startZ 540m
param *.uav[12].startX 2185m
param *.uav[12].startY 3026m
param *.uav[12].startZ 778m
param *.uav[13].startX 3537m
param *.uav[13].startY 965m
param *.uav[13].startZ 539m
param *.uav[14].startX 312m
param *.uav[14].startY 1262m
param *.uav[14].startZ 540m
param *.uav[15].startX 2185m
param *.uav[15].startY 3026m
param *.uav[15].startZ 778m
param *.uav[16].startX 3537m
param *.uav[16].startY 965m
param *.uav[16].startZ 539m
param *.uav[17].startX 312m
param *.uav[17].startY 1262m
param *.uav[17].startZ 540m
param *.uav[18].startX 2185m
param *.uav[18].startY 3026m
param *.uav[18].startZ 778m
param *.uav[19].startX 3537m
param *.uav[19].startY 965m
param *.uav[19].startZ 539m
param *.uav[20].startX 3537m
param *.uav[20].startY 965m
param *.uav[20].startZ 539m
param *.uav[21].startX 312m
param *.uav[21].startY 1262m
param *.uav[21].startZ 540m
param *.uav[22].startX 2185m
param *.uav[22].startY 3026m
param *.uav[22].startZ 778m
param *.uav[23].startX 3537m
param *.uav[23].startY 965m
param *.uav[23].startZ 539m
param *.uav[24].startX 312m
param *.uav[24].startY 1262m
param *.uav[24].startZ 540m
param *.uav[25].startX 2185m
param *.uav[25].startY 3026m
param *.uav[25].startZ 778m
param *.uav[26].startX 3537m
param *.uav[26].startY 965m
param *.uav[26].startZ 539m
param *.uav[27].startX 312m
param *.uav[27].startY 1262m
param *.uav[27].startZ 540m
param *.uav[28].startX 2185m
param *.uav[28].startY 3026m
param *.uav[28].startZ 778m
param *.uav[29].startX 3537m
param *.uav[29].startY 965m
param *.uav[29].startZ 539m
param *.uav[30].startX 3537m
param *.uav[30].startY 965m
param *.uav[30].startZ 539m
param *.uav[31].startX 312m
param *.uav[31].startY 1262m
param *.uav[31].startZ 540m
param *.uav[32].startX 2185m
param *.uav[32].startY 3026m
param *.uav[32].startZ 778m
param *.uav[33].startX 3537m
param *.uav[33].startY 965m
param *.uav[33].startZ 539m
param *.uav[34].startX 312m
param *.uav[34].startY 1262m
param *.uav[34].startZ 540m
param *.uav[35].startX 2185m
param *.uav[35].startY 3026m
param *.uav[35].startZ 778m
param *.uav[36].startX 3537m
param *.uav[36].startY 965m
param *.uav[36].startZ 539m
param *.uav[37].startX 312m
param *.uav[37].startY 1262m
param *.uav[37].startZ 540m
param *.uav[38].startX 2185m
param *.uav[38].startY 3026m
param *.uav[38].startZ 778m
param *.uav[39].startX 3537m
param *.uav[39].startY 965m
param *.uav[39].startZ 539m
param *.uav[40].startX 3537m
param *.uav[40].startY 965m
param *.uav[40].startZ 539m
param *.uav[41].startX 312m
param *.uav[41].startY 1262m
param *.uav[41].startZ 540m
param *.uav[42].startX 2185m
param *.uav[42].startY 3026m
param *.uav[42].startZ 778m
param *.uav[43].startX 3537m
param *.uav[43].startY 965m
param *.uav[43].startZ 539m
param *.uav[44].startX 312m
param *.uav[44].startY 1262m
param *.uav[44].startZ 540m
param *.uav[45].startX 2185m
param *.uav[45].startY 3026m
param *.uav[45].startZ 778m
param *.uav[46].startX 3537m
param *.uav[46].startY 965m
param *.uav[46].startZ 539m
param *.uav[47].startX 312m
param *.uav[47].startY 1262m
param *.uav[47].startZ 540m
param *.uav[48].startX 2185m
param *.uav[48].startY 3026m
param *.uav[48].startZ 778m
param *.uav[49].startX 3537m
param *.uav[49].startY 965m
param *.uav[49].startZ 539m
param *.uav[50].startX 3537m
param *.uav[50].startY 965m
param *.uav[50].startZ 539m
param *.uav[51].startX 312m
param *.uav[51].startY 1262m
param *.uav[51].startZ 540m
param *.uav[52].startX 2185m
param *.uav[52].startY 3026m
param *.uav[52].startZ 778m
param *.uav[53].startX 3537m
param *.uav[53].startY 965m
param *.uav[53].startZ 539m
param *.uav[54].startX 312m
param *.uav[54].startY 1262m
param *.uav[54].startZ 540m
param *.uav[55].startX 2185m
param *.uav[55].startY 3026m
param *.uav[55].startZ 778m
param *.uav[56].startX 3537m
param *.uav[56].startY 965m
param *.uav[56].startZ 539m
param *.uav[57].startX 312m
param *.uav[57].startY 1262m
param *.uav[57].startZ 540m
param *.uav[58].startX 2185m
param *.uav[58].startY 3026m
param *.uav[58].startZ 778m
param *.uav[59].startX 3537m
param *.uav[59].startY 965m
param *.uav[59].startZ 539m
param *.uav[60].startX 3537m
param *.uav[60].startY 965m
param *.uav[60].startZ 539m
param *.uav[61].startX 312m
param *.uav[61].startY 1262m
param *.uav[61].startZ 540m
param *.uav[62].startX 2185m
param *.uav[62].startY 3026m
param *.uav[62].startZ 778m
param *.uav[63].startX 3537m
param *.uav[63].startY 965m
param *.uav[63].startZ 539m
param *.uav[64].startX 312m
param *.uav[64].startY 1262m
param *.uav[64].startZ 540m
param *.uav[65].startX 2185m
param *.uav[65].startY 3026m
param *.uav[65].startZ 778m
param *.uav[66].startX 3537m
param *.uav[66].startY 965m
param *.uav[66].startZ 539m
param *.uav[67].startX 312m
param *.uav[67].startY 1262m
param *.uav[67].startZ 540m
param *.uav[68].startX 2185m
param *.uav[68].startY 3026m
param *.uav[68].startZ 778m
param *.uav[69].startX 3537m
param *.uav[69].startY 965m
param *.uav[69].startZ 539m
param *.uav[70].startX 3537m
param *.uav[70].startY 965m
param *.uav[70].startZ 539m
param *.uav[71].startX 312m
param *.uav[71].startY 1262m
param *.uav[71].startZ 540m
param *.uav[72].startX 2185m
param *.uav[72].startY 3026m
param *.uav[72].startZ 778m
param *.uav[73].startX 3537m
param *.uav[73].startY 965m
param *.uav[73].startZ 539m
param *.uav[74].startX 312m
param *.uav[74].startY 1262m
param *.uav[74].startZ 540m
param *.uav[75].startX 2185m
param *.uav[75].startY 3026m
param *.uav[75].startZ 778m
param *.uav[76].startX 3537m
param *.uav[76].startY 965m
param *.uav[76].startZ 539m
param *.uav[77].startX 312m
param *.uav[77].startY 1262m
param *.uav[77].startZ 540m
param *.uav[78].startX 2185m
param *.uav[78].startY 3026m
param *.uav[78].startZ 778m
param *.uav[79].startX 3537m
param *.uav[79].startY 965m
param *.uav[79].startZ 539m
param *.uav[80].startX 3537m
param *.uav[80].startY 965m
param *.uav[80].startZ 539m
param *.uav[81].startX 312m
param *.uav[81].startY 1262m
param *.uav[81].startZ 540m
param *.uav[82].startX 2185m
param *.uav[82].startY 3026m
param *.uav[82].startZ 778m
param *.uav[83].startX 3537m
param *.uav[83].startY 965m
param *.uav[83].startZ 539m
param *.uav[84].startX 312m
param *.uav[84].startY 1262m
param *.uav[84].startZ 540m
param *.uav[85].startX 2185m
param *.uav[85].startY 3026m
param *.uav[85].startZ 778m
param *.uav[86].startX 3537m
param *.uav[86].startY 965m
param *.uav[86].startZ 539m
param *.uav[87].startX 312m
param *.uav[87].startY 1262m
param *.uav[87].startZ 540m
param *.uav[88].startX 2185m
param *.uav[88].startY 3026m
param *.uav[88].startZ 778m
param *.uav[89].startX 3537m
param *.uav[89].startY 965m
param *.uav[89].startZ 539m
param *.uav[90].startX 3537m
param *.uav[90].startY 965m
param *.uav[90].startZ 539m
param *.uav[91].startX 312m
param *.uav[91].startY 1262m
param *.uav[91].startZ 540m
param *.uav[92].startX 2185m
param *.uav[92].startY 3026m
param *.uav[92].startZ 778m
param *.uav[93].startX 3537m
param *.uav[93].startY 965m
param *.uav[93].startZ 539m
param *.uav[94].startX 312m
param *.uav[94].startY 1262m
param *.uav[94].startZ 540m
param *.uav[95].startX 2185m
param *.uav[95].startY 3026m
param *.uav[95].startZ 778m
param *.uav[96].startX 3537m
param *.uav[96].startY 965m
param *.uav[96].startZ 539m
param *.uav[97].startX 312m
param *.uav[97].startY 1262m
param *.uav[97].startZ 540m
param *.uav[98].startX 2185m
param *.uav[98].startY 3026m
param *.uav[98].startZ 778m
param *.uav[99].startX 3537m
param *.uav[99].startY 965m
param *.uav[99].startZ 539m
param *.osgEarthScene.scene "\"boston.earth\""
param *.playgroundLatitude 42.3558
param *.playgroundLongitude -71.0677
param *.playgroundWidth 400m
param *.playgroundHeight 200m
param *.channelController.connectionColor "\"#0000FF40\""
param *.channelController.showConnections false
param *.uav[*].modelURL "\"quadrocopter.small.obj.15.scale.0,0,90.rot\""
param *.uav[*].labelColor "\"#FF7C00CC\""
param *.uav[*].label2Color "\"#FF7C00EE\""
param *.uav[*].batteryCapacity 5200mAh
param *.uav[*].batteryRemaining uav[index].batteryCapacity
param *.uav[*].predictionQuantile 0.95
param *.uav[*].replacementMethod 2
param *.uav[*].weightedSumWeight 0.5
param *.cs[*].modelURL "\"chargingstation_v1.osgt.2.scale.0,0,0.rot.0,0,-15e-1.trans\""
param *.cs[*].spotsWaiting 999
param *.cs[*].spotsCharging 999
param *.cs[*].chargeEffectivenessPercentage 100
param *.cs[*].nonLinearPhaseStartPercentage 85
param *.cs[*].chargeCurrent 6.0A
param *.cs[*].prioritizeFastCharge true
param *.missionControl.replacementSearchMethod 0
param *.*.timeStep 9s

scalar OsgEarthNet.uav[0] utilizationSecMission 197337.66573789
scalar OsgEarthNet.uav[0] utilizationSecMaintenance 102720.32726211
scalar OsgEarthNet.uav[0] utilizationSecCharge 906940
scalar OsgEarthNet.uav[0] utilizationSecIdle 2602.006
scalar OsgEarthNet.uav[0] utilizationEnergyMission 954634.44728175
scalar OsgEarthNet.uav[0] utilizationEnergyMaintenance 480360.23093033
scalar OsgEarthNet.uav[0] utilizationEnergyCharge 1430194.519043
scalar OsgEarthNet.uav[0] utilizationEnergyOverdrawMission 0
scalar OsgEarthNet.uav[0] utilizationEnergyOverdrawMaintenance 0
scalar OsgEarthNet.uav[0] utilizationCountMissions 330
scalar OsgEarthNet.uav[0] utilizationCountManeuversMission 5979
scalar OsgEarthNet.uav[0] utilizationCountManeuversMaintenance 661
scalar OsgEarthNet.uav[0] utilizationCountChargeState 330
scalar OsgEarthNet.uav[0] utilizationCountOverdrawnAfterMission 0
scalar OsgEarthNet.uav[0] utilizationCountIdleState 1
scalar OsgEarthNet.uav[0] utilizationFail 0
scalar OsgEarthNet.uav[0] simulationTime 1209600
scalar OsgEarthNet.uav[1] utilizationSecMission 192125.99485636
scalar OsgEarthNet.uav[1] utilizationSecMaintenance 106361.70898637
scalar OsgEarthNet.uav[1] utilizationSecCharge 908441.76041688
scalar OsgEarthNet.uav[1] utilizationSecIdle 2670.5347403959
scalar OsgEarthNet.uav[1] utilizationEnergyMission 934559.21102142
scalar OsgEarthNet.uav[1] utilizationEnergyMaintenance 496819.49000931
scalar OsgEarthNet.uav[1] utilizationEnergyCharge 1428115.6972656
scalar OsgEarthNet.uav[1] utilizationEnergyOverdrawMission 0
scalar OsgEarthNet.uav[1] utilizationEnergyOverdrawMaintenance 0
scalar OsgEarthNet.uav[1] utilizationCountMissions 336
scalar OsgEarthNet.uav[1] utilizationCountManeuversMission 6102
scalar OsgEarthNet.uav[1] utilizationCountManeuversMaintenance 672
scalar OsgEarthNet.uav[1] utilizationCountChargeState 336
scalar OsgEarthNet.uav[1] utilizationCountOverdrawnAfterMission 0
scalar OsgEarthNet.uav[1] utilizationCountIdleState 1
scalar OsgEarthNet.uav[1] utilizationFail 0
scalar OsgEarthNet.uav[1] simulationTime 1209600
scalar OsgEarthNet.uav[2] utilizationSecMission 185251.50474248
scalar OsgEarthNet.uav[2] utilizationSecMaintenance 111816.01435499
scalar OsgEarthNet.uav[2] utilizationSecCharge 911563.30479212
scalar OsgEarthNet.uav[2] utilizationSecIdle 969.17511041073
scalar OsgEarthNet.uav[2] utilizationEnergyMission 894956.29052734
scalar OsgEarthNet.uav[2] utilizationEnergyMaintenance 527153.54404068
scalar OsgEarthNet.uav[2] utilizationEnergyCharge 1422784.8918457
scalar OsgEarthNet.uav[2] utilizationEnergyOverdrawMission 0
scalar OsgEarthNet.uav[2] utilizationEnergyOverdrawMaintenance 0
scalar OsgEarthNet.uav[2] utilizationCountMissions 342
scalar OsgEarthNet.uav[2] utilizationCountManeuversMission 5734
scalar OsgEarthNet.uav[2] utilizationCountManeuversMaintenance 684
scalar OsgEarthNet.uav[2] utilizationCountChargeState 342
scalar OsgEarthNet.uav[2] utilizationCountOverdrawnAfterMission 0
scalar OsgEarthNet.uav[2] utilizationCountIdleState 2
scalar OsgEarthNet.uav[2] utilizationFail 0
scalar OsgEarthNet.uav[2] simulationTime 1209600
scalar OsgEarthNet.uav[3] utilizationSecMission 182350.1714526
scalar OsgEarthNet.uav[3] utilizationSecMaintenance 120237.68280745
scalar OsgEarthNet.uav[3] utilizationSecCharge 904180
scalar OsgEarthNet.uav[3] utilizationSecIdle 2832.1447399488
scalar OsgEarthNet.uav[3] utilizationEnergyMission 892335.48386383
scalar OsgEarthNet.uav[3] utilizationEnergyMaintenance 568003.50371713
scalar OsgEarthNet.uav[3] utilizationEnergyCharge 1451175.4348145
scalar OsgEarthNet.uav[3] utilizationEnergyOverdrawMission 0
scalar OsgEarthNet.uav[3] utilizationEnergyOverdrawMaintenance 0
scalar OsgEarthNet.uav[3] utilizationCountMissions 341
scalar OsgEarthNet.uav[3] utilizationCountManeuversMission 6134
scalar OsgEarthNet.uav[3] utilizationCountManeuversMaintenance 682
scalar OsgEarthNet.uav[3] utilizationCountChargeState 340
scalar OsgEarthNet.uav[3] utilizationCountOverdrawnAfterMission 0
scalar OsgEarthNet.uav[3] utilizationCountIdleState 1
scalar OsgEarthNet.uav[3] utilizationFail 0
scalar OsgEarthNet.uav[3] simulationTime 1209600
scalar OsgEarthNet.uav[4] utilizationSecMission 197185.02213977
scalar OsgEarthNet.uav[4] utilizationSecMaintenance 103086.9770097
scalar OsgEarthNet.uav[4] utilizationSecCharge 907310
scalar OsgEarthNet.uav[4] utilizationSecIdle 2017.9998505245
scalar OsgEarthNet.uav[4] utilizationEnergyMission 953159.95104701
scalar OsgEarthNet.uav[4] utilizationEnergyMaintenance 481759.12403488
scalar OsgEarthNet.uav[4] utilizationEnergyCharge 1428612.333252
scalar OsgEarthNet.uav[4] utilizationEnergyOverdrawMission 0
scalar OsgEarthNet.uav[4] utilizationEnergyOverdrawMaintenance 0
scalar OsgEarthNet.uav[4] utilizationCountMissions 331
scalar OsgEarthNet.uav[4] utilizationCountManeuversMission 6019
scalar OsgEarthNet.uav[4] utilizationCountManeuversMaintenance 663
scalar OsgEarthNet.uav[4] utilizationCountChargeState 331
scalar OsgEarthNet.uav[4] utilizationCountOverdrawnAfterMission 0
scalar OsgEarthNet.uav[4] utilizationCountIdleState 2
scalar OsgEarthNet.uav[4] utilizationFail 0
scalar OsgEarthNet.uav[4] simulationTime 1209600
scalar OsgEarthNet.uav[5] utilizationSecMission 186826.5175403
scalar OsgEarthNet.uav[5] utilizationSecMaintenance 114119.36908579
scalar OsgEarthNet.uav[5] utilizationSecCharge 907992.1113739
scalar OsgEarthNet.uav[5] utilizationSecIdle 662.001
scalar OsgEarthNet.uav[5] utilizationEnergyMission 908934.83511734
scalar OsgEarthNet.uav[5] utilizationEnergyMaintenance 538009.18294144
scalar OsgEarthNet.uav[5] utilizationEnergyCharge 1442584.3840332
scalar OsgEarthNet.uav[5] utilizationEnergyOverdrawMission 0
scalar OsgEarthNet.uav[5] utilizationEnergyOverdrawMaintenance 0
scalar OsgEarthNet.uav[5] utilizationCountMissions 341
scalar OsgEarthNet.uav[5] utilizationCountManeuversMission 5910
scalar OsgEarthNet.uav[5] utilizationCountManeuversMaintenance 682
scalar OsgEarthNet.uav[5] utilizationCountChargeState 341
scalar OsgEarthNet.uav[5] utilizationCountOverdrawnAfterMission 0
scalar OsgEarthNet.uav[5] utilizationCountIdleState 1
scalar OsgEarthNet.uav[5] utilizationFail 0
scalar OsgEarthNet.uav[5] simulationTime 1209600
scalar OsgEarthNet.uav[6] utilizationSecMission 181959.32305997
scalar OsgEarthNet.uav[6] utilizationSecMaintenance 116073.30043077
scalar OsgEarthNet.uav[6] utilizationSecCharge 909845.37150926
scalar OsgEarthNet.uav[6] utilizationSecIdle 1722.004
scalar OsgEarthNet.uav[6] utilizationEnergyMission 886305.03988647
scalar OsgEarthNet.uav[6] utilizationEnergyMaintenance 547388.68768692
scalar OsgEarthNet.uav[6] utilizationEnergyCharge 1429221.1109009
scalar OsgEarthNet.uav[6] utilizationEnergyOverdrawMission 0
scalar OsgEarthNet.uav[6] utilizationEnergyOverdrawMaintenance 0
scalar OsgEarthNet.uav[6] utilizationCountMissions 343
scalar OsgEarthNet.uav[6] utilizationCountManeuversMission 5862
scalar OsgEarthNet.uav[6] utilizationCountManeuversMaintenance 686
scalar OsgEarthNet.uav[6] utilizationCountChargeState 343
scalar OsgEarthNet.uav[6] utilizationCountOverdrawnAfterMission 0
scalar OsgEarthNet.uav[6] utilizationCountIdleState 1
scalar OsgEarthNet.uav[6] utilizationFail 0
scalar OsgEarthNet.uav[6] simulationTime 1209600
scalar OsgEarthNet.uav[7] utilizationSecMission 180731.0128335
scalar OsgEarthNet.uav[7] utilizationSecMaintenance 113310.32152472
scalar OsgEarthNet.uav[7] utilizationSecCharge 915486.66464178
scalar OsgEarthNet.uav[7] utilizationSecIdle 72
scalar OsgEarthNet.uav[7] utilizationEnergyMission 883322.18748093
scalar OsgEarthNet.uav[7] utilizationEnergyMaintenance 534575.68692398
scalar OsgEarthNet.uav[7] utilizationEnergyCharge 1418338.2946777
scalar OsgEarthNet.uav[7] utilizationEnergyOverdrawMission 0
scalar OsgEarthNet.uav[7] utilizationEnergyOverdrawMaintenance 0
scalar OsgEarthNet.uav[7] utilizationCountMissions 339
scalar OsgEarthNet.uav[7] utilizationCountManeuversMission 6079
scalar OsgEarthNet.uav[7] utilizationCountManeuversMaintenance 678
scalar OsgEarthNet.uav[7] utilizationCountChargeState 339
scalar OsgEarthNet.uav[7] utilizationCountOverdrawnAfterMission 0
scalar OsgEarthNet.uav[7] utilizationCountIdleState 2
scalar OsgEarthNet.uav[7] utilizationFail 0
scalar OsgEarthNet.uav[7] simulationTime 1209600
scalar OsgEarthNet.uav[8] utilizationSecMission 190126.43033676
scalar OsgEarthNet.uav[8] utilizationSecMaintenance 108172.03940865
scalar OsgEarthNet.uav[8] utilizationSecCharge 909939.52725459
scalar OsgEarthNet.uav[8] utilizationSecIdle 1362.002
scalar OsgEarthNet.uav[8] utilizationEnergyMission 920278.2543869
scalar OsgEarthNet.uav[8] utilizationEnergyMaintenance 507865.7269783
scalar OsgEarthNet.uav[8] utilizationEnergyCharge 1426859.8564453
scalar OsgEarthNet.uav[8] utilizationEnergyOverdrawMission 0
scalar OsgEarthNet.uav[8] utilizationEnergyOverdrawMaintenance 0
scalar OsgEarthNet.uav[8] utilizationCountMissions 335
scalar OsgEarthNet.uav[8] utilizationCountManeuversMission 5943
scalar OsgEarthNet.uav[8] utilizationCountManeuversMaintenance 670
scalar OsgEarthNet.uav[8] utilizationCountChargeState 335
scalar OsgEarthNet.uav[8] utilizationCountOverdrawnAfterMission 0
scalar OsgEarthNet.uav[8] utilizationCountIdleState 1
scalar OsgEarthNet.uav[8] utilizationFail 0
scalar OsgEarthNet.uav[8] simulationTime 1209600
scalar OsgEarthNet.uav[9] utilizationSecMission 190460.62425158
scalar OsgEarthNet.uav[9] utilizationSecMaintenance 107364.77496965
scalar OsgEarthNet.uav[9] utilizationSecCharge 910472.59677877
scalar OsgEarthNet.uav[9] utilizationSecIdle 1302.003
scalar OsgEarthNet.uav[9] utilizationEnergyMission 922694.33138657
scalar OsgEarthNet.uav[9] utilizationEnergyMaintenance 506273.02204132
scalar OsgEarthNet.uav[9] utilizationEnergyCharge 1430547.8659668
scalar OsgEarthNet.uav[9] utilizationEnergyOverdrawMission 0
scalar OsgEarthNet.uav[9] utilizationEnergyOverdrawMaintenance 0
scalar OsgEarthNet.uav[9] utilizationCountMissions 334
scalar OsgEarthNet.uav[9] utilizationCountManeuversMission 5926
scalar OsgEarthNet.uav[9] utilizationCountManeuversMaintenance 668
scalar OsgEarthNet.uav[9] utilizationCountChargeState 334
scalar OsgEarthNet.uav[9] utilizationCountOverdrawnAfterMission 0
scalar OsgEarthNet.uav[9] utilizationCountIdleState 2
scalar OsgEarthNet.uav[9] utilizationFail 0
scalar OsgEarthNet.uav[9] simulationTime 1209600
scalar OsgEarthNet.uav[10] utilizationSecMission 194677.82369985
scalar OsgEarthNet.uav[10] utilizationSecMaintenance 107240.21477041
scalar OsgEarthNet.uav[10] utilizationSecCharge 907239.95952974
scalar OsgEarthNet.uav[10] utilizationSecIdle 442.001
scalar OsgEarthNet.uav[10] utilizationEnergyMission 941231.30422592
scalar OsgEarthNet.uav[10] utilizationEnergyMaintenance 503907.05850601
scalar OsgEarthNet.uav[10] utilizationEnergyCharge 1445565.1206055
scalar OsgEarthNet.uav[10] utilizationEnergyOverdrawMission 0
scalar OsgEarthNet.uav[10] utilizationEnergyOverdrawMaintenance 0
scalar OsgEarthNet.uav[10] utilizationCountMissions 335
scalar OsgEarthNet.uav[10] utilizationCountManeuversMission 6050
scalar OsgEarthNet.uav[10] utilizationCountManeuversMaintenance 670
scalar OsgEarthNet.uav[10] utilizationCountChargeState 335
scalar OsgEarthNet.uav[10] utilizationCountOverdrawnAfterMission 0
scalar OsgEarthNet.uav[10] utilizationCountIdleState 1
scalar OsgEarthNet.uav[10] utilizationFail 0
scalar OsgEarthNet.uav[10] simulationTime 1209600
scalar OsgEarthNet.uav[11] utilizationSecMission 196017.99676205
scalar OsgEarthNet.uav[11] utilizationSecMaintenance 104031.18996434
scalar OsgEarthNet.uav[11] utilizationSecCharge 906844.3880124
scalar OsgEarthNet.uav[11] utilizationSecIdle 2706.4242612234
scalar OsgEarthNet.uav[11] utilizationEnergyMission 944599.72328949
scalar OsgEarthNet.uav[11] utilizationEnergyMaintenance 487927.55000305
scalar OsgEarthNet.uav[11] utilizationEnergyCharge 1430361.6974487
scalar OsgEarthNet.uav[11] utilizationEnergyOverdrawMission 0
scalar OsgEarthNet.uav[11] utilizationEnergyOverdrawMaintenance 0
scalar OsgEarthNet.uav[11] utilizationCountMissions 330
scalar OsgEarthNet.uav[11] utilizationCountManeuversMission 6040
scalar OsgEarthNet.uav[11] utilizationCountManeuversMaintenance 660
scalar OsgEarthNet.uav[11] utilizationCountChargeState 330
scalar OsgEarthNet.uav[11] utilizationCountOverdrawnAfterMission 0
scalar OsgEarthNet.uav[11] utilizationCountIdleState 1
scalar OsgEarthNet.uav[11] utilizationFail 0
scalar OsgEarthNet.uav[11] simulationTime 1209600
scalar OsgEarthNet.uav[12] utilizationSecMission 184724.6263696
scalar OsgEarthNet.uav[12] utilizationSecMaintenance 113043.3696304
scalar OsgEarthNet.uav[12] utilizationSecCharge 909830
scalar OsgEarthNet.uav[12] utilizationSecIdle 2002.003
scalar OsgEarthNet.uav[12] utilizationEnergyMission 899576.76010059
scalar OsgEarthNet.uav[12] utilizationEnergyMaintenance 532192.07112122
scalar OsgEarthNet.uav[12] utilizationEnergyCharge 1431700.3249512
scalar OsgEarthNet.uav[12] utilizationEnergyOverdrawMission 0
scalar OsgEarthNet.uav[12] utilizationEnergyOverdrawMaintenance 0
scalar OsgEarthNet.uav[12] utilizationCountMissions 339
scalar OsgEarthNet.uav[12] utilizationCountManeuversMission 5989
scalar OsgEarthNet.uav[12] utilizationCountManeuversMaintenance 679
scalar OsgEarthNet.uav[12] utilizationCountChargeState 339
scalar OsgEarthNet.uav[12] utilizationCountOverdrawnAfterMission 0
scalar OsgEarthNet.uav[12] utilizationCountIdleState 1
scalar OsgEarthNet.uav[12] utilizationFail 0
scalar OsgEarthNet.uav[12] simulationTime 1209600
scalar OsgEarthNet.uav[13] utilizationSecMission 191934.39866097
scalar OsgEarthNet.uav[13] utilizationSecMaintenance 108458.37729327
scalar OsgEarthNet.uav[13] utilizationSecCharge 907015.21804575
scalar OsgEarthNet.uav[13] utilizationSecIdle 2192.005
scalar OsgEarthNet.uav[13] utilizationEnergyMission 928512.43683243
scalar OsgEarthNet.uav[13] utilizationEnergyMaintenance 508527.52494431
scalar OsgEarthNet.uav[13] utilizationEnergyCharge 1435271.8455811
scalar OsgEarthNet.uav[13] utilizationEnergyOverdrawMission 0
scalar OsgEarthNet.uav[13] utilizationEnergyOverdrawMaintenance 0
scalar OsgEarthNet.uav[13] utilizationCountMissions 337
scalar OsgEarthNet.uav[13] utilizationCountManeuversMission 6015
scalar OsgEarthNet.uav[13] utilizationCountManeuversMaintenance 674
scalar OsgEarthNet.uav[13] utilizationCountChargeState 337
scalar OsgEarthNet.uav[13] utilizationCountOverdrawnAfterMission 0
scalar OsgEarthNet.uav[13] utilizationCountIdleState 2
scalar OsgEarthNet.uav[13] utilizationFail 0
scalar OsgEarthNet.uav[13] simulationTime 1209600
scalar OsgEarthNet.uav[14] utilizationSecMission 197825.38131462
scalar OsgEarthNet.uav[14] utilizationSecMaintenance 100719.17659668
scalar OsgEarthNet.uav[14] utilizationSecCharge 909150
scalar OsgEarthNet.uav[14] utilizationSecIdle 1905.4410886909
scalar OsgEarthNet.uav[14] utilizationEnergyMission 963303.26882217
scalar OsgEarthNet.uav[14] utilizationEnergyMaintenance 469761.75240326
scalar OsgEarthNet.uav[14] utilizationEnergyCharge 1430277.2954102
scalar OsgEarthNet.uav[14] utilizationEnergyOverdrawMission 0
scalar OsgEarthNet.uav[14] utilizationEnergyOverdrawMaintenance 0
scalar OsgEarthNet.uav[14] utilizationCountMissions 329
scalar OsgEarthNet.uav[14] utilizationCountManeuversMission 6430
scalar OsgEarthNet.uav[14] utilizationCountManeuversMaintenance 659
scalar OsgEarthNet.uav[14] utilizationCountChargeState 329
scalar OsgEarthNet.uav[14] utilizationCountOverdrawnAfterMission 0
scalar OsgEarthNet.uav[14] utilizationCountIdleState 1
scalar OsgEarthNet.uav[14] utilizationFail 0
scalar OsgEarthNet.uav[14] simulationTime 1209600
scalar OsgEarthNet.uav[15] utilizationSecMission 194011.39313308
scalar OsgEarthNet.uav[15] utilizationSecMaintenance 107927.78869046
scalar OsgEarthNet.uav[15] utilizationSecCharge 907628.81717645
scalar OsgEarthNet.uav[15] utilizationSecIdle 32
scalar OsgEarthNet.uav[15] utilizationEnergyMission 941677.84219695
scalar OsgEarthNet.uav[15] utilizationEnergyMaintenance 504246.94665909
scalar OsgEarthNet.uav[15] utilizationEnergyCharge 1443931.5361328
scalar OsgEarthNet.uav[15] utilizationEnergyOverdrawMission 0
scalar OsgEarthNet.uav[15] utilizationEnergyOverdrawMaintenance 0
scalar OsgEarthNet.uav[15] utilizationCountMissions 333
scalar OsgEarthNet.uav[15] utilizationCountManeuversMission 6074
scalar OsgEarthNet.uav[15] utilizationCountManeuversMaintenance 665
scalar OsgEarthNet.uav[15] utilizationCountChargeState 333
scalar OsgEarthNet.uav[15] utilizationCountOverdrawnAfterMission 0
scalar OsgEarthNet.uav[15] utilizationCountIdleState 2
scalar OsgEarthNet.uav[15] utilizationFail 0
scalar OsgEarthNet.uav[15] simulationTime 1209600
scalar OsgEarthNet.uav[16] utilizationSecMission 190350.69866515
scalar OsgEarthNet.uav[16] utilizationSecMaintenance 105965.69423009
scalar OsgEarthNet.uav[16] utilizationSecCharge 909722.6558491
scalar OsgEarthNet.uav[16] utilizationSecIdle 3560.9502556647
scalar OsgEarthNet.uav[16] utilizationEnergyMission 924104.81639862
scalar OsgEarthNet.uav[16] utilizationEnergyMaintenance 497362.42134094
scalar OsgEarthNet.uav[16] utilizationEnergyCharge 1420749.6437988
scalar OsgEarthNet.uav[16] utilizationEnergyOverdrawMission 0
scalar OsgEarthNet.uav[16] utilizationEnergyOverdrawMaintenance 0
scalar OsgEarthNet.uav[16] utilizationCountMissions 335
scalar OsgEarthNet.uav[16] utilizationCountManeuversMission 5800
scalar OsgEarthNet.uav[16] utilizationCountManeuversMaintenance 670
scalar OsgEarthNet.uav[16] utilizationCountChargeState 335
scalar OsgEarthNet.uav[16] utilizationCountOverdrawnAfterMission 0
scalar OsgEarthNet.uav[16] utilizationCountIdleState 1
scalar OsgEarthNet.uav[16] utilizationFail 0
scalar OsgEarthNet.uav[16] simulationTime 1209600
scalar OsgEarthNet.uav[17] utilizationSecMission 180996.80230398
scalar OsgEarthNet.uav[17] utilizationSecMaintenance 114757.75360733
scalar OsgEarthNet.uav[17] utilizationSecCharge 911280
scalar OsgEarthNet.uav[17] utilizationSecIdle 2565.443088691
scalar OsgEarthNet.uav[17] utilizationEnergyMission 886371.74442809
scalar OsgEarthNet.uav[17] utilizationEnergyMaintenance 539485.37508011
scalar OsgEarthNet.uav[17] utilizationEnergyCharge 1421729.3007812
scalar OsgEarthNet.uav[17] utilizationEnergyOverdrawMission 0
scalar OsgEarthNet.uav[17] utilizationEnergyOverdrawMaintenance 0
scalar OsgEarthNet.uav[17] utilizationCountMissions 342
scalar OsgEarthNet.uav[17] utilizationCountManeuversMission 5950
scalar OsgEarthNet.uav[17] utilizationCountManeuversMaintenance 685
scalar OsgEarthNet.uav[17] utilizationCountChargeState 342
scalar OsgEarthNet.uav[17] utilizationCountOverdrawnAfterMission 0
scalar OsgEarthNet.uav[17] utilizationCountIdleState 2
scalar OsgEarthNet.uav[17] utilizationFail 0
scalar OsgEarthNet.uav[17] simulationTime 1209600
scalar OsgEarthNet.uav[18] utilizationSecMission 185414.630751
scalar OsgEarthNet.uav[18] utilizationSecMaintenance 114291.58604117
scalar OsgEarthNet.uav[18] utilizationSecCharge 909891.78220783
scalar OsgEarthNet.uav[18] utilizationSecIdle 2
scalar OsgEarthNet.uav[18] utilizationEnergyMission 901962.61132431
scalar OsgEarthNet.uav[18] utilizationEnergyMaintenance 537299.04706192
scalar OsgEarthNet.uav[18] utilizationEnergyCharge 1438806.9871826
scalar OsgEarthNet.uav[18] utilizationEnergyOverdrawMission 0
scalar OsgEarthNet.uav[18] utilizationEnergyOverdrawMaintenance 0
scalar OsgEarthNet.uav[18] utilizationCountMissions 337
scalar OsgEarthNet.uav[18] utilizationCountManeuversMission 6253
scalar OsgEarthNet.uav[18] utilizationCountManeuversMaintenance 674
scalar OsgEarthNet.uav[18] utilizationCountChargeState 337
scalar OsgEarthNet.uav[18] utilizationCountOverdrawnAfterMission 0
scalar OsgEarthNet.uav[18] utilizationCountIdleState 1
scalar OsgEarthNet.uav[18] utilizationFail 0
scalar OsgEarthNet.uav[18] simulationTime 1209600
scalar OsgEarthNet.uav[19] utilizationSecMission 187013.38219747
scalar OsgEarthNet.uav[19] utilizationSecMaintenance 112106.43600649
scalar OsgEarthNet.uav[19] utilizationSecCharge 906938.17279605
scalar OsgEarthNet.uav[19] utilizationSecIdle 3542.008
scalar OsgEarthNet.uav[19] utilizationEnergyMission 908916.39503098
scalar OsgEarthNet.uav[19] utilizationEnergyMaintenance 525416.97275543
scalar OsgEarthNet.uav[19] utilizationEnergyCharge 1428242.5766602
scalar OsgEarthNet.uav[19] utilizationEnergyOverdrawMission 0
scalar OsgEarthNet.uav[19] utilizationEnergyOverdrawMaintenance 0
scalar OsgEarthNet.uav[19] utilizationCountMissions 338
scalar OsgEarthNet.uav[19] utilizationCountManeuversMission 5917
scalar OsgEarthNet.uav[19] utilizationCountManeuversMaintenance 676
scalar OsgEarthNet.uav[19] utilizationCountChargeState 338
scalar OsgEarthNet.uav[19] utilizationCountOverdrawnAfterMission 0
scalar OsgEarthNet.uav[19] utilizationCountIdleState 1
scalar OsgEarthNet.uav[19] utilizationFail 0
scalar OsgEarthNet.uav[19] simulationTime 1209600
scalar OsgEarthNet.uav[20] utilizationSecMission 187896.83902229
scalar OsgEarthNet.uav[20] utilizationSecMaintenance 112804.44360318
scalar OsgEarthNet.uav[20] utilizationSecCharge 906050.13571766
scalar OsgEarthNet.uav[20] utilizationSecIdle 2848.5806568717
scalar OsgEarthNet.uav[20] utilizationEnergyMission 909712.09142685
scalar OsgEarthNet.uav[20] utilizationEnergyMaintenance 531173.2981987
scalar OsgEarthNet.uav[20] utilizationEnergyCharge 1434493.1755371
scalar OsgEarthNet.uav[20] utilizationEnergyOverdrawMission 0
scalar OsgEarthNet.uav[20] utilizationEnergyOverdrawMaintenance 0
scalar OsgEarthNet.uav[20] utilizationCountMissions 338
scalar OsgEarthNet.uav[20] utilizationCountManeuversMission 5933
scalar OsgEarthNet.uav[20] utilizationCountManeuversMaintenance 676
scalar OsgEarthNet.uav[20] utilizationCountChargeState 338
scalar OsgEarthNet.uav[20] utilizationCountOverdrawnAfterMission 0
scalar OsgEarthNet.uav[20] utilizationCountIdleState 1
scalar OsgEarthNet.uav[20] utilizationFail 0
scalar OsgEarthNet.uav[20] simulationTime 1209600
scalar OsgEarthNet.uav[21] utilizationSecMission 199629.05675984
scalar OsgEarthNet.uav[21] utilizationSecMaintenance 101840.06840605
scalar OsgEarthNet.uav[21] utilizationSecCharge 905905.43174542
scalar OsgEarthNet.uav[21] utilizationSecIdle 2225.4420886909
scalar OsgEarthNet.uav[21] utilizationEnergyMission 966847.26420593
scalar OsgEarthNet.uav[21] utilizationEnergyMaintenance 475467.2583847
scalar OsgEarthNet.uav[21] utilizationEnergyCharge 1440316.7548828
scalar OsgEarthNet.uav[21] utilizationEnergyOverdrawMission 0
scalar OsgEarthNet.uav[21] utilizationEnergyOverdrawMaintenance 0
scalar OsgEarthNet.uav[21] utilizationCountMissions 330
scalar OsgEarthNet.uav[21] utilizationCountManeuversMission 6146
scalar OsgEarthNet.uav[21] utilizationCountManeuversMaintenance 660
scalar OsgEarthNet.uav[21] utilizationCountChargeState 330
scalar OsgEarthNet.uav[21] utilizationCountOverdrawnAfterMission 0
scalar OsgEarthNet.uav[21] utilizationCountIdleState 1
scalar OsgEarthNet.uav[21] utilizationFail 0
scalar OsgEarthNet.uav[21] simulationTime 1209600
scalar OsgEarthNet.uav[22] utilizationSecMission 200477.72978482
scalar OsgEarthNet.uav[22] utilizationSecMaintenance 101494.74340266
scalar OsgEarthNet.uav[22] utilizationSecCharge 906938.3061986
scalar OsgEarthNet.uav[22] utilizationSecIdle 689.21961391566
scalar OsgEarthNet.uav[22] utilizationEnergyMission 967886.30411148
scalar OsgEarthNet.uav[22] utilizationEnergyMaintenance 472909.66910934
scalar OsgEarthNet.uav[22] utilizationEnergyCharge 1442812.3793945
scalar OsgEarthNet.uav[22] utilizationEnergyOverdrawMission 0
scalar OsgEarthNet.uav[22] utilizationEnergyOverdrawMaintenance 0
scalar OsgEarthNet.uav[22] utilizationCountMissions 332
scalar OsgEarthNet.uav[22] utilizationCountManeuversMission 6105
scalar OsgEarthNet.uav[22] utilizationCountManeuversMaintenance 664
scalar OsgEarthNet.uav[22] utilizationCountChargeState 332
scalar OsgEarthNet.uav[22] utilizationCountOverdrawnAfterMission 0
scalar OsgEarthNet.uav[22] utilizationCountIdleState 1
scalar OsgEarthNet.uav[22] utilizationFail 0
scalar OsgEarthNet.uav[22] simulationTime 1209600
scalar OsgEarthNet.uav[23] utilizationSecMission 193415.1703683
scalar OsgEarthNet.uav[23] utilizationSecMaintenance 107331.43651417
scalar OsgEarthNet.uav[23] utilizationSecCharge 905640
scalar OsgEarthNet.uav[23] utilizationSecIdle 3213.3921175336
scalar OsgEarthNet.uav[23] utilizationEnergyMission 933755.38961528
scalar OsgEarthNet.uav[23] utilizationEnergyMaintenance 505277.15711212
scalar OsgEarthNet.uav[23] utilizationEnergyCharge 1441862.6005859
scalar OsgEarthNet.uav[23] utilizationEnergyOverdrawMission 0
scalar OsgEarthNet.uav[23] utilizationEnergyOverdrawMaintenance 0
scalar OsgEarthNet.uav[23] utilizationCountMissions 335
scalar OsgEarthNet.uav[23] utilizationCountManeuversMission 5812
scalar OsgEarthNet.uav[23] utilizationCountManeuversMaintenance 671
scalar OsgEarthNet.uav[23] utilizationCountChargeState 335
scalar OsgEarthNet.uav[23] utilizationCountOverdrawnAfterMission 0
scalar OsgEarthNet.uav[23] utilizationCountIdleState 1
scalar OsgEarthNet.uav[23] utilizationFail 0
scalar OsgEarthNet.uav[23] simulationTime 1209600
scalar OsgEarthNet.uav[24] utilizationSecMission 202392.42462691
scalar OsgEarthNet.uav[24] utilizationSecMaintenance 99833.411214926
scalar OsgEarthNet.uav[24] utilizationSecCharge 905873.19917249
scalar OsgEarthNet.uav[24] utilizationSecIdle 1500.9639856735
scalar OsgEarthNet.uav[24] utilizationEnergyMission 977618.89416122
scalar OsgEarthNet.uav[24] utilizationEnergyMaintenance 467336.20719528
scalar OsgEarthNet.uav[24] utilizationEnergyCharge 1439562.1951904
scalar OsgEarthNet.uav[24] utilizationEnergyOverdrawMission 0
scalar OsgEarthNet.uav[24] utilizationEnergyOverdrawMaintenance 0
scalar OsgEarthNet.uav[24] utilizationCountMissions 330
scalar OsgEarthNet.uav[24] utilizationCountManeuversMission 6061
scalar OsgEarthNet.uav[24] utilizationCountManeuversMaintenance 660
scalar OsgEarthNet.uav[24] utilizationCountChargeState 330
scalar OsgEarthNet.uav[24] utilizationCountOverdrawnAfterMission 0
scalar OsgEarthNet.uav[24] utilizationCountIdleState 1
scalar OsgEarthNet.uav[24] utilizationFail 0
scalar OsgEarthNet.uav[24] simulationTime 1209600
scalar OsgEarthNet.uav[25] utilizationSecMission 215566.72230424
scalar OsgEarthNet.uav[25] utilizationSecMaintenance 86890.380091685
scalar OsgEarthNet.uav[25] utilizationSecCharge 906580.89560407
scalar OsgEarthNet.uav[25] utilizationSecIdle 562.001
scalar OsgEarthNet.uav[25] utilizationEnergyMission 1030378.9804764
scalar OsgEarthNet.uav[25] utilizationEnergyMaintenance 399985.27264786
scalar OsgEarthNet.uav[25] utilizationEnergyCharge 1432137.8432617
scalar OsgEarthNet.uav[25] utilizationEnergyOverdrawMission 0
scalar OsgEarthNet.uav[25] utilizationEnergyOverdrawMaintenance 0
scalar OsgEarthNet.uav[25] utilizationCountMissions 318
scalar OsgEarthNet.uav[25] utilizationCountManeuversMission 5926
scalar OsgEarthNet.uav[25] utilizationCountManeuversMaintenance 636
scalar OsgEarthNet.uav[25] utilizationCountChargeState 318
scalar OsgEarthNet.uav[25] utilizationCountOverdrawnAfterMission 0
scalar OsgEarthNet.uav[25] utilizationCountIdleState 2
scalar OsgEarthNet.uav[25] utilizationFail 0
scalar OsgEarthNet.uav[25] simulationTime 1209600
scalar OsgEarthNet.uav[26] utilizationSecMission 181022.82789913
scalar OsgEarthNet.uav[26] utilizationSecMaintenance 114717.7239933
scalar OsgEarthNet.uav[26] utilizationSecCharge 910818.49785191
scalar OsgEarthNet.uav[26] utilizationSecIdle 3040.9492556647
scalar OsgEarthNet.uav[26] utilizationEnergyMission 884408.2870636
scalar OsgEarthNet.uav[26] utilizationEnergyMaintenance 541685.71910477
scalar OsgEarthNet.uav[26] utilizationEnergyCharge 1421921.3740234
scalar OsgEarthNet.uav[26] utilizationEnergyOverdrawMission 0
scalar OsgEarthNet.uav[26] utilizationEnergyOverdrawMaintenance 0
scalar OsgEarthNet.uav[26] utilizationCountMissions 339
scalar OsgEarthNet.uav[26] utilizationCountManeuversMission 6034
scalar OsgEarthNet.uav[26] utilizationCountManeuversMaintenance 678
scalar OsgEarthNet.uav[26] utilizationCountChargeState 339
scalar OsgEarthNet.uav[26] utilizationCountOverdrawnAfterMission 0
scalar OsgEarthNet.uav[26] utilizationCountIdleState 1
scalar OsgEarthNet.uav[26] utilizationFail 0
scalar OsgEarthNet.uav[26] simulationTime 1209600
scalar OsgEarthNet.uav[27] utilizationSecMission 196124.51590164
scalar OsgEarthNet.uav[27] utilizationSecMaintenance 105718.34556075
scalar OsgEarthNet.uav[27] utilizationSecCharge 906645.13553761
scalar OsgEarthNet.uav[27] utilizationSecIdle 1112.002
scalar OsgEarthNet.uav[27] utilizationEnergyMission 950471.30508041
scalar OsgEarthNet.uav[27] utilizationEnergyMaintenance 494846.07442474
scalar OsgEarthNet.uav[27] utilizationEnergyCharge 1438883.0070801
scalar OsgEarthNet.uav[27] utilizationEnergyOverdrawMission 0
scalar OsgEarthNet.uav[27] utilizationEnergyOverdrawMaintenance 0
scalar OsgEarthNet.uav[27] utilizationCountMissions 333
scalar OsgEarthNet.uav[27] utilizationCountManeuversMission 6163
scalar OsgEarthNet.uav[27] utilizationCountManeuversMaintenance 666
scalar OsgEarthNet.uav[27] utilizationCountChargeState 333
scalar OsgEarthNet.uav[27] utilizationCountOverdrawnAfterMission 0
scalar OsgEarthNet.uav[27] utilizationCountIdleState 3
scalar OsgEarthNet.uav[27] utilizationFail 0
scalar OsgEarthNet.uav[27] simulationTime 1209600
scalar OsgEarthNet.uav[28] utilizationSecMission 177881.38873586
scalar OsgEarthNet.uav[28] utilizationSecMaintenance 119681.25819502
scalar OsgEarthNet.uav[28] utilizationSecCharge 910597.92672183
scalar OsgEarthNet.uav[28] utilizationSecIdle 1439.4253472904
scalar OsgEarthNet.uav[28] utilizationEnergyMission 867483.75990295
scalar OsgEarthNet.uav[28] utilizationEnergyMaintenance 565339.60473633
scalar OsgEarthNet.uav[28] utilizationEnergyCharge 1432303.3171387
scalar OsgEarthNet.uav[28] utilizationEnergyOverdrawMission 0
scalar OsgEarthNet.uav[28] utilizationEnergyOverdrawMaintenance 0
scalar OsgEarthNet.uav[28] utilizationCountMissions 346
scalar OsgEarthNet.uav[28] utilizationCountManeuversMission 5802
scalar OsgEarthNet.uav[28] utilizationCountManeuversMaintenance 692
scalar OsgEarthNet.uav[28] utilizationCountChargeState 346
scalar OsgEarthNet.uav[28] utilizationCountOverdrawnAfterMission 0
scalar OsgEarthNet.uav[28] utilizationCountIdleState 1
scalar OsgEarthNet.uav[28] utilizationFail 0
scalar OsgEarthNet.uav[28] simulationTime 1209600
scalar OsgEarthNet.uav[29] utilizationSecMission 182719.43269719
scalar OsgEarthNet.uav[29] utilizationSecMaintenance 113804.94134438
scalar OsgEarthNet.uav[29] utilizationSecCharge 910582.85899309
scalar OsgEarthNet.uav[29] utilizationSecIdle 2492.765965339
scalar OsgEarthNet.uav[29] utilizationEnergyMission 887537.47266769
scalar OsgEarthNet.uav[29] utilizationEnergyMaintenance 538251.73184967
scalar OsgEarthNet.uav[29] utilizationEnergyCharge 1416637.8016968
scalar OsgEarthNet.uav[29] utilizationEnergyOverdrawMission 0
scalar OsgEarthNet.uav[29] utilizationEnergyOverdrawMaintenance 0
scalar OsgEarthNet.uav[29] utilizationCountMissions 343
scalar OsgEarthNet.uav[29] utilizationCountManeuversMission 5618
scalar OsgEarthNet.uav[29] utilizationCountManeuversMaintenance 686
scalar OsgEarthNet.uav[29] utilizationCountChargeState 343
scalar OsgEarthNet.uav[29] utilizationCountOverdrawnAfterMission 0
scalar OsgEarthNet.uav[29] utilizationCountIdleState 2
scalar OsgEarthNet.uav[29] utilizationFail 0
scalar OsgEarthNet.uav[29] simulationTime 1209600
scalar OsgEarthNet.uav[30] utilizationSecMission 200853.55659105
scalar OsgEarthNet.uav[30] utilizationSecMaintenance 100525.31556912
scalar OsgEarthNet.uav[30] utilizationSecCharge 905753.81220451
scalar OsgEarthNet.uav[30] utilizationSecIdle 2467.3146353316
scalar OsgEarthNet.uav[30] utilizationEnergyMission 967043.94992065
scalar OsgEarthNet.uav[30] utilizationEnergyMaintenance 473241.7683754
scalar OsgEarthNet.uav[30] utilizationEnergyCharge 1441247.7731934
scalar OsgEarthNet.uav[30] utilizationEnergyOverdrawMission 0
scalar OsgEarthNet.uav[30] utilizationEnergyOverdrawMaintenance 0
scalar OsgEarthNet.uav[30] utilizationCountMissions 329
scalar OsgEarthNet.uav[30] utilizationCountManeuversMission 5957
scalar OsgEarthNet.uav[30] utilizationCountManeuversMaintenance 658
scalar OsgEarthNet.uav[30] utilizationCountChargeState 329
scalar OsgEarthNet.uav[30] utilizationCountOverdrawnAfterMission 0
scalar OsgEarthNet.uav[30] utilizationCountIdleState 1
scalar OsgEarthNet.uav[30] utilizationFail 0
scalar OsgEarthNet.uav[30] simulationTime 1209600
scalar OsgEarthNet.uav[31] utilizationSecMission 207862.424379
scalar OsgEarthNet.uav[31] utilizationSecMaintenance 94921.874119029
scalar OsgEarthNet.uav[31] utilizationSecCharge 905007.34689909
scalar OsgEarthNet.uav[31] utilizationSecIdle 1808.3536028792
scalar OsgEarthNet.uav[31] utilizationEnergyMission 1002174.6572609
scalar OsgEarthNet.uav[31] utilizationEnergyMaintenance 439580.36063766
scalar OsgEarthNet.uav[31] utilizationEnergyCharge 1432640.383728
scalar OsgEarthNet.uav[31] utilizationEnergyOverdrawMission 0
scalar OsgEarthNet.uav[31] utilizationEnergyOverdrawMaintenance 0
scalar OsgEarthNet.uav[31] utilizationCountMissions 323
scalar OsgEarthNet.uav[31] utilizationCountManeuversMission 6046
scalar OsgEarthNet.uav[31] utilizationCountManeuversMaintenance 646
scalar OsgEarthNet.uav[31] utilizationCountChargeState 323
scalar OsgEarthNet.uav[31] utilizationCountOverdrawnAfterMission 0
scalar OsgEarthNet.uav[31] utilizationCountIdleState 1
scalar OsgEarthNet.uav[31] utilizationFail 0
scalar OsgEarthNet.uav[31] simulationTime 1209600
scalar OsgEarthNet.uav[32] utilizationSecMission 207614.32114717
scalar OsgEarthNet.uav[32] utilizationSecMaintenance 95151.891061103
scalar OsgEarthNet.uav[32] utilizationSecCharge 906066.3365277
scalar OsgEarthNet.uav[32] utilizationSecIdle 767.4502640309
scalar OsgEarthNet.uav[32] utilizationEnergyMission 1010987.8591537
scalar OsgEarthNet.uav[32] utilizationEnergyMaintenance 441526.78729248
scalar OsgEarthNet.uav[32] utilizationEnergyCharge 1445642.8779297
scalar OsgEarthNet.uav[32] utilizationEnergyOverdrawMission 0
scalar OsgEarthNet.uav[32] utilizationEnergyOverdrawMaintenance 0
scalar OsgEarthNet.uav[32] utilizationCountMissions 325
scalar OsgEarthNet.uav[32] utilizationCountManeuversMission 6497
scalar OsgEarthNet.uav[32] utilizationCountManeuversMaintenance 650
scalar OsgEarthNet.uav[32] utilizationCountChargeState 325
scalar OsgEarthNet.uav[32] utilizationCountOverdrawnAfterMission 0
scalar OsgEarthNet.uav[32] utilizationCountIdleState 1
scalar OsgEarthNet.uav[32] utilizationFail 0
scalar OsgEarthNet.uav[32] simulationTime 1209600
scalar OsgEarthNet.uav[33] utilizationSecMission 193200.12763166
scalar OsgEarthNet.uav[33] utilizationSecMaintenance 102392.79583331
scalar OsgEarthNet.uav[33] utilizationSecCharge 910858.99255524
scalar OsgEarthNet.uav[33] utilizationSecIdle 3148.0829797894
scalar OsgEarthNet.uav[33] utilizationEnergyMission 939465.33435822
scalar OsgEarthNet.uav[33] utilizationEnergyMaintenance 478710.70695877
scalar OsgEarthNet.uav[33] utilizationEnergyCharge 1410486.8859253
scalar OsgEarthNet.uav[33] utilizationEnergyOverdrawMission 0
scalar OsgEarthNet.uav[33] utilizationEnergyOverdrawMaintenance 0
scalar OsgEarthNet.uav[33] utilizationCountMissions 330
scalar OsgEarthNet.uav[33] utilizationCountManeuversMission 6133
scalar OsgEarthNet.uav[33] utilizationCountManeuversMaintenance 660
scalar OsgEarthNet.uav[33] utilizationCountChargeState 330
scalar OsgEarthNet.uav[33] utilizationCountOverdrawnAfterMission 0
scalar OsgEarthNet.uav[33] utilizationCountIdleState 1
scalar OsgEarthNet.uav[33] utilizationFail 0
scalar OsgEarthNet.uav[33] simulationTime 1209600
scalar OsgEarthNet.uav[34] utilizationSecMission 200300.56996626
scalar OsgEarthNet.uav[34] utilizationSecMaintenance 100807.41897366
scalar OsgEarthNet.uav[34] utilizationSecCharge 907500.00855336
scalar OsgEarthNet.uav[34] utilizationSecIdle 992.00150672213
scalar OsgEarthNet.uav[34] utilizationEnergyMission 974532.32494354
scalar OsgEarthNet.uav[34] utilizationEnergyMaintenance 471370.16842651
scalar OsgEarthNet.uav[34] utilizationEnergyCharge 1439101.0178223
scalar OsgEarthNet.uav[34] utilizationEnergyOverdrawMission 0
scalar OsgEarthNet.uav[34] utilizationEnergyOverdrawMaintenance 0
scalar OsgEarthNet.uav[34] utilizationCountMissions 327
scalar OsgEarthNet.uav[34] utilizationCountManeuversMission 6200
scalar OsgEarthNet.uav[34] utilizationCountManeuversMaintenance 654
scalar OsgEarthNet.uav[34] utilizationCountChargeState 327
scalar OsgEarthNet.uav[34] utilizationCountOverdrawnAfterMission 0
scalar OsgEarthNet.uav[34] utilizationCountIdleState 2
scalar OsgEarthNet.uav[34] utilizationFail 0
scalar OsgEarthNet.uav[34] simulationTime 1209600
scalar OsgEarthNet.uav[35] utilizationSecMission 194193.39828541
scalar OsgEarthNet.uav[35] utilizationSecMaintenance 107985.91303007
scalar OsgEarthNet.uav[35] utilizationSecCharge 907378.68768453
scalar OsgEarthNet.uav[35] utilizationSecIdle 42
scalar OsgEarthNet.uav[35] utilizationEnergyMission 944845.27827454
scalar OsgEarthNet.uav[35] utilizationEnergyMaintenance 506432.53343964
scalar OsgEarthNet.uav[35] utilizationEnergyCharge 1444173.0982056
scalar OsgEarthNet.uav[35] utilizationEnergyOverdrawMission 0
scalar OsgEarthNet.uav[35] utilizationEnergyOverdrawMaintenance 0
scalar OsgEarthNet.uav[35] utilizationCountMissions 335
scalar OsgEarthNet.uav[35] utilizationCountManeuversMission 6269
scalar OsgEarthNet.uav[35] utilizationCountManeuversMaintenance 670
scalar OsgEarthNet.uav[35] utilizationCountChargeState 335
scalar OsgEarthNet.uav[35] utilizationCountOverdrawnAfterMission 0
scalar OsgEarthNet.uav[35] utilizationCountIdleState 2
scalar OsgEarthNet.uav[35] utilizationFail 0
scalar OsgEarthNet.uav[35] simulationTime 1209600
scalar OsgEarthNet.uav[36] utilizationSecMission 174859.62315631
scalar OsgEarthNet.uav[36] utilizationSecMaintenance 119538.37584369
scalar OsgEarthNet.uav[36] utilizationSecCharge 915200
scalar OsgEarthNet.uav[36] utilizationSecIdle 2
scalar OsgEarthNet.uav[36] utilizationEnergyMission 849855.87040329
scalar OsgEarthNet.uav[36] utilizationEnergyMaintenance 567976.65185936
scalar OsgEarthNet.uav[36] utilizationEnergyCharge 1414516.7944336
scalar OsgEarthNet.uav[36] utilizationEnergyOverdrawMission 0
scalar OsgEarthNet.uav[36] utilizationEnergyOverdrawMaintenance 0
scalar OsgEarthNet.uav[36] utilizationCountMissions 350
scalar OsgEarthNet.uav[36] utilizationCountManeuversMission 5450
scalar OsgEarthNet.uav[36] utilizationCountManeuversMaintenance 700
scalar OsgEarthNet.uav[36] utilizationCountChargeState 350
scalar OsgEarthNet.uav[36] utilizationCountOverdrawnAfterMission 0
scalar OsgEarthNet.uav[36] utilizationCountIdleState 1
scalar OsgEarthNet.uav[36] utilizationFail 0
scalar OsgEarthNet.uav[36] simulationTime 1209600
scalar OsgEarthNet.uav[37] utilizationSecMission 193916.16793798
scalar OsgEarthNet.uav[37] utilizationSecMaintenance 107124.36419738
scalar OsgEarthNet.uav[37] utilizationSecCharge 906413.04360341
scalar OsgEarthNet.uav[37] utilizationSecIdle 2146.4232612234
scalar OsgEarthNet.uav[37] utilizationEnergyMission 942106.82907104
scalar OsgEarthNet.uav[37] utilizationEnergyMaintenance 500481.61866379
scalar OsgEarthNet.uav[37] utilizationEnergyCharge 1434008.3046875
scalar OsgEarthNet.uav[37] utilizationEnergyOverdrawMission 0
scalar OsgEarthNet.uav[37] utilizationEnergyOverdrawMaintenance 0
scalar OsgEarthNet.uav[37] utilizationCountMissions 336
scalar OsgEarthNet.uav[37] utilizationCountManeuversMission 6117
scalar OsgEarthNet.uav[37] utilizationCountManeuversMaintenance 672
scalar OsgEarthNet.uav[37] utilizationCountChargeState 336
scalar OsgEarthNet.uav[37] utilizationCountOverdrawnAfterMission 0
scalar OsgEarthNet.uav[37] utilizationCountIdleState 1
scalar OsgEarthNet.uav[37] utilizationFail 0
scalar OsgEarthNet.uav[37] simulationTime 1209600
scalar OsgEarthNet.uav[38] utilizationSecMission 204124.29069292
scalar OsgEarthNet.uav[38] utilizationSecMaintenance 97939.150839917
scalar OsgEarthNet.uav[38] utilizationSecCharge 906065.10450844
scalar OsgEarthNet.uav[38] utilizationSecIdle 1471.4529587171
scalar OsgEarthNet.uav[38] utilizationEnergyMission 983124.50650787
scalar OsgEarthNet.uav[38] utilizationEnergyMaintenance 454356.0254631
scalar OsgEarthNet.uav[38] utilizationEnergyCharge 1434360.701416
scalar OsgEarthNet.uav[38] utilizationEnergyOverdrawMission 0
scalar OsgEarthNet.uav[38] utilizationEnergyOverdrawMaintenance 0
scalar OsgEarthNet.uav[38] utilizationCountMissions 328
scalar OsgEarthNet.uav[38] utilizationCountManeuversMission 6065
scalar OsgEarthNet.uav[38] utilizationCountManeuversMaintenance 656
scalar OsgEarthNet.uav[38] utilizationCountChargeState 328
scalar OsgEarthNet.uav[38] utilizationCountOverdrawnAfterMission 0
scalar OsgEarthNet.uav[38] utilizationCountIdleState 1
scalar OsgEarthNet.uav[38] utilizationFail 0
scalar OsgEarthNet.uav[38] simulationTime 1209600
scalar OsgEarthNet.uav[39] utilizationSecMission 200541.551965
scalar OsgEarthNet.uav[39] utilizationSecMaintenance 98455.837104047
scalar OsgEarthNet.uav[39] utilizationSecCharge 909740.60793095
scalar OsgEarthNet.uav[39] utilizationSecIdle 862.002
scalar OsgEarthNet.uav[39] utilizationEnergyMission 969751.09354019
scalar OsgEarthNet.uav[39] utilizationEnergyMaintenance 461025.06341553
scalar OsgEarthNet.uav[39] utilizationEnergyCharge 1428363.6447754
scalar OsgEarthNet.uav[39] utilizationEnergyOverdrawMission 0
scalar OsgEarthNet.uav[39] utilizationEnergyOverdrawMaintenance 0
scalar OsgEarthNet.uav[39] utilizationCountMissions 328
scalar OsgEarthNet.uav[39] utilizationCountManeuversMission 6192
scalar OsgEarthNet.uav[39] utilizationCountManeuversMaintenance 656
scalar OsgEarthNet.uav[39] utilizationCountChargeState 328
scalar OsgEarthNet.uav[39] utilizationCountOverdrawnAfterMission 0
scalar OsgEarthNet.uav[39] utilizationCountIdleState 1
scalar OsgEarthNet.uav[39] utilizationFail 0
scalar OsgEarthNet.uav[39] simulationTime 1209600
scalar OsgEarthNet.uav[40] utilizationSecMission 196857.21274326
scalar OsgEarthNet.uav[40] utilizationSecMaintenance 106333.10477328
scalar OsgEarthNet.uav[40] utilizationSecCharge 904617.54167031
scalar OsgEarthNet.uav[40] utilizationSecIdle 1792.1398131443
scalar OsgEarthNet.uav[40] utilizationEnergyMission 955212.85864258
scalar OsgEarthNet.uav[40] utilizationEnergyMaintenance 498914.71529388
scalar OsgEarthNet.uav[40] utilizationEnergyCharge 1447011.583252
scalar OsgEarthNet.uav[40] utilizationEnergyOverdrawMission 0
scalar OsgEarthNet.uav[40] utilizationEnergyOverdrawMaintenance 0
scalar OsgEarthNet.uav[40] utilizationCountMissions 332
scalar OsgEarthNet.uav[40] utilizationCountManeuversMission 6067
scalar OsgEarthNet.uav[40] utilizationCountManeuversMaintenance 664
scalar OsgEarthNet.uav[40] utilizationCountChargeState 332
scalar OsgEarthNet.uav[40] utilizationCountOverdrawnAfterMission 0
scalar OsgEarthNet.uav[40] utilizationCountIdleState 2
scalar OsgEarthNet.uav[40] utilizationFail 0
scalar OsgEarthNet.uav[40] simulationTime 1209600
scalar OsgEarthNet.uav[41] utilizationSecMission 196921.55800156
scalar OsgEarthNet.uav[41] utilizationSecMaintenance 104749.39814041
scalar OsgEarthNet.uav[41] utilizationSecCharge 907927.04285803
scalar OsgEarthNet.uav[41] utilizationSecIdle 2
scalar OsgEarthNet.uav[41] utilizationEnergyMission 955283.0938797
scalar OsgEarthNet.uav[41] utilizationEnergyMaintenance 488760.77493286
scalar OsgEarthNet.uav[41] utilizationEnergyCharge 1440370.7956543
scalar OsgEarthNet.uav[41] utilizationEnergyOverdrawMission 0
scalar OsgEarthNet.uav[41] utilizationEnergyOverdrawMaintenance 0
scalar OsgEarthNet.uav[41] utilizationCountMissions 332
scalar OsgEarthNet.uav[41] utilizationCountManeuversMission 5959
scalar OsgEarthNet.uav[41] utilizationCountManeuversMaintenance 663
scalar OsgEarthNet.uav[41] utilizationCountChargeState 332
scalar OsgEarthNet.uav[41] utilizationCountOverdrawnAfterMission 0
scalar OsgEarthNet.uav[41] utilizationCountIdleState 1
scalar OsgEarthNet.uav[41] utilizationFail 0
scalar OsgEarthNet.uav[41] simulationTime 1209600
scalar OsgEarthNet.uav[42] utilizationSecMission 191911.04697475
scalar OsgEarthNet.uav[42] utilizationSecMaintenance 102716.94902525
scalar OsgEarthNet.uav[42] utilizationSecCharge 913390
scalar OsgEarthNet.uav[42] utilizationSecIdle 1582.003
scalar OsgEarthNet.uav[42] utilizationEnergyMission 940013.21122624
scalar OsgEarthNet.uav[42] utilizationEnergyMaintenance 480930.49215698
scalar OsgEarthNet.uav[42] utilizationEnergyCharge 1414328.3217773
scalar OsgEarthNet.uav[42] utilizationEnergyOverdrawMission 0
scalar OsgEarthNet.uav[42] utilizationEnergyOverdrawMaintenance 0
scalar OsgEarthNet.uav[42] utilizationCountMissions 331
scalar OsgEarthNet.uav[42] utilizationCountManeuversMission 6217
scalar OsgEarthNet.uav[42] utilizationCountManeuversMaintenance 663
scalar OsgEarthNet.uav[42] utilizationCountChargeState 331
scalar OsgEarthNet.uav[42] utilizationCountOverdrawnAfterMission 0
scalar OsgEarthNet.uav[42] utilizationCountIdleState 1
scalar OsgEarthNet.uav[42] utilizationFail 0
scalar OsgEarthNet.uav[42] simulationTime 1209600
scalar OsgEarthNet.uav[43] utilizationSecMission 194678.61560852
scalar OsgEarthNet.uav[43] utilizationSecMaintenance 103659.86973053
scalar OsgEarthNet.uav[43] utilizationSecCharge 910360
scalar OsgEarthNet.uav[43] utilizationSecIdle 901.51366094966
scalar OsgEarthNet.uav[43] utilizationEnergyMission 938963.31448364
scalar OsgEarthNet.uav[43] utilizationEnergyMaintenance 484770.61148659
scalar OsgEarthNet.uav[43] utilizationEnergyCharge 1423214.3762207
scalar OsgEarthNet.uav[43] utilizationEnergyOverdrawMission 0
scalar OsgEarthNet.uav[43] utilizationEnergyOverdrawMaintenance 0
scalar OsgEarthNet.uav[43] utilizationCountMissions 331
scalar OsgEarthNet.uav[43] utilizationCountManeuversMission 5940
scalar OsgEarthNet.uav[43] utilizationCountManeuversMaintenance 663
scalar OsgEarthNet.uav[43] utilizationCountChargeState 331
scalar OsgEarthNet.uav[43] utilizationCountOverdrawnAfterMission 0
scalar OsgEarthNet.uav[43] utilizationCountIdleState 1
scalar OsgEarthNet.uav[43] utilizationFail 0
scalar OsgEarthNet.uav[43] simulationTime 1209600
scalar OsgEarthNet.uav[44] utilizationSecMission 179408.43498063
scalar OsgEarthNet.uav[44] utilizationSecMaintenance 121224.42690503
scalar OsgEarthNet.uav[44] utilizationSecCharge 908245.13611434
scalar OsgEarthNet.uav[44] utilizationSecIdle 722.001
scalar OsgEarthNet.uav[44] utilizationEnergyMission 878173.35279083
scalar OsgEarthNet.uav[44] utilizationEnergyMaintenance 572679.74160385
scalar OsgEarthNet.uav[44] utilizationEnergyCharge 1447878.8049011
scalar OsgEarthNet.uav[44] utilizationEnergyOverdrawMission 0
scalar OsgEarthNet.uav[44] utilizationEnergyOverdrawMaintenance 0
scalar OsgEarthNet.uav[44] utilizationCountMissions 342
scalar OsgEarthNet.uav[44] utilizationCountManeuversMission 6069
scalar OsgEarthNet.uav[44] utilizationCountManeuversMaintenance 684
scalar OsgEarthNet.uav[44] utilizationCountChargeState 342
scalar OsgEarthNet.uav[44] utilizationCountOverdrawnAfterMission 0
scalar OsgEarthNet.uav[44] utilizationCountIdleState 3
scalar OsgEarthNet.uav[44] utilizationFail 0
scalar OsgEarthNet.uav[44] simulationTime 1209600
scalar OsgEarthNet.uav[45] utilizationSecMission 188677.7404144
scalar OsgEarthNet.uav[45] utilizationSecMaintenance 111983.71777449
scalar OsgEarthNet.uav[45] utilizationSecCharge 907896.53881111
scalar OsgEarthNet.uav[45] utilizationSecIdle 1042.002
scalar OsgEarthNet.uav[45] utilizationEnergyMission 916265.45118713
scalar OsgEarthNet.uav[45] utilizationEnergyMaintenance 525952.90659714
scalar OsgEarthNet.uav[45] utilizationEnergyCharge 1448325.2636719
scalar OsgEarthNet.uav[45] utilizationEnergyOverdrawMission 0
scalar OsgEarthNet.uav[45] utilizationEnergyOverdrawMaintenance 0
scalar OsgEarthNet.uav[45] utilizationCountMissions 335
scalar OsgEarthNet.uav[45] utilizationCountManeuversMission 6236
scalar OsgEarthNet.uav[45] utilizationCountManeuversMaintenance 670
scalar OsgEarthNet.uav[45] utilizationCountChargeState 335
scalar OsgEarthNet.uav[45] utilizationCountOverdrawnAfterMission 0
scalar OsgEarthNet.uav[45] utilizationCountIdleState 1
scalar OsgEarthNet.uav[45] utilizationFail 0
scalar OsgEarthNet.uav[45] simulationTime 1209600
scalar OsgEarthNet.uav[46] utilizationSecMission 202750.09007205
scalar OsgEarthNet.uav[46] utilizationSecMaintenance 97051.405927862
scalar OsgEarthNet.uav[46] utilizationSecCharge 906716.49600009
scalar OsgEarthNet.uav[46] utilizationSecIdle 3082.007
scalar OsgEarthNet.uav[46] utilizationEnergyMission 979054.6692009
scalar OsgEarthNet.uav[46] utilizationEnergyMaintenance 447549.19699478
scalar OsgEarthNet.uav[46] utilizationEnergyCharge 1427059.4934082
scalar OsgEarthNet.uav[46] utilizationEnergyOverdrawMission 0
scalar OsgEarthNet.uav[46] utilizationEnergyOverdrawMaintenance 0
scalar OsgEarthNet.uav[46] utilizationCountMissions 327
scalar OsgEarthNet.uav[46] utilizationCountManeuversMission 6066
scalar OsgEarthNet.uav[46] utilizationCountManeuversMaintenance 654
scalar OsgEarthNet.uav[46] utilizationCountChargeState 327
scalar OsgEarthNet.uav[46] utilizationCountOverdrawnAfterMission 0
scalar OsgEarthNet.uav[46] utilizationCountIdleState 1
scalar OsgEarthNet.uav[46] utilizationFail 0
scalar OsgEarthNet.uav[46] simulationTime 1209600
scalar OsgEarthNet.uav[47] utilizationSecMission 174963.00166538
scalar OsgEarthNet.uav[47] utilizationSecMaintenance 123158.83778772
scalar OsgEarthNet.uav[47] utilizationSecCharge 909060.84346507
scalar OsgEarthNet.uav[47] utilizationSecIdle 2417.3160818306
scalar OsgEarthNet.uav[47] utilizationEnergyMission 854476.44428635
scalar OsgEarthNet.uav[47] utilizationEnergyMaintenance 584386.82580185
scalar OsgEarthNet.uav[47] utilizationEnergyCharge 1433422.7434082
scalar OsgEarthNet.uav[47] utilizationEnergyOverdrawMission 0
scalar OsgEarthNet.uav[47] utilizationEnergyOverdrawMaintenance 0
scalar OsgEarthNet.uav[47] utilizationCountMissions 347
scalar OsgEarthNet.uav[47] utilizationCountManeuversMission 5804
scalar OsgEarthNet.uav[47] utilizationCountManeuversMaintenance 694
scalar OsgEarthNet.uav[47] utilizationCountChargeState 347
scalar OsgEarthNet.uav[47] utilizationCountOverdrawnAfterMission 0
scalar OsgEarthNet.uav[47] utilizationCountIdleState 1
scalar OsgEarthNet.uav[47] utilizationFail 0
scalar OsgEarthNet.uav[47] simulationTime 1209600
scalar OsgEarthNet.uav[48] utilizationSecMission 197026.89446419
scalar OsgEarthNet.uav[48] utilizationSecMaintenance 100333.47345515
scalar OsgEarthNet.uav[48] utilizationSecCharge 910050
scalar OsgEarthNet.uav[48] utilizationSecIdle 2189.6310806652
scalar OsgEarthNet.uav[48] utilizationEnergyMission 951248.44476413
scalar OsgEarthNet.uav[48] utilizationEnergyMaintenance 466267.58814621
scalar OsgEarthNet.uav[48] utilizationEnergyCharge 1410853.505127
scalar OsgEarthNet.uav[48] utilizationEnergyOverdrawMission 0
scalar OsgEarthNet.uav[48] utilizationEnergyOverdrawMaintenance 0
scalar OsgEarthNet.uav[48] utilizationCountMissions 331
scalar OsgEarthNet.uav[48] utilizationCountManeuversMission 5850
scalar OsgEarthNet.uav[48] utilizationCountManeuversMaintenance 663
scalar OsgEarthNet.uav[48] utilizationCountChargeState 331
scalar OsgEarthNet.uav[48] utilizationCountOverdrawnAfterMission 0
scalar OsgEarthNet.uav[48] utilizationCountIdleState 1
scalar OsgEarthNet.uav[48] utilizationFail 0
scalar OsgEarthNet.uav[48] simulationTime 1209600
scalar OsgEarthNet.uav[49] utilizationSecMission 184861.53609167
scalar OsgEarthNet.uav[49] utilizationSecMaintenance 113810.76264018
scalar OsgEarthNet.uav[49] utilizationSecCharge 910925.70026815
scalar OsgEarthNet.uav[49] utilizationSecIdle 2
scalar OsgEarthNet.uav[49] utilizationEnergyMission 900273.08488464
scalar OsgEarthNet.uav[49] utilizationEnergyMaintenance 537178.59694672
scalar OsgEarthNet.uav[49] utilizationEnergyCharge 1434559.7104492
scalar OsgEarthNet.uav[49] utilizationEnergyOverdrawMission 0
scalar OsgEarthNet.uav[49] utilizationEnergyOverdrawMaintenance 0
scalar OsgEarthNet.uav[49] utilizationCountMissions 342
scalar OsgEarthNet.uav[49] utilizationCountManeuversMission 5877
scalar OsgEarthNet.uav[49] utilizationCountManeuversMaintenance 683
scalar OsgEarthNet.uav[49] utilizationCountChargeState 342
scalar OsgEarthNet.uav[49] utilizationCountOverdrawnAfterMission 0
scalar OsgEarthNet.uav[49] utilizationCountIdleState 1
scalar OsgEarthNet.uav[49] utilizationFail 0
scalar OsgEarthNet.uav[49] simulationTime 1209600
scalar OsgEarthNet.uav[50] utilizationSecMission 192287.06439033
scalar OsgEarthNet.uav[50] utilizationSecMaintenance 108580.52965404
scalar OsgEarthNet.uav[50] utilizationSecCharge 908690.40495563
scalar OsgEarthNet.uav[50] utilizationSecIdle 42
scalar OsgEarthNet.uav[50] utilizationEnergyMission 934779.64434433
scalar OsgEarthNet.uav[50] utilizationEnergyMaintenance 507544.39356232
scalar OsgEarthNet.uav[50] utilizationEnergyCharge 1440726.3203125
scalar OsgEarthNet.uav[50] utilizationEnergyOverdrawMission 0
scalar OsgEarthNet.uav[50] utilizationEnergyOverdrawMaintenance 67.224151611328
scalar OsgEarthNet.uav[50] utilizationCountMissions 333
scalar OsgEarthNet.uav[50] utilizationCountManeuversMission 6084
scalar OsgEarthNet.uav[50] utilizationCountManeuversMaintenance 666
scalar OsgEarthNet.uav[50] utilizationCountChargeState 333
scalar OsgEarthNet.uav[50] utilizationCountOverdrawnAfterMission 1
scalar OsgEarthNet.uav[50] utilizationCountIdleState 2
scalar OsgEarthNet.uav[50] utilizationFail 0
scalar OsgEarthNet.uav[50] simulationTime 1209600
scalar OsgEarthNet.uav[51] utilizationSecMission 207992.17070439
scalar OsgEarthNet.uav[51] utilizationSecMaintenance 92921.406034385
scalar OsgEarthNet.uav[51] utilizationSecCharge 907060
scalar OsgEarthNet.uav[51] utilizationSecIdle 1626.4222612234
scalar OsgEarthNet.uav[51] utilizationEnergyMission 1008281.7859806
scalar OsgEarthNet.uav[51] utilizationEnergyMaintenance 429519.46629715
scalar OsgEarthNet.uav[51] utilizationEnergyCharge 1435168.9245605
scalar OsgEarthNet.uav[51] utilizationEnergyOverdrawMission 0
scalar OsgEarthNet.uav[51] utilizationEnergyOverdrawMaintenance 0
scalar OsgEarthNet.uav[51] utilizationCountMissions 323
scalar OsgEarthNet.uav[51] utilizationCountManeuversMission 6593
scalar OsgEarthNet.uav[51] utilizationCountManeuversMaintenance 647
scalar OsgEarthNet.uav[51] utilizationCountChargeState 323
scalar OsgEarthNet.uav[51] utilizationCountOverdrawnAfterMission 0
scalar OsgEarthNet.uav[51] utilizationCountIdleState 1
scalar OsgEarthNet.uav[51] utilizationFail 0
scalar OsgEarthNet.uav[51] simulationTime 1209600
scalar OsgEarthNet.uav[52] utilizationSecMission 198550.65772172
scalar OsgEarthNet.uav[52] utilizationSecMaintenance 105302.71535981
scalar OsgEarthNet.uav[52] utilizationSecCharge 903960.27569765
scalar OsgEarthNet.uav[52] utilizationSecIdle 1786.3502208215
scalar OsgEarthNet.uav[52] utilizationEnergyMission 963711.77987289
scalar OsgEarthNet.uav[52] utilizationEnergyMaintenance 494666.7722702
scalar OsgEarthNet.uav[52] utilizationEnergyCharge 1450342.8388062
scalar OsgEarthNet.uav[52] utilizationEnergyOverdrawMission 0
scalar OsgEarthNet.uav[52] utilizationEnergyOverdrawMaintenance 0
scalar OsgEarthNet.uav[52] utilizationCountMissions 332
scalar OsgEarthNet.uav[52] utilizationCountManeuversMission 6202
scalar OsgEarthNet.uav[52] utilizationCountManeuversMaintenance 664
scalar OsgEarthNet.uav[52] utilizationCountChargeState 332
scalar OsgEarthNet.uav[52] utilizationCountOverdrawnAfterMission 0
scalar OsgEarthNet.uav[52] utilizationCountIdleState 2
scalar OsgEarthNet.uav[52] utilizationFail 0
scalar OsgEarthNet.uav[52] simulationTime 1209600
scalar OsgEarthNet.uav[53] utilizationSecMission 191410.28838066
scalar OsgEarthNet.uav[53] utilizationSecMaintenance 109072.47534395
scalar OsgEarthNet.uav[53] utilizationSecCharge 906516.28701972
scalar OsgEarthNet.uav[53] utilizationSecIdle 2600.9482556647
scalar OsgEarthNet.uav[53] utilizationEnergyMission 926796.55241013
scalar OsgEarthNet.uav[53] utilizationEnergyMaintenance 508518.16976166
scalar OsgEarthNet.uav[53] utilizationEnergyCharge 1430125.2148438
scalar OsgEarthNet.uav[53] utilizationEnergyOverdrawMission 0
scalar OsgEarthNet.uav[53] utilizationEnergyOverdrawMaintenance 0
scalar OsgEarthNet.uav[53] utilizationCountMissions 334
scalar OsgEarthNet.uav[53] utilizationCountManeuversMission 5905
scalar OsgEarthNet.uav[53] utilizationCountManeuversMaintenance 668
scalar OsgEarthNet.uav[53] utilizationCountChargeState 334
scalar OsgEarthNet.uav[53] utilizationCountOverdrawnAfterMission 0
scalar OsgEarthNet.uav[53] utilizationCountIdleState 2
scalar OsgEarthNet.uav[53] utilizationFail 0
scalar OsgEarthNet.uav[53] simulationTime 1209600
scalar OsgEarthNet.uav[54] utilizationSecMission 187548.3168949
scalar OsgEarthNet.uav[54] utilizationSecMaintenance 109570.60625613
scalar OsgEarthNet.uav[54] utilizationSecCharge 911896.46395946
scalar OsgEarthNet.uav[54] utilizationSecIdle 584.61188951643
scalar OsgEarthNet.uav[54] utilizationEnergyMission 910998.42980576
scalar OsgEarthNet.uav[54] utilizationEnergyMaintenance 515739.00366974
scalar OsgEarthNet.uav[54] utilizationEnergyCharge 1424395.2770996
scalar OsgEarthNet.uav[54] utilizationEnergyOverdrawMission 0
scalar OsgEarthNet.uav[54] utilizationEnergyOverdrawMaintenance 0
scalar OsgEarthNet.uav[54] utilizationCountMissions 336
scalar OsgEarthNet.uav[54] utilizationCountManeuversMission 5810
scalar OsgEarthNet.uav[54] utilizationCountManeuversMaintenance 672
scalar OsgEarthNet.uav[54] utilizationCountChargeState 336
scalar OsgEarthNet.uav[54] utilizationCountOverdrawnAfterMission 0
scalar OsgEarthNet.uav[54] utilizationCountIdleState 1
scalar OsgEarthNet.uav[54] utilizationFail 0
scalar OsgEarthNet.uav[54] simulationTime 1209600
scalar OsgEarthNet.uav[55] utilizationSecMission 201945.82847113
scalar OsgEarthNet.uav[55] utilizationSecMaintenance 98078.820690627
scalar OsgEarthNet.uav[55] utilizationSecCharge 909573.34983824
scalar OsgEarthNet.uav[55] utilizationSecIdle 2
scalar OsgEarthNet.uav[55] utilizationEnergyMission 972488.64923806
scalar OsgEarthNet.uav[55] utilizationEnergyMaintenance 456400.52954483
scalar OsgEarthNet.uav[55] utilizationEnergyCharge 1429004.513916
scalar OsgEarthNet.uav[55] utilizationEnergyOverdrawMission 0
scalar OsgEarthNet.uav[55] utilizationEnergyOverdrawMaintenance 0
scalar OsgEarthNet.uav[55] utilizationCountMissions 326
scalar OsgEarthNet.uav[55] utilizationCountManeuversMission 6006
scalar OsgEarthNet.uav[55] utilizationCountManeuversMaintenance 651
scalar OsgEarthNet.uav[55] utilizationCountChargeState 326
scalar OsgEarthNet.uav[55] utilizationCountOverdrawnAfterMission 0
scalar OsgEarthNet.uav[55] utilizationCountIdleState 1
scalar OsgEarthNet.uav[55] utilizationFail 0
scalar OsgEarthNet.uav[55] simulationTime 1209600
scalar OsgEarthNet.cs[0] usedPower 19763718.539886
scalar OsgEarthNet.cs[0] chargedPower 19763718.539886
scalar OsgEarthNet.cs[0] chargedMobileNodes 8
scalar OsgEarthNet.cs[0] reservations 4624
scalar OsgEarthNet.cs[1] usedPower 19738351.332516
scalar OsgEarthNet.cs[1] chargedPower 19738351.332516
scalar OsgEarthNet.cs[1] chargedMobileNodes 5
scalar OsgEarthNet.cs[1] reservations 4989
scalar OsgEarthNet.cs[2] usedPower 40735190.306723
scalar OsgEarthNet.cs[2] chargedPower 40735190.306723
scalar OsgEarthNet.cs[2] chargedMobileNodes 7
scalar OsgEarthNet.cs[2] reservations 9103

