version 2
run Szenario_Hotel_Gabelbach-83-20180718-23:57:13-2812
attr configname Szenario_Hotel_Gabelbach
attr datetime 20180718-23:57:13
attr experiment Szenario_Hotel_Gabelbach
attr inifile omnetpp.ini
attr iterationvars "$replM=2, $biWeight=0.35, $replSearchM=1, $numUAVs=56"
attr iterationvarsf replM=2,biWeight=0.35,replSearchM=1,numUAVs=56-
attr measurement "$replM=2, $biWeight=0.35, $replSearchM=1, $numUAVs=56"
attr network OsgEarthNet
attr processid 2812
attr repetition 35
attr replication #35
attr resultdir results
attr runnumber 83
attr seedset 83
itervar biWeight 0.35
itervar numUAVs 56
itervar replM 2
itervar replSearchM 1
param *.osgEarthScene.scene "\"Szenario_Hotel_Gabelbach.earth\""
param *.playgroundLatitude 50.6830269
param *.playgroundLongitude 10.8538055
param *.playgroundWidth 3500m
param *.playgroundHeight 3500m
param *.cs[0].posX 3537m
param *.cs[0].posY 965m
param *.cs[0].posZ 538m
param *.cs[1].posX 312m
param *.cs[1].posY 1262m
param *.cs[1].posZ 539m
param *.cs[2].posX 2185m
param *.cs[2].posY 3026m
param *.cs[2].posZ 777m
param *.cs[3].posX 10m
param *.cs[3].posY 2200m
param *.cs[3].posZ 560m
param *.cs[4].posX 750m
param *.cs[4].posY 200m
param *.cs[4].posZ 540m
param *.cs[5].posX 2450m
param *.cs[5].posY 180m
param *.cs[5].posZ 524m
param *.cs[6].posX 3140m
param *.cs[6].posY 1790m
param *.cs[6].posZ 606m
param *.numCSs 3
param *.uav[*].replacementMethod 2
param *.uav[*].weightedSumWeight 0.35
param *.missionControl.replacementSearchMethod 1
param *.numUAVs 56
param *.*.timeStep 10s
param *.uav[*].commandPreviewCommandCount 20
param *.missionControl.missionFiles "\"missions\\\\Szenario_WB_Hotel_Gabelbach_Mission_Hotel.waypoints,missions\\\\Szenario_WB_Hotel_Gabelbach_Mission_Kickelhahn.waypoints,missions\\\\Szenario_WB_Hotel_Gabelbach_Mission_Ilmenau_Sportplatz.waypoints,missions\\\\Szenario_WB_Hotel_Gabelbach_Mission_Manebach_Mitte.waypoints,missions\\\\Szenario_WB_Hotel_Gabelbach_Mission_Manebach_Sued.waypoints,missions\\\\Szenario_WB_Hotel_Gabelbach_Hover_HoheSchlaufe.waypoints,missions\\\\Szenario_WB_Hotel_Gabelbach_Hover_Kickelhahn.waypoints,missions\\\\Szenario_WB_Hotel_Gabelbach_Hover_Gabelbachskopf.waypoints,missions\\\\Szenario_WB_Hotel_Gabelbach_Hover_Dachskopf.waypoints\""
param *.uav[0].startX 3537m
param *.uav[0].startY 965m
param *.uav[0].startZ 539m
param *.uav[1].startX 312m
param *.uav[1].startY 1262m
param *.uav[1].startZ 540m
param *.uav[2].startX 2185m
param *.uav[2].startY 3026m
param *.uav[2].startZ 778m
param *.uav[3].startX 3537m
param *.uav[3].startY 965m
param *.uav[3].startZ 539m
param *.uav[4].startX 312m
param *.uav[4].startY 1262m
param *.uav[4].startZ 540m
param *.uav[5].startX 2185m
param *.uav[5].startY 3026m
param *.uav[5].startZ 778m
param *.uav[6].startX 3537m
param *.uav[6].startY 965m
param *.uav[6].startZ 539m
param *.uav[7].startX 312m
param *.uav[7].startY 1262m
param *.uav[7].startZ 540m
param *.uav[8].startX 2185m
param *.uav[8].startY 3026m
param *.uav[8].startZ 778m
param *.uav[9].startX 3537m
param *.uav[9].startY 965m
param *.uav[9].startZ 539m
param *.uav[10].startX 3537m
param *.uav[10].startY 965m
param *.uav[10].startZ 539m
param *.uav[11].startX 312m
param *.uav[11].startY 1262m
param *.uav[11].startZ 540m
param *.uav[12].startX 2185m
param *.uav[12].startY 3026m
param *.uav[12].startZ 778m
param *.uav[13].startX 3537m
param *.uav[13].startY 965m
param *.uav[13].startZ 539m
param *.uav[14].startX 312m
param *.uav[14].startY 1262m
param *.uav[14].startZ 540m
param *.uav[15].startX 2185m
param *.uav[15].startY 3026m
param *.uav[15].startZ 778m
param *.uav[16].startX 3537m
param *.uav[16].startY 965m
param *.uav[16].startZ 539m
param *.uav[17].startX 312m
param *.uav[17].startY 1262m
param *.uav[17].startZ 540m
param *.uav[18].startX 2185m
param *.uav[18].startY 3026m
param *.uav[18].startZ 778m
param *.uav[19].startX 3537m
param *.uav[19].startY 965m
param *.uav[19].startZ 539m
param *.uav[20].startX 3537m
param *.uav[20].startY 965m
param *.uav[20].startZ 539m
param *.uav[21].startX 312m
param *.uav[21].startY 1262m
param *.uav[21].startZ 540m
param *.uav[22].startX 2185m
param *.uav[22].startY 3026m
param *.uav[22].startZ 778m
param *.uav[23].startX 3537m
param *.uav[23].startY 965m
param *.uav[23].startZ 539m
param *.uav[24].startX 312m
param *.uav[24].startY 1262m
param *.uav[24].startZ 540m
param *.uav[25].startX 2185m
param *.uav[25].startY 3026m
param *.uav[25].startZ 778m
param *.uav[26].startX 3537m
param *.uav[26].startY 965m
param *.uav[26].startZ 539m
param *.uav[27].startX 312m
param *.uav[27].startY 1262m
param *.uav[27].startZ 540m
param *.uav[28].startX 2185m
param *.uav[28].startY 3026m
param *.uav[28].startZ 778m
param *.uav[29].startX 3537m
param *.uav[29].startY 965m
param *.uav[29].startZ 539m
param *.uav[30].startX 3537m
param *.uav[30].startY 965m
param *.uav[30].startZ 539m
param *.uav[31].startX 312m
param *.uav[31].startY 1262m
param *.uav[31].startZ 540m
param *.uav[32].startX 2185m
param *.uav[32].startY 3026m
param *.uav[32].startZ 778m
param *.uav[33].startX 3537m
param *.uav[33].startY 965m
param *.uav[33].startZ 539m
param *.uav[34].startX 312m
param *.uav[34].startY 1262m
param *.uav[34].startZ 540m
param *.uav[35].startX 2185m
param *.uav[35].startY 3026m
param *.uav[35].startZ 778m
param *.uav[36].startX 3537m
param *.uav[36].startY 965m
param *.uav[36].startZ 539m
param *.uav[37].startX 312m
param *.uav[37].startY 1262m
param *.uav[37].startZ 540m
param *.uav[38].startX 2185m
param *.uav[38].startY 3026m
param *.uav[38].startZ 778m
param *.uav[39].startX 3537m
param *.uav[39].startY 965m
param *.uav[39].startZ 539m
param *.uav[40].startX 3537m
param *.uav[40].startY 965m
param *.uav[40].startZ 539m
param *.uav[41].startX 312m
param *.uav[41].startY 1262m
param *.uav[41].startZ 540m
param *.uav[42].startX 2185m
param *.uav[42].startY 3026m
param *.uav[42].startZ 778m
param *.uav[43].startX 3537m
param *.uav[43].startY 965m
param *.uav[43].startZ 539m
param *.uav[44].startX 312m
param *.uav[44].startY 1262m
param *.uav[44].startZ 540m
param *.uav[45].startX 2185m
param *.uav[45].startY 3026m
param *.uav[45].startZ 778m
param *.uav[46].startX 3537m
param *.uav[46].startY 965m
param *.uav[46].startZ 539m
param *.uav[47].startX 312m
param *.uav[47].startY 1262m
param *.uav[47].startZ 540m
param *.uav[48].startX 2185m
param *.uav[48].startY 3026m
param *.uav[48].startZ 778m
param *.uav[49].startX 3537m
param *.uav[49].startY 965m
param *.uav[49].startZ 539m
param *.uav[50].startX 3537m
param *.uav[50].startY 965m
param *.uav[50].startZ 539m
param *.uav[51].startX 312m
param *.uav[51].startY 1262m
param *.uav[51].startZ 540m
param *.uav[52].startX 2185m
param *.uav[52].startY 3026m
param *.uav[52].startZ 778m
param *.uav[53].startX 3537m
param *.uav[53].startY 965m
param *.uav[53].startZ 539m
param *.uav[54].startX 312m
param *.uav[54].startY 1262m
param *.uav[54].startZ 540m
param *.uav[55].startX 2185m
param *.uav[55].startY 3026m
param *.uav[55].startZ 778m
param *.uav[56].startX 3537m
param *.uav[56].startY 965m
param *.uav[56].startZ 539m
param *.uav[57].startX 312m
param *.uav[57].startY 1262m
param *.uav[57].startZ 540m
param *.uav[58].startX 2185m
param *.uav[58].startY 3026m
param *.uav[58].startZ 778m
param *.uav[59].startX 3537m
param *.uav[59].startY 965m
param *.uav[59].startZ 539m
param *.uav[60].startX 3537m
param *.uav[60].startY 965m
param *.uav[60].startZ 539m
param *.uav[61].startX 312m
param *.uav[61].startY 1262m
param *.uav[61].startZ 540m
param *.uav[62].startX 2185m
param *.uav[62].startY 3026m
param *.uav[62].startZ 778m
param *.uav[63].startX 3537m
param *.uav[63].startY 965m
param *.uav[63].startZ 539m
param *.uav[64].startX 312m
param *.uav[64].startY 1262m
param *.uav[64].startZ 540m
param *.uav[65].startX 2185m
param *.uav[65].startY 3026m
param *.uav[65].startZ 778m
param *.uav[66].startX 3537m
param *.uav[66].startY 965m
param *.uav[66].startZ 539m
param *.uav[67].startX 312m
param *.uav[67].startY 1262m
param *.uav[67].startZ 540m
param *.uav[68].startX 2185m
param *.uav[68].startY 3026m
param *.uav[68].startZ 778m
param *.uav[69].startX 3537m
param *.uav[69].startY 965m
param *.uav[69].startZ 539m
param *.uav[70].startX 3537m
param *.uav[70].startY 965m
param *.uav[70].startZ 539m
param *.uav[71].startX 312m
param *.uav[71].startY 1262m
param *.uav[71].startZ 540m
param *.uav[72].startX 2185m
param *.uav[72].startY 3026m
param *.uav[72].startZ 778m
param *.uav[73].startX 3537m
param *.uav[73].startY 965m
param *.uav[73].startZ 539m
param *.uav[74].startX 312m
param *.uav[74].startY 1262m
param *.uav[74].startZ 540m
param *.uav[75].startX 2185m
param *.uav[75].startY 3026m
param *.uav[75].startZ 778m
param *.uav[76].startX 3537m
param *.uav[76].startY 965m
param *.uav[76].startZ 539m
param *.uav[77].startX 312m
param *.uav[77].startY 1262m
param *.uav[77].startZ 540m
param *.uav[78].startX 2185m
param *.uav[78].startY 3026m
param *.uav[78].startZ 778m
param *.uav[79].startX 3537m
param *.uav[79].startY 965m
param *.uav[79].startZ 539m
param *.uav[80].startX 3537m
param *.uav[80].startY 965m
param *.uav[80].startZ 539m
param *.uav[81].startX 312m
param *.uav[81].startY 1262m
param *.uav[81].startZ 540m
param *.uav[82].startX 2185m
param *.uav[82].startY 3026m
param *.uav[82].startZ 778m
param *.uav[83].startX 3537m
param *.uav[83].startY 965m
param *.uav[83].startZ 539m
param *.uav[84].startX 312m
param *.uav[84].startY 1262m
param *.uav[84].startZ 540m
param *.uav[85].startX 2185m
param *.uav[85].startY 3026m
param *.uav[85].startZ 778m
param *.uav[86].startX 3537m
param *.uav[86].startY 965m
param *.uav[86].startZ 539m
param *.uav[87].startX 312m
param *.uav[87].startY 1262m
param *.uav[87].startZ 540m
param *.uav[88].startX 2185m
param *.uav[88].startY 3026m
param *.uav[88].startZ 778m
param *.uav[89].startX 3537m
param *.uav[89].startY 965m
param *.uav[89].startZ 539m
param *.uav[90].startX 3537m
param *.uav[90].startY 965m
param *.uav[90].startZ 539m
param *.uav[91].startX 312m
param *.uav[91].startY 1262m
param *.uav[91].startZ 540m
param *.uav[92].startX 2185m
param *.uav[92].startY 3026m
param *.uav[92].startZ 778m
param *.uav[93].startX 3537m
param *.uav[93].startY 965m
param *.uav[93].startZ 539m
param *.uav[94].startX 312m
param *.uav[94].startY 1262m
param *.uav[94].startZ 540m
param *.uav[95].startX 2185m
param *.uav[95].startY 3026m
param *.uav[95].startZ 778m
param *.uav[96].startX 3537m
param *.uav[96].startY 965m
param *.uav[96].startZ 539m
param *.uav[97].startX 312m
param *.uav[97].startY 1262m
param *.uav[97].startZ 540m
param *.uav[98].startX 2185m
param *.uav[98].startY 3026m
param *.uav[98].startZ 778m
param *.uav[99].startX 3537m
param *.uav[99].startY 965m
param *.uav[99].startZ 539m
param *.osgEarthScene.scene "\"boston.earth\""
param *.playgroundLatitude 42.3558
param *.playgroundLongitude -71.0677
param *.playgroundWidth 400m
param *.playgroundHeight 200m
param *.channelController.connectionColor "\"#0000FF40\""
param *.channelController.showConnections false
param *.uav[*].modelURL "\"quadrocopter.small.obj.15.scale.0,0,90.rot\""
param *.uav[*].labelColor "\"#FF7C00CC\""
param *.uav[*].label2Color "\"#FF7C00EE\""
param *.uav[*].batteryCapacity 5200mAh
param *.uav[*].batteryRemaining uav[index].batteryCapacity
param *.uav[*].predictionQuantile 0.95
param *.uav[*].replacementMethod 2
param *.uav[*].weightedSumWeight 0.5
param *.cs[*].modelURL "\"chargingstation_v1.osgt.2.scale.0,0,0.rot.0,0,-15e-1.trans\""
param *.cs[*].spotsWaiting 999
param *.cs[*].spotsCharging 999
param *.cs[*].chargeEffectivenessPercentage 100
param *.cs[*].nonLinearPhaseStartPercentage 85
param *.cs[*].chargeCurrent 6.0A
param *.cs[*].prioritizeFastCharge true
param *.missionControl.replacementSearchMethod 0
param *.*.timeStep 9s

scalar OsgEarthNet.uav[0] utilizationSecMission 193404.90148419
scalar OsgEarthNet.uav[0] utilizationSecMaintenance 102257.92959727
scalar OsgEarthNet.uav[0] utilizationSecCharge 910789.08493875
scalar OsgEarthNet.uav[0] utilizationSecIdle 3148.0829797894
scalar OsgEarthNet.uav[0] utilizationEnergyMission 935039.15148163
scalar OsgEarthNet.uav[0] utilizationEnergyMaintenance 480463.41184616
scalar OsgEarthNet.uav[0] utilizationEnergyCharge 1416247.0983887
scalar OsgEarthNet.uav[0] utilizationEnergyOverdrawMission 0
scalar OsgEarthNet.uav[0] utilizationEnergyOverdrawMaintenance 0
scalar OsgEarthNet.uav[0] utilizationCountMissions 335
scalar OsgEarthNet.uav[0] utilizationCountManeuversMission 5716
scalar OsgEarthNet.uav[0] utilizationCountManeuversMaintenance 670
scalar OsgEarthNet.uav[0] utilizationCountChargeState 335
scalar OsgEarthNet.uav[0] utilizationCountOverdrawnAfterMission 0
scalar OsgEarthNet.uav[0] utilizationCountIdleState 1
scalar OsgEarthNet.uav[0] utilizationFail 0
scalar OsgEarthNet.uav[0] simulationTime 1209600
scalar OsgEarthNet.uav[1] utilizationSecMission 196947.66689663
scalar OsgEarthNet.uav[1] utilizationSecMaintenance 104630.32710337
scalar OsgEarthNet.uav[1] utilizationSecCharge 905330
scalar OsgEarthNet.uav[1] utilizationSecIdle 2692.005
scalar OsgEarthNet.uav[1] utilizationEnergyMission 950095.33926934
scalar OsgEarthNet.uav[1] utilizationEnergyMaintenance 489128.70008087
scalar OsgEarthNet.uav[1] utilizationEnergyCharge 1435999.9289551
scalar OsgEarthNet.uav[1] utilizationEnergyOverdrawMission 0
scalar OsgEarthNet.uav[1] utilizationEnergyOverdrawMaintenance 0
scalar OsgEarthNet.uav[1] utilizationCountMissions 334
scalar OsgEarthNet.uav[1] utilizationCountManeuversMission 6007
scalar OsgEarthNet.uav[1] utilizationCountManeuversMaintenance 669
scalar OsgEarthNet.uav[1] utilizationCountChargeState 334
scalar OsgEarthNet.uav[1] utilizationCountOverdrawnAfterMission 0
scalar OsgEarthNet.uav[1] utilizationCountIdleState 2
scalar OsgEarthNet.uav[1] utilizationFail 0
scalar OsgEarthNet.uav[1] simulationTime 1209600
scalar OsgEarthNet.uav[2] utilizationSecMission 189126.84557242
scalar OsgEarthNet.uav[2] utilizationSecMaintenance 108588.40934347
scalar OsgEarthNet.uav[2] utilizationSecCharge 910082.74108411
scalar OsgEarthNet.uav[2] utilizationSecIdle 1802.003
scalar OsgEarthNet.uav[2] utilizationEnergyMission 914851.47216797
scalar OsgEarthNet.uav[2] utilizationEnergyMaintenance 509828.1026268
scalar OsgEarthNet.uav[2] utilizationEnergyCharge 1428618.7946777
scalar OsgEarthNet.uav[2] utilizationEnergyOverdrawMission 0
scalar OsgEarthNet.uav[2] utilizationEnergyOverdrawMaintenance 0
scalar OsgEarthNet.uav[2] utilizationCountMissions 337
scalar OsgEarthNet.uav[2] utilizationCountManeuversMission 6033
scalar OsgEarthNet.uav[2] utilizationCountManeuversMaintenance 674
scalar OsgEarthNet.uav[2] utilizationCountChargeState 337
scalar OsgEarthNet.uav[2] utilizationCountOverdrawnAfterMission 0
scalar OsgEarthNet.uav[2] utilizationCountIdleState 4
scalar OsgEarthNet.uav[2] utilizationFail 0
scalar OsgEarthNet.uav[2] simulationTime 1209600
scalar OsgEarthNet.uav[3] utilizationSecMission 185918.61404184
scalar OsgEarthNet.uav[3] utilizationSecMaintenance 109987.0889081
scalar OsgEarthNet.uav[3] utilizationSecCharge 910572.51004734
scalar OsgEarthNet.uav[3] utilizationSecIdle 3121.7860027173
scalar OsgEarthNet.uav[3] utilizationEnergyMission 895740.04790115
scalar OsgEarthNet.uav[3] utilizationEnergyMaintenance 520381.18940735
scalar OsgEarthNet.uav[3] utilizationEnergyCharge 1414087.1655273
scalar OsgEarthNet.uav[3] utilizationEnergyOverdrawMission 0
scalar OsgEarthNet.uav[3] utilizationEnergyOverdrawMaintenance 0
scalar OsgEarthNet.uav[3] utilizationCountMissions 343
scalar OsgEarthNet.uav[3] utilizationCountManeuversMission 5491
scalar OsgEarthNet.uav[3] utilizationCountManeuversMaintenance 686
scalar OsgEarthNet.uav[3] utilizationCountChargeState 343
scalar OsgEarthNet.uav[3] utilizationCountOverdrawnAfterMission 0
scalar OsgEarthNet.uav[3] utilizationCountIdleState 3
scalar OsgEarthNet.uav[3] utilizationFail 0
scalar OsgEarthNet.uav[3] simulationTime 1209600
scalar OsgEarthNet.uav[4] utilizationSecMission 182140.60336892
scalar OsgEarthNet.uav[4] utilizationSecMaintenance 118118.27969393
scalar OsgEarthNet.uav[4] utilizationSecCharge 906833.79985532
scalar OsgEarthNet.uav[4] utilizationSecIdle 2507.3160818306
scalar OsgEarthNet.uav[4] utilizationEnergyMission 880663.05922318
scalar OsgEarthNet.uav[4] utilizationEnergyMaintenance 558740.32376862
scalar OsgEarthNet.uav[4] utilizationEnergyCharge 1437532.4221191
scalar OsgEarthNet.uav[4] utilizationEnergyOverdrawMission 0
scalar OsgEarthNet.uav[4] utilizationEnergyOverdrawMaintenance 0
scalar OsgEarthNet.uav[4] utilizationCountMissions 345
scalar OsgEarthNet.uav[4] utilizationCountManeuversMission 5813
scalar OsgEarthNet.uav[4] utilizationCountManeuversMaintenance 690
scalar OsgEarthNet.uav[4] utilizationCountChargeState 345
scalar OsgEarthNet.uav[4] utilizationCountOverdrawnAfterMission 0
scalar OsgEarthNet.uav[4] utilizationCountIdleState 3
scalar OsgEarthNet.uav[4] utilizationFail 0
scalar OsgEarthNet.uav[4] simulationTime 1209600
scalar OsgEarthNet.uav[5] utilizationSecMission 195757.72455055
scalar OsgEarthNet.uav[5] utilizationSecMaintenance 102280.27244945
scalar OsgEarthNet.uav[5] utilizationSecCharge 910280
scalar OsgEarthNet.uav[5] utilizationSecIdle 1282.002
scalar OsgEarthNet.uav[5] utilizationEnergyMission 943472.05277252
scalar OsgEarthNet.uav[5] utilizationEnergyMaintenance 481340.85196583
scalar OsgEarthNet.uav[5] utilizationEnergyCharge 1425362.6794434
scalar OsgEarthNet.uav[5] utilizationEnergyOverdrawMission 0
scalar OsgEarthNet.uav[5] utilizationEnergyOverdrawMaintenance 0
scalar OsgEarthNet.uav[5] utilizationCountMissions 335
scalar OsgEarthNet.uav[5] utilizationCountManeuversMission 5953
scalar OsgEarthNet.uav[5] utilizationCountManeuversMaintenance 671
scalar OsgEarthNet.uav[5] utilizationCountChargeState 335
scalar OsgEarthNet.uav[5] utilizationCountOverdrawnAfterMission 0
scalar OsgEarthNet.uav[5] utilizationCountIdleState 1
scalar OsgEarthNet.uav[5] utilizationFail 0
scalar OsgEarthNet.uav[5] simulationTime 1209600
scalar OsgEarthNet.uav[6] utilizationSecMission 191595.88133341
scalar OsgEarthNet.uav[6] utilizationSecMaintenance 111891.78233475
scalar OsgEarthNet.uav[6] utilizationSecCharge 903388.3772923
scalar OsgEarthNet.uav[6] utilizationSecIdle 2723.9580395329
scalar OsgEarthNet.uav[6] utilizationEnergyMission 922161.90892029
scalar OsgEarthNet.uav[6] utilizationEnergyMaintenance 527846.39929199
scalar OsgEarthNet.uav[6] utilizationEnergyCharge 1444777.9005737
scalar OsgEarthNet.uav[6] utilizationEnergyOverdrawMission 0
scalar OsgEarthNet.uav[6] utilizationEnergyOverdrawMaintenance 0
scalar OsgEarthNet.uav[6] utilizationCountMissions 342
scalar OsgEarthNet.uav[6] utilizationCountManeuversMission 5738
scalar OsgEarthNet.uav[6] utilizationCountManeuversMaintenance 684
scalar OsgEarthNet.uav[6] utilizationCountChargeState 342
scalar OsgEarthNet.uav[6] utilizationCountOverdrawnAfterMission 0
scalar OsgEarthNet.uav[6] utilizationCountIdleState 1
scalar OsgEarthNet.uav[6] utilizationFail 0
scalar OsgEarthNet.uav[6] simulationTime 1209600
scalar OsgEarthNet.uav[7] utilizationSecMission 192401.43343127
scalar OsgEarthNet.uav[7] utilizationSecMaintenance 106983.31098345
scalar OsgEarthNet.uav[7] utilizationSecCharge 909630.64269577
scalar OsgEarthNet.uav[7] utilizationSecIdle 584.61188951643
scalar OsgEarthNet.uav[7] utilizationEnergyMission 937736.54349518
scalar OsgEarthNet.uav[7] utilizationEnergyMaintenance 500373.14582825
scalar OsgEarthNet.uav[7] utilizationEnergyCharge 1431131.6616211
scalar OsgEarthNet.uav[7] utilizationEnergyOverdrawMission 0
scalar OsgEarthNet.uav[7] utilizationEnergyOverdrawMaintenance 0
scalar OsgEarthNet.uav[7] utilizationCountMissions 336
scalar OsgEarthNet.uav[7] utilizationCountManeuversMission 6176
scalar OsgEarthNet.uav[7] utilizationCountManeuversMaintenance 672
scalar OsgEarthNet.uav[7] utilizationCountChargeState 336
scalar OsgEarthNet.uav[7] utilizationCountOverdrawnAfterMission 0
scalar OsgEarthNet.uav[7] utilizationCountIdleState 1
scalar OsgEarthNet.uav[7] utilizationFail 0
scalar OsgEarthNet.uav[7] simulationTime 1209600
scalar OsgEarthNet.uav[8] utilizationSecMission 200134.70602676
scalar OsgEarthNet.uav[8] utilizationSecMaintenance 101381.33615057
scalar OsgEarthNet.uav[8] utilizationSecCharge 907316.50655864
scalar OsgEarthNet.uav[8] utilizationSecIdle 767.4502640309
scalar OsgEarthNet.uav[8] utilizationEnergyMission 964630.9861145
scalar OsgEarthNet.uav[8] utilizationEnergyMaintenance 471513.3949585
scalar OsgEarthNet.uav[8] utilizationEnergyCharge 1432740.8405762
scalar OsgEarthNet.uav[8] utilizationEnergyOverdrawMission 0
scalar OsgEarthNet.uav[8] utilizationEnergyOverdrawMaintenance 0
scalar OsgEarthNet.uav[8] utilizationCountMissions 332
scalar OsgEarthNet.uav[8] utilizationCountManeuversMission 5929
scalar OsgEarthNet.uav[8] utilizationCountManeuversMaintenance 664
scalar OsgEarthNet.uav[8] utilizationCountChargeState 332
scalar OsgEarthNet.uav[8] utilizationCountOverdrawnAfterMission 0
scalar OsgEarthNet.uav[8] utilizationCountIdleState 1
scalar OsgEarthNet.uav[8] utilizationFail 0
scalar OsgEarthNet.uav[8] simulationTime 1209600
scalar OsgEarthNet.uav[9] utilizationSecMission 195556.42733212
scalar OsgEarthNet.uav[9] utilizationSecMaintenance 106377.61355127
scalar OsgEarthNet.uav[9] utilizationSecCharge 904763.9521166
scalar OsgEarthNet.uav[9] utilizationSecIdle 2902.006
scalar OsgEarthNet.uav[9] utilizationEnergyMission 944858.14635086
scalar OsgEarthNet.uav[9] utilizationEnergyMaintenance 495973.85070419
scalar OsgEarthNet.uav[9] utilizationEnergyCharge 1439123.2312012
scalar OsgEarthNet.uav[9] utilizationEnergyOverdrawMission 0
scalar OsgEarthNet.uav[9] utilizationEnergyOverdrawMaintenance 0
scalar OsgEarthNet.uav[9] utilizationCountMissions 335
scalar OsgEarthNet.uav[9] utilizationCountManeuversMission 6211
scalar OsgEarthNet.uav[9] utilizationCountManeuversMaintenance 670
scalar OsgEarthNet.uav[9] utilizationCountChargeState 335
scalar OsgEarthNet.uav[9] utilizationCountOverdrawnAfterMission 0
scalar OsgEarthNet.uav[9] utilizationCountIdleState 3
scalar OsgEarthNet.uav[9] utilizationFail 0
scalar OsgEarthNet.uav[9] simulationTime 1209600
scalar OsgEarthNet.uav[10] utilizationSecMission 190718.27694974
scalar OsgEarthNet.uav[10] utilizationSecMaintenance 105331.77778814
scalar OsgEarthNet.uav[10] utilizationSecCharge 910990
scalar OsgEarthNet.uav[10] utilizationSecIdle 2559.9442621222
scalar OsgEarthNet.uav[10] utilizationEnergyMission 922304.85623354
scalar OsgEarthNet.uav[10] utilizationEnergyMaintenance 495256.02838898
scalar OsgEarthNet.uav[10] utilizationEnergyCharge 1420467.0422363
scalar OsgEarthNet.uav[10] utilizationEnergyOverdrawMission 0
scalar OsgEarthNet.uav[10] utilizationEnergyOverdrawMaintenance 0
scalar OsgEarthNet.uav[10] utilizationCountMissions 338
scalar OsgEarthNet.uav[10] utilizationCountManeuversMission 5744
scalar OsgEarthNet.uav[10] utilizationCountManeuversMaintenance 677
scalar OsgEarthNet.uav[10] utilizationCountChargeState 338
scalar OsgEarthNet.uav[10] utilizationCountOverdrawnAfterMission 0
scalar OsgEarthNet.uav[10] utilizationCountIdleState 3
scalar OsgEarthNet.uav[10] utilizationFail 0
scalar OsgEarthNet.uav[10] simulationTime 1209600
scalar OsgEarthNet.uav[11] utilizationSecMission 192615.9966696
scalar OsgEarthNet.uav[11] utilizationSecMaintenance 103425.44898915
scalar OsgEarthNet.uav[11] utilizationSecCharge 911640.19973837
scalar OsgEarthNet.uav[11] utilizationSecIdle 1918.3536028792
scalar OsgEarthNet.uav[11] utilizationEnergyMission 928177.29798126
scalar OsgEarthNet.uav[11] utilizationEnergyMaintenance 485833.15359497
scalar OsgEarthNet.uav[11] utilizationEnergyCharge 1413796.6789551
scalar OsgEarthNet.uav[11] utilizationEnergyOverdrawMission 0
scalar OsgEarthNet.uav[11] utilizationEnergyOverdrawMaintenance 0
scalar OsgEarthNet.uav[11] utilizationCountMissions 334
scalar OsgEarthNet.uav[11] utilizationCountManeuversMission 5696
scalar OsgEarthNet.uav[11] utilizationCountManeuversMaintenance 668
scalar OsgEarthNet.uav[11] utilizationCountChargeState 334
scalar OsgEarthNet.uav[11] utilizationCountOverdrawnAfterMission 0
scalar OsgEarthNet.uav[11] utilizationCountIdleState 4
scalar OsgEarthNet.uav[11] utilizationFail 0
scalar OsgEarthNet.uav[11] simulationTime 1209600
scalar OsgEarthNet.uav[12] utilizationSecMission 190938.78018182
scalar OsgEarthNet.uav[12] utilizationSecMaintenance 106653.34893304
scalar OsgEarthNet.uav[12] utilizationSecCharge 910176.19683356
scalar OsgEarthNet.uav[12] utilizationSecIdle 1831.6730515863
scalar OsgEarthNet.uav[12] utilizationEnergyMission 923772.00567627
scalar OsgEarthNet.uav[12] utilizationEnergyMaintenance 501661.73781967
scalar OsgEarthNet.uav[12] utilizationEnergyCharge 1419871.7109375
scalar OsgEarthNet.uav[12] utilizationEnergyOverdrawMission 0
scalar OsgEarthNet.uav[12] utilizationEnergyOverdrawMaintenance 0
scalar OsgEarthNet.uav[12] utilizationCountMissions 335
scalar OsgEarthNet.uav[12] utilizationCountManeuversMission 5708
scalar OsgEarthNet.uav[12] utilizationCountManeuversMaintenance 670
scalar OsgEarthNet.uav[12] utilizationCountChargeState 335
scalar OsgEarthNet.uav[12] utilizationCountOverdrawnAfterMission 0
scalar OsgEarthNet.uav[12] utilizationCountIdleState 3
scalar OsgEarthNet.uav[12] utilizationFail 0
scalar OsgEarthNet.uav[12] simulationTime 1209600
scalar OsgEarthNet.uav[13] utilizationSecMission 190029.8272417
scalar OsgEarthNet.uav[13] utilizationSecMaintenance 112941.27580863
scalar OsgEarthNet.uav[13] utilizationSecCharge 903997.947694
scalar OsgEarthNet.uav[13] utilizationSecIdle 2630.9482556647
scalar OsgEarthNet.uav[13] utilizationEnergyMission 919977.92111969
scalar OsgEarthNet.uav[13] utilizationEnergyMaintenance 534179.84913635
scalar OsgEarthNet.uav[13] utilizationEnergyCharge 1446993.0300293
scalar OsgEarthNet.uav[13] utilizationEnergyOverdrawMission 0
scalar OsgEarthNet.uav[13] utilizationEnergyOverdrawMaintenance 0
scalar OsgEarthNet.uav[13] utilizationCountMissions 341
scalar OsgEarthNet.uav[13] utilizationCountManeuversMission 5764
scalar OsgEarthNet.uav[13] utilizationCountManeuversMaintenance 682
scalar OsgEarthNet.uav[13] utilizationCountChargeState 341
scalar OsgEarthNet.uav[13] utilizationCountOverdrawnAfterMission 0
scalar OsgEarthNet.uav[13] utilizationCountIdleState 2
scalar OsgEarthNet.uav[13] utilizationFail 0
scalar OsgEarthNet.uav[13] simulationTime 1209600
scalar OsgEarthNet.uav[14] utilizationSecMission 185857.04654988
scalar OsgEarthNet.uav[14] utilizationSecMaintenance 112121.7410776
scalar OsgEarthNet.uav[14] utilizationSecCharge 911119.21037251
scalar OsgEarthNet.uav[14] utilizationSecIdle 502.001
scalar OsgEarthNet.uav[14] utilizationEnergyMission 903586.63077545
scalar OsgEarthNet.uav[14] utilizationEnergyMaintenance 531333.09156036
scalar OsgEarthNet.uav[14] utilizationEnergyCharge 1432028.4481201
scalar OsgEarthNet.uav[14] utilizationEnergyOverdrawMission 0
scalar OsgEarthNet.uav[14] utilizationEnergyOverdrawMaintenance 0
scalar OsgEarthNet.uav[14] utilizationCountMissions 337
scalar OsgEarthNet.uav[14] utilizationCountManeuversMission 5934
scalar OsgEarthNet.uav[14] utilizationCountManeuversMaintenance 674
scalar OsgEarthNet.uav[14] utilizationCountChargeState 337
scalar OsgEarthNet.uav[14] utilizationCountOverdrawnAfterMission 0
scalar OsgEarthNet.uav[14] utilizationCountIdleState 1
scalar OsgEarthNet.uav[14] utilizationFail 0
scalar OsgEarthNet.uav[14] simulationTime 1209600
scalar OsgEarthNet.uav[15] utilizationSecMission 199751.61038404
scalar OsgEarthNet.uav[15] utilizationSecMaintenance 96683.179306286
scalar OsgEarthNet.uav[15] utilizationSecCharge 912453.20830967
scalar OsgEarthNet.uav[15] utilizationSecIdle 712.001
scalar OsgEarthNet.uav[15] utilizationEnergyMission 971017.79066086
scalar OsgEarthNet.uav[15] utilizationEnergyMaintenance 450700.21077728
scalar OsgEarthNet.uav[15] utilizationEnergyCharge 1421698.2514648
scalar OsgEarthNet.uav[15] utilizationEnergyOverdrawMission 0
scalar OsgEarthNet.uav[15] utilizationEnergyOverdrawMaintenance 0
scalar OsgEarthNet.uav[15] utilizationCountMissions 326
scalar OsgEarthNet.uav[15] utilizationCountManeuversMission 6331
scalar OsgEarthNet.uav[15] utilizationCountManeuversMaintenance 652
scalar OsgEarthNet.uav[15] utilizationCountChargeState 326
scalar OsgEarthNet.uav[15] utilizationCountOverdrawnAfterMission 0
scalar OsgEarthNet.uav[15] utilizationCountIdleState 3
scalar OsgEarthNet.uav[15] utilizationFail 0
scalar OsgEarthNet.uav[15] simulationTime 1209600
scalar OsgEarthNet.uav[16] utilizationSecMission 198976.77346111
scalar OsgEarthNet.uav[16] utilizationSecMaintenance 98502.65512156
scalar OsgEarthNet.uav[16] utilizationSecCharge 908850
scalar OsgEarthNet.uav[16] utilizationSecIdle 3270.5704173337
scalar OsgEarthNet.uav[16] utilizationEnergyMission 957604.92378342
scalar OsgEarthNet.uav[16] utilizationEnergyMaintenance 461977.63201523
scalar OsgEarthNet.uav[16] utilizationEnergyCharge 1415008.8935547
scalar OsgEarthNet.uav[16] utilizationEnergyOverdrawMission 0
scalar OsgEarthNet.uav[16] utilizationEnergyOverdrawMaintenance 0
scalar OsgEarthNet.uav[16] utilizationCountMissions 329
scalar OsgEarthNet.uav[16] utilizationCountManeuversMission 5966
scalar OsgEarthNet.uav[16] utilizationCountManeuversMaintenance 659
scalar OsgEarthNet.uav[16] utilizationCountChargeState 329
scalar OsgEarthNet.uav[16] utilizationCountOverdrawnAfterMission 0
scalar OsgEarthNet.uav[16] utilizationCountIdleState 1
scalar OsgEarthNet.uav[16] utilizationFail 0
scalar OsgEarthNet.uav[16] simulationTime 1209600
scalar OsgEarthNet.uav[17] utilizationSecMission 193160.76545566
scalar OsgEarthNet.uav[17] utilizationSecMaintenance 105259.3409673
scalar OsgEarthNet.uav[17] utilizationSecCharge 909087.88857704
scalar OsgEarthNet.uav[17] utilizationSecIdle 2092.004
scalar OsgEarthNet.uav[17] utilizationEnergyMission 939969.11579132
scalar OsgEarthNet.uav[17] utilizationEnergyMaintenance 494680.29959869
scalar OsgEarthNet.uav[17] utilizationEnergyCharge 1428656.2248535
scalar OsgEarthNet.uav[17] utilizationEnergyOverdrawMission 0
scalar OsgEarthNet.uav[17] utilizationEnergyOverdrawMaintenance 0
scalar OsgEarthNet.uav[17] utilizationCountMissions 336
scalar OsgEarthNet.uav[17] utilizationCountManeuversMission 6223
scalar OsgEarthNet.uav[17] utilizationCountManeuversMaintenance 672
scalar OsgEarthNet.uav[17] utilizationCountChargeState 336
scalar OsgEarthNet.uav[17] utilizationCountOverdrawnAfterMission 0
scalar OsgEarthNet.uav[17] utilizationCountIdleState 2
scalar OsgEarthNet.uav[17] utilizationFail 0
scalar OsgEarthNet.uav[17] simulationTime 1209600
scalar OsgEarthNet.uav[18] utilizationSecMission 204259.70963439
scalar OsgEarthNet.uav[18] utilizationSecMaintenance 93837.709754762
scalar OsgEarthNet.uav[18] utilizationSecCharge 910813.35999694
scalar OsgEarthNet.uav[18] utilizationSecIdle 689.21961391566
scalar OsgEarthNet.uav[18] utilizationEnergyMission 990400.28561401
scalar OsgEarthNet.uav[18] utilizationEnergyMaintenance 438244.27370071
scalar OsgEarthNet.uav[18] utilizationEnergyCharge 1427566.4770508
scalar OsgEarthNet.uav[18] utilizationEnergyOverdrawMission 0
scalar OsgEarthNet.uav[18] utilizationEnergyOverdrawMaintenance 0
scalar OsgEarthNet.uav[18] utilizationCountMissions 326
scalar OsgEarthNet.uav[18] utilizationCountManeuversMission 6287
scalar OsgEarthNet.uav[18] utilizationCountManeuversMaintenance 652
scalar OsgEarthNet.uav[18] utilizationCountChargeState 326
scalar OsgEarthNet.uav[18] utilizationCountOverdrawnAfterMission 0
scalar OsgEarthNet.uav[18] utilizationCountIdleState 1
scalar OsgEarthNet.uav[18] utilizationFail 0
scalar OsgEarthNet.uav[18] simulationTime 1209600
scalar OsgEarthNet.uav[19] utilizationSecMission 203162.05817464
scalar OsgEarthNet.uav[19] utilizationSecMaintenance 94481.667939638
scalar OsgEarthNet.uav[19] utilizationSecCharge 911444.27188572
scalar OsgEarthNet.uav[19] utilizationSecIdle 512.001
scalar OsgEarthNet.uav[19] utilizationEnergyMission 982816.99999619
scalar OsgEarthNet.uav[19] utilizationEnergyMaintenance 439558.84959793
scalar OsgEarthNet.uav[19] utilizationEnergyCharge 1425402.6668091
scalar OsgEarthNet.uav[19] utilizationEnergyOverdrawMission 0
scalar OsgEarthNet.uav[19] utilizationEnergyOverdrawMaintenance 0
scalar OsgEarthNet.uav[19] utilizationCountMissions 325
scalar OsgEarthNet.uav[19] utilizationCountManeuversMission 6472
scalar OsgEarthNet.uav[19] utilizationCountManeuversMaintenance 650
scalar OsgEarthNet.uav[19] utilizationCountChargeState 325
scalar OsgEarthNet.uav[19] utilizationCountOverdrawnAfterMission 0
scalar OsgEarthNet.uav[19] utilizationCountIdleState 2
scalar OsgEarthNet.uav[19] utilizationFail 0
scalar OsgEarthNet.uav[19] simulationTime 1209600
scalar OsgEarthNet.uav[20] utilizationSecMission 190462.70497064
scalar OsgEarthNet.uav[20] utilizationSecMaintenance 108000.0590402
scalar OsgEarthNet.uav[20] utilizationSecCharge 908801.34031237
scalar OsgEarthNet.uav[20] utilizationSecIdle 2335.8946767885
scalar OsgEarthNet.uav[20] utilizationEnergyMission 928921.13798904
scalar OsgEarthNet.uav[20] utilizationEnergyMaintenance 508000.53746414
scalar OsgEarthNet.uav[20] utilizationEnergyCharge 1436959.7526855
scalar OsgEarthNet.uav[20] utilizationEnergyOverdrawMission 0
scalar OsgEarthNet.uav[20] utilizationEnergyOverdrawMaintenance 0
scalar OsgEarthNet.uav[20] utilizationCountMissions 337
scalar OsgEarthNet.uav[20] utilizationCountManeuversMission 6109
scalar OsgEarthNet.uav[20] utilizationCountManeuversMaintenance 674
scalar OsgEarthNet.uav[20] utilizationCountChargeState 337
scalar OsgEarthNet.uav[20] utilizationCountOverdrawnAfterMission 0
scalar OsgEarthNet.uav[20] utilizationCountIdleState 1
scalar OsgEarthNet.uav[20] utilizationFail 0
scalar OsgEarthNet.uav[20] simulationTime 1209600
scalar OsgEarthNet.uav[21] utilizationSecMission 206029.88974283
scalar OsgEarthNet.uav[21] utilizationSecMaintenance 96225.127004816
scalar OsgEarthNet.uav[21] utilizationSecCharge 904699.53916367
scalar OsgEarthNet.uav[21] utilizationSecIdle 2645.443088691
scalar OsgEarthNet.uav[21] utilizationEnergyMission 989165.16874313
scalar OsgEarthNet.uav[21] utilizationEnergyMaintenance 445787.98009109
scalar OsgEarthNet.uav[21] utilizationEnergyCharge 1431338.1419678
scalar OsgEarthNet.uav[21] utilizationEnergyOverdrawMission 0
scalar OsgEarthNet.uav[21] utilizationEnergyOverdrawMaintenance 0
scalar OsgEarthNet.uav[21] utilizationCountMissions 326
scalar OsgEarthNet.uav[21] utilizationCountManeuversMission 6331
scalar OsgEarthNet.uav[21] utilizationCountManeuversMaintenance 652
scalar OsgEarthNet.uav[21] utilizationCountChargeState 326
scalar OsgEarthNet.uav[21] utilizationCountOverdrawnAfterMission 0
scalar OsgEarthNet.uav[21] utilizationCountIdleState 2
scalar OsgEarthNet.uav[21] utilizationFail 0
scalar OsgEarthNet.uav[21] simulationTime 1209600
scalar OsgEarthNet.uav[22] utilizationSecMission 190083.69236228
scalar OsgEarthNet.uav[22] utilizationSecMaintenance 108675.30970989
scalar OsgEarthNet.uav[22] utilizationSecCharge 908918.99392783
scalar OsgEarthNet.uav[22] utilizationSecIdle 1922.003
scalar OsgEarthNet.uav[22] utilizationEnergyMission 910553.85224152
scalar OsgEarthNet.uav[22] utilizationEnergyMaintenance 515380.75193787
scalar OsgEarthNet.uav[22] utilizationEnergyCharge 1424029.206543
scalar OsgEarthNet.uav[22] utilizationEnergyOverdrawMission 0
scalar OsgEarthNet.uav[22] utilizationEnergyOverdrawMaintenance 0
scalar OsgEarthNet.uav[22] utilizationCountMissions 339
scalar OsgEarthNet.uav[22] utilizationCountManeuversMission 5302
scalar OsgEarthNet.uav[22] utilizationCountManeuversMaintenance 678
scalar OsgEarthNet.uav[22] utilizationCountChargeState 339
scalar OsgEarthNet.uav[22] utilizationCountOverdrawnAfterMission 0
scalar OsgEarthNet.uav[22] utilizationCountIdleState 1
scalar OsgEarthNet.uav[22] utilizationFail 0
scalar OsgEarthNet.uav[22] simulationTime 1209600
scalar OsgEarthNet.uav[23] utilizationSecMission 189133.2393469
scalar OsgEarthNet.uav[23] utilizationSecMaintenance 108527.59051811
scalar OsgEarthNet.uav[23] utilizationSecCharge 911937.16913499
scalar OsgEarthNet.uav[23] utilizationSecIdle 2
scalar OsgEarthNet.uav[23] utilizationEnergyMission 926368.88248444
scalar OsgEarthNet.uav[23] utilizationEnergyMaintenance 512510.99160385
scalar OsgEarthNet.uav[23] utilizationEnergyCharge 1426876.0888672
scalar OsgEarthNet.uav[23] utilizationEnergyOverdrawMission 0
scalar OsgEarthNet.uav[23] utilizationEnergyOverdrawMaintenance 0
scalar OsgEarthNet.uav[23] utilizationCountMissions 336
scalar OsgEarthNet.uav[23] utilizationCountManeuversMission 5914
scalar OsgEarthNet.uav[23] utilizationCountManeuversMaintenance 672
scalar OsgEarthNet.uav[23] utilizationCountChargeState 336
scalar OsgEarthNet.uav[23] utilizationCountOverdrawnAfterMission 0
scalar OsgEarthNet.uav[23] utilizationCountIdleState 1
scalar OsgEarthNet.uav[23] utilizationFail 0
scalar OsgEarthNet.uav[23] simulationTime 1209600
scalar OsgEarthNet.uav[24] utilizationSecMission 186628.65386445
scalar OsgEarthNet.uav[24] utilizationSecMaintenance 112581.80400102
scalar OsgEarthNet.uav[24] utilizationSecCharge 908124.09904584
scalar OsgEarthNet.uav[24] utilizationSecIdle 2265.4420886909
scalar OsgEarthNet.uav[24] utilizationEnergyMission 910866.38906479
scalar OsgEarthNet.uav[24] utilizationEnergyMaintenance 528859.98478317
scalar OsgEarthNet.uav[24] utilizationEnergyCharge 1438922.814209
scalar OsgEarthNet.uav[24] utilizationEnergyOverdrawMission 0
scalar OsgEarthNet.uav[24] utilizationEnergyOverdrawMaintenance 10.359279632568
scalar OsgEarthNet.uav[24] utilizationCountMissions 340
scalar OsgEarthNet.uav[24] utilizationCountManeuversMission 6077
scalar OsgEarthNet.uav[24] utilizationCountManeuversMaintenance 680
scalar OsgEarthNet.uav[24] utilizationCountChargeState 340
scalar OsgEarthNet.uav[24] utilizationCountOverdrawnAfterMission 1
scalar OsgEarthNet.uav[24] utilizationCountIdleState 1
scalar OsgEarthNet.uav[24] utilizationFail 0
scalar OsgEarthNet.uav[24] simulationTime 1209600
scalar OsgEarthNet.uav[25] utilizationSecMission 197643.53210715
scalar OsgEarthNet.uav[25] utilizationSecMaintenance 103738.20090251
scalar OsgEarthNet.uav[25] utilizationSecCharge 908136.26599034
scalar OsgEarthNet.uav[25] utilizationSecIdle 82
scalar OsgEarthNet.uav[25] utilizationEnergyMission 957527.21337509
scalar OsgEarthNet.uav[25] utilizationEnergyMaintenance 483626.76142883
scalar OsgEarthNet.uav[25] utilizationEnergyCharge 1434818.4395752
scalar OsgEarthNet.uav[25] utilizationEnergyOverdrawMission 0
scalar OsgEarthNet.uav[25] utilizationEnergyOverdrawMaintenance 0
scalar OsgEarthNet.uav[25] utilizationCountMissions 333
scalar OsgEarthNet.uav[25] utilizationCountManeuversMission 6151
scalar OsgEarthNet.uav[25] utilizationCountManeuversMaintenance 666
scalar OsgEarthNet.uav[25] utilizationCountChargeState 333
scalar OsgEarthNet.uav[25] utilizationCountOverdrawnAfterMission 0
scalar OsgEarthNet.uav[25] utilizationCountIdleState 2
scalar OsgEarthNet.uav[25] utilizationFail 0
scalar OsgEarthNet.uav[25] simulationTime 1209600
scalar OsgEarthNet.uav[26] utilizationSecMission 181929.58452856
scalar OsgEarthNet.uav[26] utilizationSecMaintenance 111466.22216786
scalar OsgEarthNet.uav[26] utilizationSecCharge 913842.18730358
scalar OsgEarthNet.uav[26] utilizationSecIdle 2362.005
scalar OsgEarthNet.uav[26] utilizationEnergyMission 878740.98288727
scalar OsgEarthNet.uav[26] utilizationEnergyMaintenance 525403.59670639
scalar OsgEarthNet.uav[26] utilizationEnergyCharge 1403963.1252441
scalar OsgEarthNet.uav[26] utilizationEnergyOverdrawMission 0
scalar OsgEarthNet.uav[26] utilizationEnergyOverdrawMaintenance 0
scalar OsgEarthNet.uav[26] utilizationCountMissions 342
scalar OsgEarthNet.uav[26] utilizationCountManeuversMission 5702
scalar OsgEarthNet.uav[26] utilizationCountManeuversMaintenance 684
scalar OsgEarthNet.uav[26] utilizationCountChargeState 342
scalar OsgEarthNet.uav[26] utilizationCountOverdrawnAfterMission 0
scalar OsgEarthNet.uav[26] utilizationCountIdleState 2
scalar OsgEarthNet.uav[26] utilizationFail 0
scalar OsgEarthNet.uav[26] simulationTime 1209600
scalar OsgEarthNet.uav[27] utilizationSecMission 205004.1989878
scalar OsgEarthNet.uav[27] utilizationSecMaintenance 95693.800012197
scalar OsgEarthNet.uav[27] utilizationSecCharge 908900
scalar OsgEarthNet.uav[27] utilizationSecIdle 2
scalar OsgEarthNet.uav[27] utilizationEnergyMission 989394.23190223
scalar OsgEarthNet.uav[27] utilizationEnergyMaintenance 447041.12184525
scalar OsgEarthNet.uav[27] utilizationEnergyCharge 1429445.7214355
scalar OsgEarthNet.uav[27] utilizationEnergyOverdrawMission 0
scalar OsgEarthNet.uav[27] utilizationEnergyOverdrawMaintenance 29.492956161499
scalar OsgEarthNet.uav[27] utilizationCountMissions 327
scalar OsgEarthNet.uav[27] utilizationCountManeuversMission 6285
scalar OsgEarthNet.uav[27] utilizationCountManeuversMaintenance 654
scalar OsgEarthNet.uav[27] utilizationCountChargeState 327
scalar OsgEarthNet.uav[27] utilizationCountOverdrawnAfterMission 1
scalar OsgEarthNet.uav[27] utilizationCountIdleState 1
scalar OsgEarthNet.uav[27] utilizationFail 0
scalar OsgEarthNet.uav[27] simulationTime 1209600
scalar OsgEarthNet.uav[28] utilizationSecMission 183781.62109585
scalar OsgEarthNet.uav[28] utilizationSecMaintenance 111999.55873718
scalar OsgEarthNet.uav[28] utilizationSecCharge 911999.22429053
scalar OsgEarthNet.uav[28] utilizationSecIdle 1819.5948764292
scalar OsgEarthNet.uav[28] utilizationEnergyMission 891679.65002823
scalar OsgEarthNet.uav[28] utilizationEnergyMaintenance 528899.30302048
scalar OsgEarthNet.uav[28] utilizationEnergyCharge 1419995.0012207
scalar OsgEarthNet.uav[28] utilizationEnergyOverdrawMission 0
scalar OsgEarthNet.uav[28] utilizationEnergyOverdrawMaintenance 0
scalar OsgEarthNet.uav[28] utilizationCountMissions 339
scalar OsgEarthNet.uav[28] utilizationCountManeuversMission 5947
scalar OsgEarthNet.uav[28] utilizationCountManeuversMaintenance 678
scalar OsgEarthNet.uav[28] utilizationCountChargeState 339
scalar OsgEarthNet.uav[28] utilizationCountOverdrawnAfterMission 0
scalar OsgEarthNet.uav[28] utilizationCountIdleState 1
scalar OsgEarthNet.uav[28] utilizationFail 0
scalar OsgEarthNet.uav[28] simulationTime 1209600
scalar OsgEarthNet.uav[29] utilizationSecMission 201299.7765781
scalar OsgEarthNet.uav[29] utilizationSecMaintenance 99456.298982543
scalar OsgEarthNet.uav[29] utilizationSecCharge 908841.92343936
scalar OsgEarthNet.uav[29] utilizationSecIdle 2
scalar OsgEarthNet.uav[29] utilizationEnergyMission 984690.7075882
scalar OsgEarthNet.uav[29] utilizationEnergyMaintenance 463034.61641693
scalar OsgEarthNet.uav[29] utilizationEnergyCharge 1440505.6796875
scalar OsgEarthNet.uav[29] utilizationEnergyOverdrawMission 0
scalar OsgEarthNet.uav[29] utilizationEnergyOverdrawMaintenance 0
scalar OsgEarthNet.uav[29] utilizationCountMissions 330
scalar OsgEarthNet.uav[29] utilizationCountManeuversMission 6623
scalar OsgEarthNet.uav[29] utilizationCountManeuversMaintenance 659
scalar OsgEarthNet.uav[29] utilizationCountChargeState 330
scalar OsgEarthNet.uav[29] utilizationCountOverdrawnAfterMission 0
scalar OsgEarthNet.uav[29] utilizationCountIdleState 1
scalar OsgEarthNet.uav[29] utilizationFail 0
scalar OsgEarthNet.uav[29] simulationTime 1209600
scalar OsgEarthNet.uav[30] utilizationSecMission 186244.48300958
scalar OsgEarthNet.uav[30] utilizationSecMaintenance 112487.87302395
scalar OsgEarthNet.uav[30] utilizationSecCharge 909560.39812754
scalar OsgEarthNet.uav[30] utilizationSecIdle 1307.2448389298
scalar OsgEarthNet.uav[30] utilizationEnergyMission 906173.41969681
scalar OsgEarthNet.uav[30] utilizationEnergyMaintenance 529639.65749359
scalar OsgEarthNet.uav[30] utilizationEnergyCharge 1435148.3042603
scalar OsgEarthNet.uav[30] utilizationEnergyOverdrawMission 0
scalar OsgEarthNet.uav[30] utilizationEnergyOverdrawMaintenance 0
scalar OsgEarthNet.uav[30] utilizationCountMissions 342
scalar OsgEarthNet.uav[30] utilizationCountManeuversMission 6108
scalar OsgEarthNet.uav[30] utilizationCountManeuversMaintenance 684
scalar OsgEarthNet.uav[30] utilizationCountChargeState 342
scalar OsgEarthNet.uav[30] utilizationCountOverdrawnAfterMission 0
scalar OsgEarthNet.uav[30] utilizationCountIdleState 1
scalar OsgEarthNet.uav[30] utilizationFail 0
scalar OsgEarthNet.uav[30] simulationTime 1209600
scalar OsgEarthNet.uav[31] utilizationSecMission 188427.10047778
scalar OsgEarthNet.uav[31] utilizationSecMaintenance 111414.47183793
scalar OsgEarthNet.uav[31] utilizationSecCharge 907750.42683362
scalar OsgEarthNet.uav[31] utilizationSecIdle 2007.9998506628
scalar OsgEarthNet.uav[31] utilizationEnergyMission 908517.10787201
scalar OsgEarthNet.uav[31] utilizationEnergyMaintenance 527728.31878281
scalar OsgEarthNet.uav[31] utilizationEnergyCharge 1433408.53302
scalar OsgEarthNet.uav[31] utilizationEnergyOverdrawMission 0
scalar OsgEarthNet.uav[31] utilizationEnergyOverdrawMaintenance 0
scalar OsgEarthNet.uav[31] utilizationCountMissions 339
scalar OsgEarthNet.uav[31] utilizationCountManeuversMission 5918
scalar OsgEarthNet.uav[31] utilizationCountManeuversMaintenance 678
scalar OsgEarthNet.uav[31] utilizationCountChargeState 339
scalar OsgEarthNet.uav[31] utilizationCountOverdrawnAfterMission 0
scalar OsgEarthNet.uav[31] utilizationCountIdleState 2
scalar OsgEarthNet.uav[31] utilizationFail 0
scalar OsgEarthNet.uav[31] simulationTime 1209600
scalar OsgEarthNet.uav[32] utilizationSecMission 199942.35643445
scalar OsgEarthNet.uav[32] utilizationSecMaintenance 99658.217218256
scalar OsgEarthNet.uav[32] utilizationSecCharge 908520
scalar OsgEarthNet.uav[32] utilizationSecIdle 1479.4253472904
scalar OsgEarthNet.uav[32] utilizationEnergyMission 973345.96763229
scalar OsgEarthNet.uav[32] utilizationEnergyMaintenance 463257.23552611
scalar OsgEarthNet.uav[32] utilizationEnergyCharge 1431255.3840332
scalar OsgEarthNet.uav[32] utilizationEnergyOverdrawMission 0
scalar OsgEarthNet.uav[32] utilizationEnergyOverdrawMaintenance 0
scalar OsgEarthNet.uav[32] utilizationCountMissions 329
scalar OsgEarthNet.uav[32] utilizationCountManeuversMission 6497
scalar OsgEarthNet.uav[32] utilizationCountManeuversMaintenance 659
scalar OsgEarthNet.uav[32] utilizationCountChargeState 329
scalar OsgEarthNet.uav[32] utilizationCountOverdrawnAfterMission 0
scalar OsgEarthNet.uav[32] utilizationCountIdleState 2
scalar OsgEarthNet.uav[32] utilizationFail 0
scalar OsgEarthNet.uav[32] simulationTime 1209600
scalar OsgEarthNet.uav[33] utilizationSecMission 207393.45912387
scalar OsgEarthNet.uav[33] utilizationSecMaintenance 92954.537876124
scalar OsgEarthNet.uav[33] utilizationSecCharge 908330
scalar OsgEarthNet.uav[33] utilizationSecIdle 922.002
scalar OsgEarthNet.uav[33] utilizationEnergyMission 1010771.2401798
scalar OsgEarthNet.uav[33] utilizationEnergyMaintenance 431023.25496674
scalar OsgEarthNet.uav[33] utilizationEnergyCharge 1443246.5136719
scalar OsgEarthNet.uav[33] utilizationEnergyOverdrawMission 0
scalar OsgEarthNet.uav[33] utilizationEnergyOverdrawMaintenance 0
scalar OsgEarthNet.uav[33] utilizationCountMissions 325
scalar OsgEarthNet.uav[33] utilizationCountManeuversMission 6831
scalar OsgEarthNet.uav[33] utilizationCountManeuversMaintenance 651
scalar OsgEarthNet.uav[33] utilizationCountChargeState 325
scalar OsgEarthNet.uav[33] utilizationCountOverdrawnAfterMission 0
scalar OsgEarthNet.uav[33] utilizationCountIdleState 1
scalar OsgEarthNet.uav[33] utilizationFail 0
scalar OsgEarthNet.uav[33] simulationTime 1209600
scalar OsgEarthNet.uav[34] utilizationSecMission 185671.40968172
scalar OsgEarthNet.uav[34] utilizationSecMaintenance 108584.64010455
scalar OsgEarthNet.uav[34] utilizationSecCharge 912794.14899499
scalar OsgEarthNet.uav[34] utilizationSecIdle 2549.8002187448
scalar OsgEarthNet.uav[34] utilizationEnergyMission 894077.26007462
scalar OsgEarthNet.uav[34] utilizationEnergyMaintenance 513498.86195755
scalar OsgEarthNet.uav[34] utilizationEnergyCharge 1407122.9831543
scalar OsgEarthNet.uav[34] utilizationEnergyOverdrawMission 0
scalar OsgEarthNet.uav[34] utilizationEnergyOverdrawMaintenance 0
scalar OsgEarthNet.uav[34] utilizationCountMissions 340
scalar OsgEarthNet.uav[34] utilizationCountManeuversMission 5477
scalar OsgEarthNet.uav[34] utilizationCountManeuversMaintenance 680
scalar OsgEarthNet.uav[34] utilizationCountChargeState 340
scalar OsgEarthNet.uav[34] utilizationCountOverdrawnAfterMission 0
scalar OsgEarthNet.uav[34] utilizationCountIdleState 2
scalar OsgEarthNet.uav[34] utilizationFail 0
scalar OsgEarthNet.uav[34] simulationTime 1209600
scalar OsgEarthNet.uav[35] utilizationSecMission 186598.72094117
scalar OsgEarthNet.uav[35] utilizationSecMaintenance 113096.7581555
scalar OsgEarthNet.uav[35] utilizationSecCharge 909322.51890333
scalar OsgEarthNet.uav[35] utilizationSecIdle 582.001
scalar OsgEarthNet.uav[35] utilizationEnergyMission 909841.94683838
scalar OsgEarthNet.uav[35] utilizationEnergyMaintenance 534363.04774857
scalar OsgEarthNet.uav[35] utilizationEnergyCharge 1435950.3695068
scalar OsgEarthNet.uav[35] utilizationEnergyOverdrawMission 0
scalar OsgEarthNet.uav[35] utilizationEnergyOverdrawMaintenance 0
scalar OsgEarthNet.uav[35] utilizationCountMissions 341
scalar OsgEarthNet.uav[35] utilizationCountManeuversMission 5838
scalar OsgEarthNet.uav[35] utilizationCountManeuversMaintenance 682
scalar OsgEarthNet.uav[35] utilizationCountChargeState 341
scalar OsgEarthNet.uav[35] utilizationCountOverdrawnAfterMission 0
scalar OsgEarthNet.uav[35] utilizationCountIdleState 2
scalar OsgEarthNet.uav[35] utilizationFail 0
scalar OsgEarthNet.uav[35] simulationTime 1209600
scalar OsgEarthNet.uav[36] utilizationSecMission 184883.66638496
scalar OsgEarthNet.uav[36] utilizationSecMaintenance 109788.61127106
scalar OsgEarthNet.uav[36] utilizationSecCharge 912845.78233741
scalar OsgEarthNet.uav[36] utilizationSecIdle 2081.939006574
scalar OsgEarthNet.uav[36] utilizationEnergyMission 895959.96508026
scalar OsgEarthNet.uav[36] utilizationEnergyMaintenance 518376.15155029
scalar OsgEarthNet.uav[36] utilizationEnergyCharge 1416156.3850098
scalar OsgEarthNet.uav[36] utilizationEnergyOverdrawMission 0
scalar OsgEarthNet.uav[36] utilizationEnergyOverdrawMaintenance 0
scalar OsgEarthNet.uav[36] utilizationCountMissions 339
scalar OsgEarthNet.uav[36] utilizationCountManeuversMission 5589
scalar OsgEarthNet.uav[36] utilizationCountManeuversMaintenance 678
scalar OsgEarthNet.uav[36] utilizationCountChargeState 339
scalar OsgEarthNet.uav[36] utilizationCountOverdrawnAfterMission 0
scalar OsgEarthNet.uav[36] utilizationCountIdleState 1
scalar OsgEarthNet.uav[36] utilizationFail 0
scalar OsgEarthNet.uav[36] simulationTime 1209600
scalar OsgEarthNet.uav[37] utilizationSecMission 193167.91452347
scalar OsgEarthNet.uav[37] utilizationSecMaintenance 103802.10387972
scalar OsgEarthNet.uav[37] utilizationSecCharge 911039.01661114
scalar OsgEarthNet.uav[37] utilizationSecIdle 1590.9639856735
scalar OsgEarthNet.uav[37] utilizationEnergyMission 929693.77031326
scalar OsgEarthNet.uav[37] utilizationEnergyMaintenance 489184.01861954
scalar OsgEarthNet.uav[37] utilizationEnergyCharge 1412614.1334229
scalar OsgEarthNet.uav[37] utilizationEnergyOverdrawMission 0
scalar OsgEarthNet.uav[37] utilizationEnergyOverdrawMaintenance 0
scalar OsgEarthNet.uav[37] utilizationCountMissions 333
scalar OsgEarthNet.uav[37] utilizationCountManeuversMission 5703
scalar OsgEarthNet.uav[37] utilizationCountManeuversMaintenance 666
scalar OsgEarthNet.uav[37] utilizationCountChargeState 333
scalar OsgEarthNet.uav[37] utilizationCountOverdrawnAfterMission 0
scalar OsgEarthNet.uav[37] utilizationCountIdleState 2
scalar OsgEarthNet.uav[37] utilizationFail 0
scalar OsgEarthNet.uav[37] simulationTime 1209600
scalar OsgEarthNet.uav[38] utilizationSecMission 191034.64927397
scalar OsgEarthNet.uav[38] utilizationSecMaintenance 106822.47000379
scalar OsgEarthNet.uav[38] utilizationSecCharge 910843.70461183
scalar OsgEarthNet.uav[38] utilizationSecIdle 899.17511041073
scalar OsgEarthNet.uav[38] utilizationEnergyMission 925119.80797195
scalar OsgEarthNet.uav[38] utilizationEnergyMaintenance 500290.93905258
scalar OsgEarthNet.uav[38] utilizationEnergyCharge 1419399.5742188
scalar OsgEarthNet.uav[38] utilizationEnergyOverdrawMission 0
scalar OsgEarthNet.uav[38] utilizationEnergyOverdrawMaintenance 0
scalar OsgEarthNet.uav[38] utilizationCountMissions 337
scalar OsgEarthNet.uav[38] utilizationCountManeuversMission 5995
scalar OsgEarthNet.uav[38] utilizationCountManeuversMaintenance 674
scalar OsgEarthNet.uav[38] utilizationCountChargeState 337
scalar OsgEarthNet.uav[38] utilizationCountOverdrawnAfterMission 0
scalar OsgEarthNet.uav[38] utilizationCountIdleState 2
scalar OsgEarthNet.uav[38] utilizationFail 0
scalar OsgEarthNet.uav[38] simulationTime 1209600
scalar OsgEarthNet.uav[39] utilizationSecMission 188938.20203671
scalar OsgEarthNet.uav[39] utilizationSecMaintenance 107027.58377295
scalar OsgEarthNet.uav[39] utilizationSecCharge 912252.21019035
scalar OsgEarthNet.uav[39] utilizationSecIdle 1382.003
scalar OsgEarthNet.uav[39] utilizationEnergyMission 910888.00139999
scalar OsgEarthNet.uav[39] utilizationEnergyMaintenance 505308.1459465
scalar OsgEarthNet.uav[39] utilizationEnergyCharge 1412901.8596191
scalar OsgEarthNet.uav[39] utilizationEnergyOverdrawMission 0
scalar OsgEarthNet.uav[39] utilizationEnergyOverdrawMaintenance 0
scalar OsgEarthNet.uav[39] utilizationCountMissions 339
scalar OsgEarthNet.uav[39] utilizationCountManeuversMission 5532
scalar OsgEarthNet.uav[39] utilizationCountManeuversMaintenance 678
scalar OsgEarthNet.uav[39] utilizationCountChargeState 339
scalar OsgEarthNet.uav[39] utilizationCountOverdrawnAfterMission 0
scalar OsgEarthNet.uav[39] utilizationCountIdleState 1
scalar OsgEarthNet.uav[39] utilizationFail 0
scalar OsgEarthNet.uav[39] simulationTime 1209600
scalar OsgEarthNet.uav[40] utilizationSecMission 186361.10733373
scalar OsgEarthNet.uav[40] utilizationSecMaintenance 116510.77333174
scalar OsgEarthNet.uav[40] utilizationSecCharge 905965.49217375
scalar OsgEarthNet.uav[40] utilizationSecIdle 762.62616078931
scalar OsgEarthNet.uav[40] utilizationEnergyMission 913032.23389816
scalar OsgEarthNet.uav[40] utilizationEnergyMaintenance 549339.09204102
scalar OsgEarthNet.uav[40] utilizationEnergyCharge 1455154.769043
scalar OsgEarthNet.uav[40] utilizationEnergyOverdrawMission 0
scalar OsgEarthNet.uav[40] utilizationEnergyOverdrawMaintenance 0
scalar OsgEarthNet.uav[40] utilizationCountMissions 342
scalar OsgEarthNet.uav[40] utilizationCountManeuversMission 6011
scalar OsgEarthNet.uav[40] utilizationCountManeuversMaintenance 684
scalar OsgEarthNet.uav[40] utilizationCountChargeState 342
scalar OsgEarthNet.uav[40] utilizationCountOverdrawnAfterMission 0
scalar OsgEarthNet.uav[40] utilizationCountIdleState 1
scalar OsgEarthNet.uav[40] utilizationFail 0
scalar OsgEarthNet.uav[40] simulationTime 1209600
scalar OsgEarthNet.uav[41] utilizationSecMission 206245.01070902
scalar OsgEarthNet.uav[41] utilizationSecMaintenance 93392.985290977
scalar OsgEarthNet.uav[41] utilizationSecCharge 908440
scalar OsgEarthNet.uav[41] utilizationSecIdle 1522.003
scalar OsgEarthNet.uav[41] utilizationEnergyMission 1001489.5553952
scalar OsgEarthNet.uav[41] utilizationEnergyMaintenance 431561.92277527
scalar OsgEarthNet.uav[41] utilizationEnergyCharge 1431236.6652832
scalar OsgEarthNet.uav[41] utilizationEnergyOverdrawMission 0
scalar OsgEarthNet.uav[41] utilizationEnergyOverdrawMaintenance 0
scalar OsgEarthNet.uav[41] utilizationCountMissions 326
scalar OsgEarthNet.uav[41] utilizationCountManeuversMission 6631
scalar OsgEarthNet.uav[41] utilizationCountManeuversMaintenance 653
scalar OsgEarthNet.uav[41] utilizationCountChargeState 326
scalar OsgEarthNet.uav[41] utilizationCountOverdrawnAfterMission 0
scalar OsgEarthNet.uav[41] utilizationCountIdleState 1
scalar OsgEarthNet.uav[41] utilizationFail 0
scalar OsgEarthNet.uav[41] simulationTime 1209600
scalar OsgEarthNet.uav[42] utilizationSecMission 190595.45528379
scalar OsgEarthNet.uav[42] utilizationSecMaintenance 112122.54371621
scalar OsgEarthNet.uav[42] utilizationSecCharge 906880
scalar OsgEarthNet.uav[42] utilizationSecIdle 2
scalar OsgEarthNet.uav[42] utilizationEnergyMission 936537.45551027
scalar OsgEarthNet.uav[42] utilizationEnergyMaintenance 527580.59115601
scalar OsgEarthNet.uav[42] utilizationEnergyCharge 1462515.7009277
scalar OsgEarthNet.uav[42] utilizationEnergyOverdrawMission 0
scalar OsgEarthNet.uav[42] utilizationEnergyOverdrawMaintenance 0
scalar OsgEarthNet.uav[42] utilizationCountMissions 338
scalar OsgEarthNet.uav[42] utilizationCountManeuversMission 6612
scalar OsgEarthNet.uav[42] utilizationCountManeuversMaintenance 677
scalar OsgEarthNet.uav[42] utilizationCountChargeState 338
scalar OsgEarthNet.uav[42] utilizationCountOverdrawnAfterMission 0
scalar OsgEarthNet.uav[42] utilizationCountIdleState 1
scalar OsgEarthNet.uav[42] utilizationFail 0
scalar OsgEarthNet.uav[42] simulationTime 1209600
scalar OsgEarthNet.uav[43] utilizationSecMission 201585.03368725
scalar OsgEarthNet.uav[43] utilizationSecMaintenance 97757.168528692
scalar OsgEarthNet.uav[43] utilizationSecCharge 910255.79678406
scalar OsgEarthNet.uav[43] utilizationSecIdle 2
scalar OsgEarthNet.uav[43] utilizationEnergyMission 975289.86171341
scalar OsgEarthNet.uav[43] utilizationEnergyMaintenance 452707.14996719
scalar OsgEarthNet.uav[43] utilizationEnergyCharge 1434559.3244629
scalar OsgEarthNet.uav[43] utilizationEnergyOverdrawMission 0
scalar OsgEarthNet.uav[43] utilizationEnergyOverdrawMaintenance 0
scalar OsgEarthNet.uav[43] utilizationCountMissions 331
scalar OsgEarthNet.uav[43] utilizationCountManeuversMission 6422
scalar OsgEarthNet.uav[43] utilizationCountManeuversMaintenance 661
scalar OsgEarthNet.uav[43] utilizationCountChargeState 331
scalar OsgEarthNet.uav[43] utilizationCountOverdrawnAfterMission 0
scalar OsgEarthNet.uav[43] utilizationCountIdleState 1
scalar OsgEarthNet.uav[43] utilizationFail 0
scalar OsgEarthNet.uav[43] simulationTime 1209600
scalar OsgEarthNet.uav[44] utilizationSecMission 195245.11266771
scalar OsgEarthNet.uav[44] utilizationSecMaintenance 103714.63200821
scalar OsgEarthNet.uav[44] utilizationSecCharge 908694.81323539
scalar OsgEarthNet.uav[44] utilizationSecIdle 1945.4410886909
scalar OsgEarthNet.uav[44] utilizationEnergyMission 941912.53268433
scalar OsgEarthNet.uav[44] utilizationEnergyMaintenance 487884.70492172
scalar OsgEarthNet.uav[44] utilizationEnergyCharge 1427500.3217773
scalar OsgEarthNet.uav[44] utilizationEnergyOverdrawMission 0
scalar OsgEarthNet.uav[44] utilizationEnergyOverdrawMaintenance 0
scalar OsgEarthNet.uav[44] utilizationCountMissions 333
scalar OsgEarthNet.uav[44] utilizationCountManeuversMission 5925
scalar OsgEarthNet.uav[44] utilizationCountManeuversMaintenance 666
scalar OsgEarthNet.uav[44] utilizationCountChargeState 333
scalar OsgEarthNet.uav[44] utilizationCountOverdrawnAfterMission 0
scalar OsgEarthNet.uav[44] utilizationCountIdleState 1
scalar OsgEarthNet.uav[44] utilizationFail 0
scalar OsgEarthNet.uav[44] simulationTime 1209600
scalar OsgEarthNet.uav[45] utilizationSecMission 200666.62308961
scalar OsgEarthNet.uav[45] utilizationSecMaintenance 97331.373910386
scalar OsgEarthNet.uav[45] utilizationSecCharge 910510
scalar OsgEarthNet.uav[45] utilizationSecIdle 1092.002
scalar OsgEarthNet.uav[45] utilizationEnergyMission 974669.24880692
scalar OsgEarthNet.uav[45] utilizationEnergyMaintenance 456069.71399689
scalar OsgEarthNet.uav[45] utilizationEnergyCharge 1424896.0998535
scalar OsgEarthNet.uav[45] utilizationEnergyOverdrawMission 0
scalar OsgEarthNet.uav[45] utilizationEnergyOverdrawMaintenance 0
scalar OsgEarthNet.uav[45] utilizationCountMissions 325
scalar OsgEarthNet.uav[45] utilizationCountManeuversMission 6467
scalar OsgEarthNet.uav[45] utilizationCountManeuversMaintenance 651
scalar OsgEarthNet.uav[45] utilizationCountChargeState 325
scalar OsgEarthNet.uav[45] utilizationCountOverdrawnAfterMission 0
scalar OsgEarthNet.uav[45] utilizationCountIdleState 2
scalar OsgEarthNet.uav[45] utilizationFail 0
scalar OsgEarthNet.uav[45] simulationTime 1209600
scalar OsgEarthNet.uav[46] utilizationSecMission 181803.01725834
scalar OsgEarthNet.uav[46] utilizationSecMaintenance 119054.97774166
scalar OsgEarthNet.uav[46] utilizationSecCharge 906860
scalar OsgEarthNet.uav[46] utilizationSecIdle 1882.004
scalar OsgEarthNet.uav[46] utilizationEnergyMission 884736.528965
scalar OsgEarthNet.uav[46] utilizationEnergyMaintenance 563360.94045463
scalar OsgEarthNet.uav[46] utilizationEnergyCharge 1443141.1374512
scalar OsgEarthNet.uav[46] utilizationEnergyOverdrawMission 0
scalar OsgEarthNet.uav[46] utilizationEnergyOverdrawMaintenance 0
scalar OsgEarthNet.uav[46] utilizationCountMissions 344
scalar OsgEarthNet.uav[46] utilizationCountManeuversMission 5942
scalar OsgEarthNet.uav[46] utilizationCountManeuversMaintenance 688
scalar OsgEarthNet.uav[46] utilizationCountChargeState 343
scalar OsgEarthNet.uav[46] utilizationCountOverdrawnAfterMission 0
scalar OsgEarthNet.uav[46] utilizationCountIdleState 2
scalar OsgEarthNet.uav[46] utilizationFail 0
scalar OsgEarthNet.uav[46] simulationTime 1209600
scalar OsgEarthNet.uav[47] utilizationSecMission 197549.11581187
scalar OsgEarthNet.uav[47] utilizationSecMaintenance 101405.85082673
scalar OsgEarthNet.uav[47] utilizationSecCharge 910643.03236141
scalar OsgEarthNet.uav[47] utilizationSecIdle 2
scalar OsgEarthNet.uav[47] utilizationEnergyMission 965557.21325684
scalar OsgEarthNet.uav[47] utilizationEnergyMaintenance 473662.04639053
scalar OsgEarthNet.uav[47] utilizationEnergyCharge 1433542.9511719
scalar OsgEarthNet.uav[47] utilizationEnergyOverdrawMission 0
scalar OsgEarthNet.uav[47] utilizationEnergyOverdrawMaintenance 0
scalar OsgEarthNet.uav[47] utilizationCountMissions 334
scalar OsgEarthNet.uav[47] utilizationCountManeuversMission 6315
scalar OsgEarthNet.uav[47] utilizationCountManeuversMaintenance 668
scalar OsgEarthNet.uav[47] utilizationCountChargeState 334
scalar OsgEarthNet.uav[47] utilizationCountOverdrawnAfterMission 0
scalar OsgEarthNet.uav[47] utilizationCountIdleState 1
scalar OsgEarthNet.uav[47] utilizationFail 0
scalar OsgEarthNet.uav[47] simulationTime 1209600
scalar OsgEarthNet.uav[48] utilizationSecMission 189516.62901038
scalar OsgEarthNet.uav[48] utilizationSecMaintenance 111865.83384378
scalar OsgEarthNet.uav[48] utilizationSecCharge 906714.83347812
scalar OsgEarthNet.uav[48] utilizationSecIdle 1502.7026677176
scalar OsgEarthNet.uav[48] utilizationEnergyMission 924206.75561905
scalar OsgEarthNet.uav[48] utilizationEnergyMaintenance 527151.79598618
scalar OsgEarthNet.uav[48] utilizationEnergyCharge 1440921.8952637
scalar OsgEarthNet.uav[48] utilizationEnergyOverdrawMission 0
scalar OsgEarthNet.uav[48] utilizationEnergyOverdrawMaintenance 0
scalar OsgEarthNet.uav[48] utilizationCountMissions 339
scalar OsgEarthNet.uav[48] utilizationCountManeuversMission 6115
scalar OsgEarthNet.uav[48] utilizationCountManeuversMaintenance 678
scalar OsgEarthNet.uav[48] utilizationCountChargeState 339
scalar OsgEarthNet.uav[48] utilizationCountOverdrawnAfterMission 0
scalar OsgEarthNet.uav[48] utilizationCountIdleState 1
scalar OsgEarthNet.uav[48] utilizationFail 0
scalar OsgEarthNet.uav[48] simulationTime 1209600
scalar OsgEarthNet.uav[49] utilizationSecMission 184750.8569902
scalar OsgEarthNet.uav[49] utilizationSecMaintenance 112645.77742913
scalar OsgEarthNet.uav[49] utilizationSecCharge 908901.35758067
scalar OsgEarthNet.uav[49] utilizationSecIdle 3302.007
scalar OsgEarthNet.uav[49] utilizationEnergyMission 896238.16130066
scalar OsgEarthNet.uav[49] utilizationEnergyMaintenance 530087.23904037
scalar OsgEarthNet.uav[49] utilizationEnergyCharge 1428611.9797363
scalar OsgEarthNet.uav[49] utilizationEnergyOverdrawMission 0
scalar OsgEarthNet.uav[49] utilizationEnergyOverdrawMaintenance 0
scalar OsgEarthNet.uav[49] utilizationCountMissions 341
scalar OsgEarthNet.uav[49] utilizationCountManeuversMission 5998
scalar OsgEarthNet.uav[49] utilizationCountManeuversMaintenance 682
scalar OsgEarthNet.uav[49] utilizationCountChargeState 341
scalar OsgEarthNet.uav[49] utilizationCountOverdrawnAfterMission 0
scalar OsgEarthNet.uav[49] utilizationCountIdleState 1
scalar OsgEarthNet.uav[49] utilizationFail 0
scalar OsgEarthNet.uav[49] simulationTime 1209600
scalar OsgEarthNet.uav[50] utilizationSecMission 185322.34591122
scalar OsgEarthNet.uav[50] utilizationSecMaintenance 111003.47071106
scalar OsgEarthNet.uav[50] utilizationSecCharge 910323.27969536
scalar OsgEarthNet.uav[50] utilizationSecIdle 2950.9026823698
scalar OsgEarthNet.uav[50] utilizationEnergyMission 900562.83807755
scalar OsgEarthNet.uav[50] utilizationEnergyMaintenance 522313.19403076
scalar OsgEarthNet.uav[50] utilizationEnergyCharge 1427268.902832
scalar OsgEarthNet.uav[50] utilizationEnergyOverdrawMission 0
scalar OsgEarthNet.uav[50] utilizationEnergyOverdrawMaintenance 0
scalar OsgEarthNet.uav[50] utilizationCountMissions 338
scalar OsgEarthNet.uav[50] utilizationCountManeuversMission 6205
scalar OsgEarthNet.uav[50] utilizationCountManeuversMaintenance 676
scalar OsgEarthNet.uav[50] utilizationCountChargeState 338
scalar OsgEarthNet.uav[50] utilizationCountOverdrawnAfterMission 0
scalar OsgEarthNet.uav[50] utilizationCountIdleState 2
scalar OsgEarthNet.uav[50] utilizationFail 0
scalar OsgEarthNet.uav[50] simulationTime 1209600
scalar OsgEarthNet.uav[51] utilizationSecMission 191230.42603026
scalar OsgEarthNet.uav[51] utilizationSecMaintenance 111828.55393975
scalar OsgEarthNet.uav[51] utilizationSecCharge 905649.01752327
scalar OsgEarthNet.uav[51] utilizationSecIdle 892.00150672213
scalar OsgEarthNet.uav[51] utilizationEnergyMission 928145.79463959
scalar OsgEarthNet.uav[51] utilizationEnergyMaintenance 526929.74902725
scalar OsgEarthNet.uav[51] utilizationEnergyCharge 1450360.2546387
scalar OsgEarthNet.uav[51] utilizationEnergyOverdrawMission 0
scalar OsgEarthNet.uav[51] utilizationEnergyOverdrawMaintenance 0
scalar OsgEarthNet.uav[51] utilizationCountMissions 338
scalar OsgEarthNet.uav[51] utilizationCountManeuversMission 6046
scalar OsgEarthNet.uav[51] utilizationCountManeuversMaintenance 676
scalar OsgEarthNet.uav[51] utilizationCountChargeState 338
scalar OsgEarthNet.uav[51] utilizationCountOverdrawnAfterMission 0
scalar OsgEarthNet.uav[51] utilizationCountIdleState 1
scalar OsgEarthNet.uav[51] utilizationFail 0
scalar OsgEarthNet.uav[51] simulationTime 1209600
scalar OsgEarthNet.uav[52] utilizationSecMission 196714.18306628
scalar OsgEarthNet.uav[52] utilizationSecMaintenance 102905.47395432
scalar OsgEarthNet.uav[52] utilizationSecCharge 909978.3419794
scalar OsgEarthNet.uav[52] utilizationSecIdle 2
scalar OsgEarthNet.uav[52] utilizationEnergyMission 963327.85697845
scalar OsgEarthNet.uav[52] utilizationEnergyMaintenance 480987.20234299
scalar OsgEarthNet.uav[52] utilizationEnergyCharge 1436747.9512939
scalar OsgEarthNet.uav[52] utilizationEnergyOverdrawMission 0
scalar OsgEarthNet.uav[52] utilizationEnergyOverdrawMaintenance 0
scalar OsgEarthNet.uav[52] utilizationCountMissions 333
scalar OsgEarthNet.uav[52] utilizationCountManeuversMission 6528
scalar OsgEarthNet.uav[52] utilizationCountManeuversMaintenance 665
scalar OsgEarthNet.uav[52] utilizationCountChargeState 333
scalar OsgEarthNet.uav[52] utilizationCountOverdrawnAfterMission 0
scalar OsgEarthNet.uav[52] utilizationCountIdleState 1
scalar OsgEarthNet.uav[52] utilizationFail 0
scalar OsgEarthNet.uav[52] simulationTime 1209600
scalar OsgEarthNet.uav[53] utilizationSecMission 201526.99546335
scalar OsgEarthNet.uav[53] utilizationSecMaintenance 98869.137256473
scalar OsgEarthNet.uav[53] utilizationSecCharge 906162.91702452
scalar OsgEarthNet.uav[53] utilizationSecIdle 3040.9492556647
scalar OsgEarthNet.uav[53] utilizationEnergyMission 970825.79499435
scalar OsgEarthNet.uav[53] utilizationEnergyMaintenance 464843.37405777
scalar OsgEarthNet.uav[53] utilizationEnergyCharge 1439815.3493652
scalar OsgEarthNet.uav[53] utilizationEnergyOverdrawMission 0
scalar OsgEarthNet.uav[53] utilizationEnergyOverdrawMaintenance 0
scalar OsgEarthNet.uav[53] utilizationCountMissions 330
scalar OsgEarthNet.uav[53] utilizationCountManeuversMission 5797
scalar OsgEarthNet.uav[53] utilizationCountManeuversMaintenance 660
scalar OsgEarthNet.uav[53] utilizationCountChargeState 330
scalar OsgEarthNet.uav[53] utilizationCountOverdrawnAfterMission 0
scalar OsgEarthNet.uav[53] utilizationCountIdleState 1
scalar OsgEarthNet.uav[53] utilizationFail 0
scalar OsgEarthNet.uav[53] simulationTime 1209600
scalar OsgEarthNet.uav[54] utilizationSecMission 180193.29132805
scalar OsgEarthNet.uav[54] utilizationSecMaintenance 110384.06487491
scalar OsgEarthNet.uav[54] utilizationSecCharge 917820.64079704
scalar OsgEarthNet.uav[54] utilizationSecIdle 1202.002
scalar OsgEarthNet.uav[54] utilizationEnergyMission 874919.68432999
scalar OsgEarthNet.uav[54] utilizationEnergyMaintenance 522408.8370018
scalar OsgEarthNet.uav[54] utilizationEnergyCharge 1391628.4675293
scalar OsgEarthNet.uav[54] utilizationEnergyOverdrawMission 0
scalar OsgEarthNet.uav[54] utilizationEnergyOverdrawMaintenance 0
scalar OsgEarthNet.uav[54] utilizationCountMissions 345
scalar OsgEarthNet.uav[54] utilizationCountManeuversMission 5428
scalar OsgEarthNet.uav[54] utilizationCountManeuversMaintenance 690
scalar OsgEarthNet.uav[54] utilizationCountChargeState 345
scalar OsgEarthNet.uav[54] utilizationCountOverdrawnAfterMission 0
scalar OsgEarthNet.uav[54] utilizationCountIdleState 4
scalar OsgEarthNet.uav[54] utilizationFail 0
scalar OsgEarthNet.uav[54] simulationTime 1209600
scalar OsgEarthNet.uav[55] utilizationSecMission 184758.64784941
scalar OsgEarthNet.uav[55] utilizationSecMaintenance 111999.35115059
scalar OsgEarthNet.uav[55] utilizationSecCharge 912830
scalar OsgEarthNet.uav[55] utilizationSecIdle 12
scalar OsgEarthNet.uav[55] utilizationEnergyMission 897501.23431079
scalar OsgEarthNet.uav[55] utilizationEnergyMaintenance 527579.82926178
scalar OsgEarthNet.uav[55] utilizationEnergyCharge 1426341.8918457
scalar OsgEarthNet.uav[55] utilizationEnergyOverdrawMission 0
scalar OsgEarthNet.uav[55] utilizationEnergyOverdrawMaintenance 0
scalar OsgEarthNet.uav[55] utilizationCountMissions 340
scalar OsgEarthNet.uav[55] utilizationCountManeuversMission 5900
scalar OsgEarthNet.uav[55] utilizationCountManeuversMaintenance 680
scalar OsgEarthNet.uav[55] utilizationCountChargeState 340
scalar OsgEarthNet.uav[55] utilizationCountOverdrawnAfterMission 0
scalar OsgEarthNet.uav[55] utilizationCountIdleState 2
scalar OsgEarthNet.uav[55] utilizationFail 0
scalar OsgEarthNet.uav[55] simulationTime 1209600
scalar OsgEarthNet.cs[0] usedPower 19818520.75722
scalar OsgEarthNet.cs[0] chargedPower 19818520.75722
scalar OsgEarthNet.cs[0] chargedMobileNodes 0
scalar OsgEarthNet.cs[0] reservations 4649
scalar OsgEarthNet.cs[1] usedPower 25509297.554284
scalar OsgEarthNet.cs[1] chargedPower 25509297.554284
scalar OsgEarthNet.cs[1] chargedMobileNodes 32
scalar OsgEarthNet.cs[1] reservations 6339
scalar OsgEarthNet.cs[2] usedPower 34717533.819941
scalar OsgEarthNet.cs[2] chargedPower 34717533.819941
scalar OsgEarthNet.cs[2] chargedMobileNodes 13
scalar OsgEarthNet.cs[2] reservations 7803

