version 2
run Szenario_Hotel_Gabelbach-16-20180712-19:09:01-23844
attr configname Szenario_Hotel_Gabelbach
attr datetime 20180712-19:09:01
attr experiment Szenario_Hotel_Gabelbach
attr inifile omnetpp.ini
attr iterationvars "$replM=2, $biWeight=0.35, $replSearchM=1, $numUAVs=58"
attr iterationvarsf replM=2,biWeight=0.35,replSearchM=1,numUAVs=58-
attr measurement "$replM=2, $biWeight=0.35, $replSearchM=1, $numUAVs=58"
attr network OsgEarthNet
attr processid 23844
attr repetition 4
attr replication #4
attr resultdir results
attr runnumber 16
attr seedset 16
itervar biWeight 0.35
itervar numUAVs 58
itervar replM 2
itervar replSearchM 1
param *.osgEarthScene.scene "\"Szenario_Hotel_Gabelbach.earth\""
param *.playgroundLatitude 50.6830269
param *.playgroundLongitude 10.8538055
param *.playgroundWidth 3500m
param *.playgroundHeight 3500m
param *.cs[0].posX 3537m
param *.cs[0].posY 965m
param *.cs[0].posZ 538m
param *.cs[1].posX 312m
param *.cs[1].posY 1262m
param *.cs[1].posZ 539m
param *.cs[2].posX 2185m
param *.cs[2].posY 3026m
param *.cs[2].posZ 777m
param *.cs[3].posX 10m
param *.cs[3].posY 2200m
param *.cs[3].posZ 560m
param *.cs[4].posX 750m
param *.cs[4].posY 200m
param *.cs[4].posZ 540m
param *.cs[5].posX 2450m
param *.cs[5].posY 180m
param *.cs[5].posZ 524m
param *.cs[6].posX 3140m
param *.cs[6].posY 1790m
param *.cs[6].posZ 606m
param *.numCSs 3
param *.uav[*].replacementMethod 2
param *.uav[*].weightedSumWeight 0.35
param *.missionControl.replacementSearchMethod 1
param *.numUAVs 58
param *.numCSs 3
param *.numUAVs 100
param *.*.timeStep 10s
param *.uav[*].commandPreviewCommandCount 20
param *.missionControl.missionFiles "\"missions\\\\Szenario_WB_Hotel_Gabelbach_Mission_Hotel.waypoints,missions\\\\Szenario_WB_Hotel_Gabelbach_Mission_Kickelhahn.waypoints,missions\\\\Szenario_WB_Hotel_Gabelbach_Mission_Ilmenau_Sportplatz.waypoints,missions\\\\Szenario_WB_Hotel_Gabelbach_Mission_Manebach_Mitte.waypoints,missions\\\\Szenario_WB_Hotel_Gabelbach_Mission_Manebach_Sued.waypoints,missions\\\\Szenario_WB_Hotel_Gabelbach_Hover_HoheSchlaufe.waypoints,missions\\\\Szenario_WB_Hotel_Gabelbach_Hover_Kickelhahn.waypoints,missions\\\\Szenario_WB_Hotel_Gabelbach_Hover_Gabelbachskopf.waypoints,missions\\\\Szenario_WB_Hotel_Gabelbach_Hover_Dachskopf.waypoints\""
param *.uav[0].startX 3537m
param *.uav[0].startY 965m
param *.uav[0].startZ 539m
param *.uav[1].startX 312m
param *.uav[1].startY 1262m
param *.uav[1].startZ 540m
param *.uav[2].startX 2185m
param *.uav[2].startY 3026m
param *.uav[2].startZ 778m
param *.uav[3].startX 3537m
param *.uav[3].startY 965m
param *.uav[3].startZ 539m
param *.uav[4].startX 312m
param *.uav[4].startY 1262m
param *.uav[4].startZ 540m
param *.uav[5].startX 2185m
param *.uav[5].startY 3026m
param *.uav[5].startZ 778m
param *.uav[6].startX 3537m
param *.uav[6].startY 965m
param *.uav[6].startZ 539m
param *.uav[7].startX 312m
param *.uav[7].startY 1262m
param *.uav[7].startZ 540m
param *.uav[8].startX 2185m
param *.uav[8].startY 3026m
param *.uav[8].startZ 778m
param *.uav[9].startX 3537m
param *.uav[9].startY 965m
param *.uav[9].startZ 539m
param *.uav[10].startX 3537m
param *.uav[10].startY 965m
param *.uav[10].startZ 539m
param *.uav[11].startX 312m
param *.uav[11].startY 1262m
param *.uav[11].startZ 540m
param *.uav[12].startX 2185m
param *.uav[12].startY 3026m
param *.uav[12].startZ 778m
param *.uav[13].startX 3537m
param *.uav[13].startY 965m
param *.uav[13].startZ 539m
param *.uav[14].startX 312m
param *.uav[14].startY 1262m
param *.uav[14].startZ 540m
param *.uav[15].startX 2185m
param *.uav[15].startY 3026m
param *.uav[15].startZ 778m
param *.uav[16].startX 3537m
param *.uav[16].startY 965m
param *.uav[16].startZ 539m
param *.uav[17].startX 312m
param *.uav[17].startY 1262m
param *.uav[17].startZ 540m
param *.uav[18].startX 2185m
param *.uav[18].startY 3026m
param *.uav[18].startZ 778m
param *.uav[19].startX 3537m
param *.uav[19].startY 965m
param *.uav[19].startZ 539m
param *.uav[20].startX 3537m
param *.uav[20].startY 965m
param *.uav[20].startZ 539m
param *.uav[21].startX 312m
param *.uav[21].startY 1262m
param *.uav[21].startZ 540m
param *.uav[22].startX 2185m
param *.uav[22].startY 3026m
param *.uav[22].startZ 778m
param *.uav[23].startX 3537m
param *.uav[23].startY 965m
param *.uav[23].startZ 539m
param *.uav[24].startX 312m
param *.uav[24].startY 1262m
param *.uav[24].startZ 540m
param *.uav[25].startX 2185m
param *.uav[25].startY 3026m
param *.uav[25].startZ 778m
param *.uav[26].startX 3537m
param *.uav[26].startY 965m
param *.uav[26].startZ 539m
param *.uav[27].startX 312m
param *.uav[27].startY 1262m
param *.uav[27].startZ 540m
param *.uav[28].startX 2185m
param *.uav[28].startY 3026m
param *.uav[28].startZ 778m
param *.uav[29].startX 3537m
param *.uav[29].startY 965m
param *.uav[29].startZ 539m
param *.uav[30].startX 3537m
param *.uav[30].startY 965m
param *.uav[30].startZ 539m
param *.uav[31].startX 312m
param *.uav[31].startY 1262m
param *.uav[31].startZ 540m
param *.uav[32].startX 2185m
param *.uav[32].startY 3026m
param *.uav[32].startZ 778m
param *.uav[33].startX 3537m
param *.uav[33].startY 965m
param *.uav[33].startZ 539m
param *.uav[34].startX 312m
param *.uav[34].startY 1262m
param *.uav[34].startZ 540m
param *.uav[35].startX 2185m
param *.uav[35].startY 3026m
param *.uav[35].startZ 778m
param *.uav[36].startX 3537m
param *.uav[36].startY 965m
param *.uav[36].startZ 539m
param *.uav[37].startX 312m
param *.uav[37].startY 1262m
param *.uav[37].startZ 540m
param *.uav[38].startX 2185m
param *.uav[38].startY 3026m
param *.uav[38].startZ 778m
param *.uav[39].startX 3537m
param *.uav[39].startY 965m
param *.uav[39].startZ 539m
param *.uav[40].startX 3537m
param *.uav[40].startY 965m
param *.uav[40].startZ 539m
param *.uav[41].startX 312m
param *.uav[41].startY 1262m
param *.uav[41].startZ 540m
param *.uav[42].startX 2185m
param *.uav[42].startY 3026m
param *.uav[42].startZ 778m
param *.uav[43].startX 3537m
param *.uav[43].startY 965m
param *.uav[43].startZ 539m
param *.uav[44].startX 312m
param *.uav[44].startY 1262m
param *.uav[44].startZ 540m
param *.uav[45].startX 2185m
param *.uav[45].startY 3026m
param *.uav[45].startZ 778m
param *.uav[46].startX 3537m
param *.uav[46].startY 965m
param *.uav[46].startZ 539m
param *.uav[47].startX 312m
param *.uav[47].startY 1262m
param *.uav[47].startZ 540m
param *.uav[48].startX 2185m
param *.uav[48].startY 3026m
param *.uav[48].startZ 778m
param *.uav[49].startX 3537m
param *.uav[49].startY 965m
param *.uav[49].startZ 539m
param *.uav[50].startX 3537m
param *.uav[50].startY 965m
param *.uav[50].startZ 539m
param *.uav[51].startX 312m
param *.uav[51].startY 1262m
param *.uav[51].startZ 540m
param *.uav[52].startX 2185m
param *.uav[52].startY 3026m
param *.uav[52].startZ 778m
param *.uav[53].startX 3537m
param *.uav[53].startY 965m
param *.uav[53].startZ 539m
param *.uav[54].startX 312m
param *.uav[54].startY 1262m
param *.uav[54].startZ 540m
param *.uav[55].startX 2185m
param *.uav[55].startY 3026m
param *.uav[55].startZ 778m
param *.uav[56].startX 3537m
param *.uav[56].startY 965m
param *.uav[56].startZ 539m
param *.uav[57].startX 312m
param *.uav[57].startY 1262m
param *.uav[57].startZ 540m
param *.uav[58].startX 2185m
param *.uav[58].startY 3026m
param *.uav[58].startZ 778m
param *.uav[59].startX 3537m
param *.uav[59].startY 965m
param *.uav[59].startZ 539m
param *.uav[60].startX 3537m
param *.uav[60].startY 965m
param *.uav[60].startZ 539m
param *.uav[61].startX 312m
param *.uav[61].startY 1262m
param *.uav[61].startZ 540m
param *.uav[62].startX 2185m
param *.uav[62].startY 3026m
param *.uav[62].startZ 778m
param *.uav[63].startX 3537m
param *.uav[63].startY 965m
param *.uav[63].startZ 539m
param *.uav[64].startX 312m
param *.uav[64].startY 1262m
param *.uav[64].startZ 540m
param *.uav[65].startX 2185m
param *.uav[65].startY 3026m
param *.uav[65].startZ 778m
param *.uav[66].startX 3537m
param *.uav[66].startY 965m
param *.uav[66].startZ 539m
param *.uav[67].startX 312m
param *.uav[67].startY 1262m
param *.uav[67].startZ 540m
param *.uav[68].startX 2185m
param *.uav[68].startY 3026m
param *.uav[68].startZ 778m
param *.uav[69].startX 3537m
param *.uav[69].startY 965m
param *.uav[69].startZ 539m
param *.uav[70].startX 3537m
param *.uav[70].startY 965m
param *.uav[70].startZ 539m
param *.uav[71].startX 312m
param *.uav[71].startY 1262m
param *.uav[71].startZ 540m
param *.uav[72].startX 2185m
param *.uav[72].startY 3026m
param *.uav[72].startZ 778m
param *.uav[73].startX 3537m
param *.uav[73].startY 965m
param *.uav[73].startZ 539m
param *.uav[74].startX 312m
param *.uav[74].startY 1262m
param *.uav[74].startZ 540m
param *.uav[75].startX 2185m
param *.uav[75].startY 3026m
param *.uav[75].startZ 778m
param *.uav[76].startX 3537m
param *.uav[76].startY 965m
param *.uav[76].startZ 539m
param *.uav[77].startX 312m
param *.uav[77].startY 1262m
param *.uav[77].startZ 540m
param *.uav[78].startX 2185m
param *.uav[78].startY 3026m
param *.uav[78].startZ 778m
param *.uav[79].startX 3537m
param *.uav[79].startY 965m
param *.uav[79].startZ 539m
param *.uav[80].startX 3537m
param *.uav[80].startY 965m
param *.uav[80].startZ 539m
param *.uav[81].startX 312m
param *.uav[81].startY 1262m
param *.uav[81].startZ 540m
param *.uav[82].startX 2185m
param *.uav[82].startY 3026m
param *.uav[82].startZ 778m
param *.uav[83].startX 3537m
param *.uav[83].startY 965m
param *.uav[83].startZ 539m
param *.uav[84].startX 312m
param *.uav[84].startY 1262m
param *.uav[84].startZ 540m
param *.uav[85].startX 2185m
param *.uav[85].startY 3026m
param *.uav[85].startZ 778m
param *.uav[86].startX 3537m
param *.uav[86].startY 965m
param *.uav[86].startZ 539m
param *.uav[87].startX 312m
param *.uav[87].startY 1262m
param *.uav[87].startZ 540m
param *.uav[88].startX 2185m
param *.uav[88].startY 3026m
param *.uav[88].startZ 778m
param *.uav[89].startX 3537m
param *.uav[89].startY 965m
param *.uav[89].startZ 539m
param *.uav[90].startX 3537m
param *.uav[90].startY 965m
param *.uav[90].startZ 539m
param *.uav[91].startX 312m
param *.uav[91].startY 1262m
param *.uav[91].startZ 540m
param *.uav[92].startX 2185m
param *.uav[92].startY 3026m
param *.uav[92].startZ 778m
param *.uav[93].startX 3537m
param *.uav[93].startY 965m
param *.uav[93].startZ 539m
param *.uav[94].startX 312m
param *.uav[94].startY 1262m
param *.uav[94].startZ 540m
param *.uav[95].startX 2185m
param *.uav[95].startY 3026m
param *.uav[95].startZ 778m
param *.uav[96].startX 3537m
param *.uav[96].startY 965m
param *.uav[96].startZ 539m
param *.uav[97].startX 312m
param *.uav[97].startY 1262m
param *.uav[97].startZ 540m
param *.uav[98].startX 2185m
param *.uav[98].startY 3026m
param *.uav[98].startZ 778m
param *.uav[99].startX 3537m
param *.uav[99].startY 965m
param *.uav[99].startZ 539m
param *.osgEarthScene.scene "\"boston.earth\""
param *.playgroundLatitude 42.3558
param *.playgroundLongitude -71.0677
param *.playgroundWidth 400m
param *.playgroundHeight 200m
param *.channelController.connectionColor "\"#0000FF40\""
param *.channelController.showConnections false
param *.uav[*].modelURL "\"quadrocopter.small.obj.15.scale.0,0,90.rot\""
param *.uav[*].labelColor "\"#FF7C00CC\""
param *.uav[*].label2Color "\"#FF7C00EE\""
param *.uav[*].batteryCapacity 5200mAh
param *.uav[*].batteryRemaining uav[index].batteryCapacity
param *.uav[*].predictionQuantile 0.95
param *.uav[*].replacementMethod 2
param *.uav[*].weightedSumWeight 0.5
param *.cs[*].modelURL "\"chargingstation_v1.osgt.2.scale.0,0,0.rot.0,0,-15e-1.trans\""
param *.cs[*].spotsWaiting 999
param *.cs[*].spotsCharging 999
param *.cs[*].chargeEffectivenessPercentage 100
param *.cs[*].nonLinearPhaseStartPercentage 85
param *.cs[*].chargeCurrent 6.0A
param *.cs[*].prioritizeFastCharge true
param *.missionControl.replacementSearchMethod 0
param *.*.timeStep 9s

scalar OsgEarthNet.uav[0] utilizationSecMission 171459.87541504
scalar OsgEarthNet.uav[0] utilizationSecMaintenance 105077.60600175
scalar OsgEarthNet.uav[0] utilizationSecCharge 927459.12546567
scalar OsgEarthNet.uav[0] utilizationSecIdle 5603.3921175336
scalar OsgEarthNet.uav[0] utilizationEnergyMission 828822.59342194
scalar OsgEarthNet.uav[0] utilizationEnergyMaintenance 499309.56287003
scalar OsgEarthNet.uav[0] utilizationEnergyCharge 1327765.9997559
scalar OsgEarthNet.uav[0] utilizationEnergyOverdrawMission 0
scalar OsgEarthNet.uav[0] utilizationEnergyOverdrawMaintenance 0
scalar OsgEarthNet.uav[0] utilizationCountMissions 321
scalar OsgEarthNet.uav[0] utilizationCountManeuversMission 5136
scalar OsgEarthNet.uav[0] utilizationCountManeuversMaintenance 642
scalar OsgEarthNet.uav[0] utilizationCountChargeState 321
scalar OsgEarthNet.uav[0] utilizationCountOverdrawnAfterMission 0
scalar OsgEarthNet.uav[0] utilizationCountIdleState 31
scalar OsgEarthNet.uav[0] utilizationFail 0
scalar OsgEarthNet.uav[0] simulationTime 1209600
scalar OsgEarthNet.uav[1] utilizationSecMission 200766.00083228
scalar OsgEarthNet.uav[1] utilizationSecMaintenance 86627.657543014
scalar OsgEarthNet.uav[1] utilizationSecCharge 918611.63492566
scalar OsgEarthNet.uav[1] utilizationSecIdle 3594.7056990363
scalar OsgEarthNet.uav[1] utilizationEnergyMission 970815.27472687
scalar OsgEarthNet.uav[1] utilizationEnergyMaintenance 400425.36242676
scalar OsgEarthNet.uav[1] utilizationEnergyCharge 1373339.440918
scalar OsgEarthNet.uav[1] utilizationEnergyOverdrawMission 0
scalar OsgEarthNet.uav[1] utilizationEnergyOverdrawMaintenance 0
scalar OsgEarthNet.uav[1] utilizationCountMissions 310
scalar OsgEarthNet.uav[1] utilizationCountManeuversMission 6269
scalar OsgEarthNet.uav[1] utilizationCountManeuversMaintenance 620
scalar OsgEarthNet.uav[1] utilizationCountChargeState 310
scalar OsgEarthNet.uav[1] utilizationCountOverdrawnAfterMission 0
scalar OsgEarthNet.uav[1] utilizationCountIdleState 14
scalar OsgEarthNet.uav[1] utilizationFail 0
scalar OsgEarthNet.uav[1] simulationTime 1209600
scalar OsgEarthNet.uav[2] utilizationSecMission 180919.8945572
scalar OsgEarthNet.uav[2] utilizationSecMaintenance 113250.87709812
scalar OsgEarthNet.uav[2] utilizationSecCharge 914917.22734467
scalar OsgEarthNet.uav[2] utilizationSecIdle 512
scalar OsgEarthNet.uav[2] utilizationEnergyMission 882477.54302387
scalar OsgEarthNet.uav[2] utilizationEnergyMaintenance 534339.74419022
scalar OsgEarthNet.uav[2] utilizationEnergyCharge 1408446.2609863
scalar OsgEarthNet.uav[2] utilizationEnergyOverdrawMission 0
scalar OsgEarthNet.uav[2] utilizationEnergyOverdrawMaintenance 0
scalar OsgEarthNet.uav[2] utilizationCountMissions 326
scalar OsgEarthNet.uav[2] utilizationCountManeuversMission 6169
scalar OsgEarthNet.uav[2] utilizationCountManeuversMaintenance 651
scalar OsgEarthNet.uav[2] utilizationCountChargeState 326
scalar OsgEarthNet.uav[2] utilizationCountOverdrawnAfterMission 0
scalar OsgEarthNet.uav[2] utilizationCountIdleState 8
scalar OsgEarthNet.uav[2] utilizationFail 0
scalar OsgEarthNet.uav[2] simulationTime 1209600
scalar OsgEarthNet.uav[3] utilizationSecMission 175603.95975205
scalar OsgEarthNet.uav[3] utilizationSecMaintenance 110180.42668175
scalar OsgEarthNet.uav[3] utilizationSecCharge 919344.66331053
scalar OsgEarthNet.uav[3] utilizationSecIdle 4470.9492556647
scalar OsgEarthNet.uav[3] utilizationEnergyMission 858593.420681
scalar OsgEarthNet.uav[3] utilizationEnergyMaintenance 521066.69193649
scalar OsgEarthNet.uav[3] utilizationEnergyCharge 1378713.125
scalar OsgEarthNet.uav[3] utilizationEnergyOverdrawMission 0
scalar OsgEarthNet.uav[3] utilizationEnergyOverdrawMaintenance 23.451267242432
scalar OsgEarthNet.uav[3] utilizationCountMissions 321
scalar OsgEarthNet.uav[3] utilizationCountManeuversMission 5818
scalar OsgEarthNet.uav[3] utilizationCountManeuversMaintenance 642
scalar OsgEarthNet.uav[3] utilizationCountChargeState 321
scalar OsgEarthNet.uav[3] utilizationCountOverdrawnAfterMission 1
scalar OsgEarthNet.uav[3] utilizationCountIdleState 18
scalar OsgEarthNet.uav[3] utilizationFail 0
scalar OsgEarthNet.uav[3] simulationTime 1209600
scalar OsgEarthNet.uav[4] utilizationSecMission 172964.80867944
scalar OsgEarthNet.uav[4] utilizationSecMaintenance 99436.000504113
scalar OsgEarthNet.uav[4] utilizationSecCharge 934907.18981645
scalar OsgEarthNet.uav[4] utilizationSecIdle 2292
scalar OsgEarthNet.uav[4] utilizationEnergyMission 828939.88422012
scalar OsgEarthNet.uav[4] utilizationEnergyMaintenance 475046.14706421
scalar OsgEarthNet.uav[4] utilizationEnergyCharge 1302975.0317383
scalar OsgEarthNet.uav[4] utilizationEnergyOverdrawMission 0
scalar OsgEarthNet.uav[4] utilizationEnergyOverdrawMaintenance 0
scalar OsgEarthNet.uav[4] utilizationCountMissions 320
scalar OsgEarthNet.uav[4] utilizationCountManeuversMission 4927
scalar OsgEarthNet.uav[4] utilizationCountManeuversMaintenance 640
scalar OsgEarthNet.uav[4] utilizationCountChargeState 320
scalar OsgEarthNet.uav[4] utilizationCountOverdrawnAfterMission 0
scalar OsgEarthNet.uav[4] utilizationCountIdleState 40
scalar OsgEarthNet.uav[4] utilizationFail 0
scalar OsgEarthNet.uav[4] simulationTime 1209600
scalar OsgEarthNet.uav[5] utilizationSecMission 201321.79248838
scalar OsgEarthNet.uav[5] utilizationSecMaintenance 91253.2031909
scalar OsgEarthNet.uav[5] utilizationSecCharge 915743.00232072
scalar OsgEarthNet.uav[5] utilizationSecIdle 1282.001
scalar OsgEarthNet.uav[5] utilizationEnergyMission 973480.36867142
scalar OsgEarthNet.uav[5] utilizationEnergyMaintenance 422580.56210709
scalar OsgEarthNet.uav[5] utilizationEnergyCharge 1392492.4677734
scalar OsgEarthNet.uav[5] utilizationEnergyOverdrawMission 0
scalar OsgEarthNet.uav[5] utilizationEnergyOverdrawMaintenance 0
scalar OsgEarthNet.uav[5] utilizationCountMissions 313
scalar OsgEarthNet.uav[5] utilizationCountManeuversMission 6383
scalar OsgEarthNet.uav[5] utilizationCountManeuversMaintenance 626
scalar OsgEarthNet.uav[5] utilizationCountChargeState 313
scalar OsgEarthNet.uav[5] utilizationCountOverdrawnAfterMission 0
scalar OsgEarthNet.uav[5] utilizationCountIdleState 5
scalar OsgEarthNet.uav[5] utilizationFail 0
scalar OsgEarthNet.uav[5] simulationTime 1209600
scalar OsgEarthNet.uav[6] utilizationSecMission 202084.13681318
scalar OsgEarthNet.uav[6] utilizationSecMaintenance 90647.504807924
scalar OsgEarthNet.uav[6] utilizationSecCharge 914194.76671939
scalar OsgEarthNet.uav[6] utilizationSecIdle 2673.5906595051
scalar OsgEarthNet.uav[6] utilizationEnergyMission 987608.38396454
scalar OsgEarthNet.uav[6] utilizationEnergyMaintenance 419294.47016144
scalar OsgEarthNet.uav[6] utilizationEnergyCharge 1406046.326416
scalar OsgEarthNet.uav[6] utilizationEnergyOverdrawMission 0
scalar OsgEarthNet.uav[6] utilizationEnergyOverdrawMaintenance 0
scalar OsgEarthNet.uav[6] utilizationCountMissions 313
scalar OsgEarthNet.uav[6] utilizationCountManeuversMission 6834
scalar OsgEarthNet.uav[6] utilizationCountManeuversMaintenance 626
scalar OsgEarthNet.uav[6] utilizationCountChargeState 313
scalar OsgEarthNet.uav[6] utilizationCountOverdrawnAfterMission 0
scalar OsgEarthNet.uav[6] utilizationCountIdleState 4
scalar OsgEarthNet.uav[6] utilizationFail 0
scalar OsgEarthNet.uav[6] simulationTime 1209600
scalar OsgEarthNet.uav[7] utilizationSecMission 187622.06861777
scalar OsgEarthNet.uav[7] utilizationSecMaintenance 95405.927382229
scalar OsgEarthNet.uav[7] utilizationSecCharge 923540
scalar OsgEarthNet.uav[7] utilizationSecIdle 3032.003
scalar OsgEarthNet.uav[7] utilizationEnergyMission 910275.53356734
scalar OsgEarthNet.uav[7] utilizationEnergyMaintenance 449294.71886063
scalar OsgEarthNet.uav[7] utilizationEnergyCharge 1361290.9521484
scalar OsgEarthNet.uav[7] utilizationEnergyOverdrawMission 0
scalar OsgEarthNet.uav[7] utilizationEnergyOverdrawMaintenance 0
scalar OsgEarthNet.uav[7] utilizationCountMissions 314
scalar OsgEarthNet.uav[7] utilizationCountManeuversMission 6086
scalar OsgEarthNet.uav[7] utilizationCountManeuversMaintenance 629
scalar OsgEarthNet.uav[7] utilizationCountChargeState 314
scalar OsgEarthNet.uav[7] utilizationCountOverdrawnAfterMission 0
scalar OsgEarthNet.uav[7] utilizationCountIdleState 18
scalar OsgEarthNet.uav[7] utilizationFail 0
scalar OsgEarthNet.uav[7] simulationTime 1209600
scalar OsgEarthNet.uav[8] utilizationSecMission 181459.44212483
scalar OsgEarthNet.uav[8] utilizationSecMaintenance 100680.24255915
scalar OsgEarthNet.uav[8] utilizationSecCharge 924668.31231602
scalar OsgEarthNet.uav[8] utilizationSecIdle 2792.002
scalar OsgEarthNet.uav[8] utilizationEnergyMission 881425.02429962
scalar OsgEarthNet.uav[8] utilizationEnergyMaintenance 471563.7235527
scalar OsgEarthNet.uav[8] utilizationEnergyCharge 1353948.765625
scalar OsgEarthNet.uav[8] utilizationEnergyOverdrawMission 0
scalar OsgEarthNet.uav[8] utilizationEnergyOverdrawMaintenance 0
scalar OsgEarthNet.uav[8] utilizationCountMissions 318
scalar OsgEarthNet.uav[8] utilizationCountManeuversMission 5713
scalar OsgEarthNet.uav[8] utilizationCountManeuversMaintenance 636
scalar OsgEarthNet.uav[8] utilizationCountChargeState 318
scalar OsgEarthNet.uav[8] utilizationCountOverdrawnAfterMission 0
scalar OsgEarthNet.uav[8] utilizationCountIdleState 20
scalar OsgEarthNet.uav[8] utilizationFail 0
scalar OsgEarthNet.uav[8] simulationTime 1209600
scalar OsgEarthNet.uav[9] utilizationSecMission 173205.78686156
scalar OsgEarthNet.uav[9] utilizationSecMaintenance 102615.79896207
scalar OsgEarthNet.uav[9] utilizationSecCharge 927916.40717636
scalar OsgEarthNet.uav[9] utilizationSecIdle 5862.006
scalar OsgEarthNet.uav[9] utilizationEnergyMission 836502.81593704
scalar OsgEarthNet.uav[9] utilizationEnergyMaintenance 487916.01044083
scalar OsgEarthNet.uav[9] utilizationEnergyCharge 1318930.22229
scalar OsgEarthNet.uav[9] utilizationEnergyOverdrawMission 0
scalar OsgEarthNet.uav[9] utilizationEnergyOverdrawMaintenance 0
scalar OsgEarthNet.uav[9] utilizationCountMissions 321
scalar OsgEarthNet.uav[9] utilizationCountManeuversMission 5070
scalar OsgEarthNet.uav[9] utilizationCountManeuversMaintenance 642
scalar OsgEarthNet.uav[9] utilizationCountChargeState 321
scalar OsgEarthNet.uav[9] utilizationCountOverdrawnAfterMission 0
scalar OsgEarthNet.uav[9] utilizationCountIdleState 36
scalar OsgEarthNet.uav[9] utilizationFail 0
scalar OsgEarthNet.uav[9] simulationTime 1209600
scalar OsgEarthNet.uav[10] utilizationSecMission 172000.05914611
scalar OsgEarthNet.uav[10] utilizationSecMaintenance 97007.939853894
scalar OsgEarthNet.uav[10] utilizationSecCharge 936860
scalar OsgEarthNet.uav[10] utilizationSecIdle 3732
scalar OsgEarthNet.uav[10] utilizationEnergyMission 829417.70585304
scalar OsgEarthNet.uav[10] utilizationEnergyMaintenance 461063.26631546
scalar OsgEarthNet.uav[10] utilizationEnergyCharge 1288984.7089844
scalar OsgEarthNet.uav[10] utilizationEnergyOverdrawMission 0
scalar OsgEarthNet.uav[10] utilizationEnergyOverdrawMaintenance 0
scalar OsgEarthNet.uav[10] utilizationCountMissions 318
scalar OsgEarthNet.uav[10] utilizationCountManeuversMission 4804
scalar OsgEarthNet.uav[10] utilizationCountManeuversMaintenance 636
scalar OsgEarthNet.uav[10] utilizationCountChargeState 318
scalar OsgEarthNet.uav[10] utilizationCountOverdrawnAfterMission 0
scalar OsgEarthNet.uav[10] utilizationCountIdleState 40
scalar OsgEarthNet.uav[10] utilizationFail 0
scalar OsgEarthNet.uav[10] simulationTime 1209600
scalar OsgEarthNet.uav[11] utilizationSecMission 192254.74345994
scalar OsgEarthNet.uav[11] utilizationSecMaintenance 91480.908881539
scalar OsgEarthNet.uav[11] utilizationSecCharge 921716.34680799
scalar OsgEarthNet.uav[11] utilizationSecIdle 4147.9998505245
scalar OsgEarthNet.uav[11] utilizationEnergyMission 933873.90950394
scalar OsgEarthNet.uav[11] utilizationEnergyMaintenance 428520.16954422
scalar OsgEarthNet.uav[11] utilizationEnergyCharge 1356576.2788086
scalar OsgEarthNet.uav[11] utilizationEnergyOverdrawMission 0
scalar OsgEarthNet.uav[11] utilizationEnergyOverdrawMaintenance 0
scalar OsgEarthNet.uav[11] utilizationCountMissions 313
scalar OsgEarthNet.uav[11] utilizationCountManeuversMission 5935
scalar OsgEarthNet.uav[11] utilizationCountManeuversMaintenance 626
scalar OsgEarthNet.uav[11] utilizationCountChargeState 313
scalar OsgEarthNet.uav[11] utilizationCountOverdrawnAfterMission 0
scalar OsgEarthNet.uav[11] utilizationCountIdleState 20
scalar OsgEarthNet.uav[11] utilizationFail 0
scalar OsgEarthNet.uav[11] simulationTime 1209600
scalar OsgEarthNet.uav[12] utilizationSecMission 202082.64536781
scalar OsgEarthNet.uav[12] utilizationSecMaintenance 91166.119658064
scalar OsgEarthNet.uav[12] utilizationSecCharge 914821.80862683
scalar OsgEarthNet.uav[12] utilizationSecIdle 1529.4253472904
scalar OsgEarthNet.uav[12] utilizationEnergyMission 991216.36762619
scalar OsgEarthNet.uav[12] utilizationEnergyMaintenance 419356.0202446
scalar OsgEarthNet.uav[12] utilizationEnergyCharge 1403712.9614258
scalar OsgEarthNet.uav[12] utilizationEnergyOverdrawMission 0
scalar OsgEarthNet.uav[12] utilizationEnergyOverdrawMaintenance 0
scalar OsgEarthNet.uav[12] utilizationCountMissions 313
scalar OsgEarthNet.uav[12] utilizationCountManeuversMission 6826
scalar OsgEarthNet.uav[12] utilizationCountManeuversMaintenance 626
scalar OsgEarthNet.uav[12] utilizationCountChargeState 313
scalar OsgEarthNet.uav[12] utilizationCountOverdrawnAfterMission 0
scalar OsgEarthNet.uav[12] utilizationCountIdleState 4
scalar OsgEarthNet.uav[12] utilizationFail 0
scalar OsgEarthNet.uav[12] simulationTime 1209600
scalar OsgEarthNet.uav[13] utilizationSecMission 184271.25093928
scalar OsgEarthNet.uav[13] utilizationSecMaintenance 96520.796032282
scalar OsgEarthNet.uav[13] utilizationSecCharge 925135.94702843
scalar OsgEarthNet.uav[13] utilizationSecIdle 3672.005
scalar OsgEarthNet.uav[13] utilizationEnergyMission 893417.0912323
scalar OsgEarthNet.uav[13] utilizationEnergyMaintenance 451530.0110054
scalar OsgEarthNet.uav[13] utilizationEnergyCharge 1346291.2070312
scalar OsgEarthNet.uav[13] utilizationEnergyOverdrawMission 0
scalar OsgEarthNet.uav[13] utilizationEnergyOverdrawMaintenance 0
scalar OsgEarthNet.uav[13] utilizationCountMissions 315
scalar OsgEarthNet.uav[13] utilizationCountManeuversMission 5974
scalar OsgEarthNet.uav[13] utilizationCountManeuversMaintenance 630
scalar OsgEarthNet.uav[13] utilizationCountChargeState 315
scalar OsgEarthNet.uav[13] utilizationCountOverdrawnAfterMission 0
scalar OsgEarthNet.uav[13] utilizationCountIdleState 19
scalar OsgEarthNet.uav[13] utilizationFail 0
scalar OsgEarthNet.uav[13] simulationTime 1209600
scalar OsgEarthNet.uav[14] utilizationSecMission 191085.9420087
scalar OsgEarthNet.uav[14] utilizationSecMaintenance 91076.223703537
scalar OsgEarthNet.uav[14] utilizationSecCharge 924299.47968489
scalar OsgEarthNet.uav[14] utilizationSecIdle 3138.3536028792
scalar OsgEarthNet.uav[14] utilizationEnergyMission 919706.42370605
scalar OsgEarthNet.uav[14] utilizationEnergyMaintenance 425034.45470047
scalar OsgEarthNet.uav[14] utilizationEnergyCharge 1346841.8598633
scalar OsgEarthNet.uav[14] utilizationEnergyOverdrawMission 0
scalar OsgEarthNet.uav[14] utilizationEnergyOverdrawMaintenance 0
scalar OsgEarthNet.uav[14] utilizationCountMissions 312
scalar OsgEarthNet.uav[14] utilizationCountManeuversMission 5703
scalar OsgEarthNet.uav[14] utilizationCountManeuversMaintenance 624
scalar OsgEarthNet.uav[14] utilizationCountChargeState 312
scalar OsgEarthNet.uav[14] utilizationCountOverdrawnAfterMission 0
scalar OsgEarthNet.uav[14] utilizationCountIdleState 19
scalar OsgEarthNet.uav[14] utilizationFail 0
scalar OsgEarthNet.uav[14] simulationTime 1209600
scalar OsgEarthNet.uav[15] utilizationSecMission 196098.32361789
scalar OsgEarthNet.uav[15] utilizationSecMaintenance 98602.660159977
scalar OsgEarthNet.uav[15] utilizationSecCharge 912627.56226341
scalar OsgEarthNet.uav[15] utilizationSecIdle 2271.4529587171
scalar OsgEarthNet.uav[15] utilizationEnergyMission 954997.82238007
scalar OsgEarthNet.uav[15] utilizationEnergyMaintenance 460395.18518066
scalar OsgEarthNet.uav[15] utilizationEnergyCharge 1402471.3630981
scalar OsgEarthNet.uav[15] utilizationEnergyOverdrawMission 0
scalar OsgEarthNet.uav[15] utilizationEnergyOverdrawMaintenance 0
scalar OsgEarthNet.uav[15] utilizationCountMissions 317
scalar OsgEarthNet.uav[15] utilizationCountManeuversMission 6145
scalar OsgEarthNet.uav[15] utilizationCountManeuversMaintenance 634
scalar OsgEarthNet.uav[15] utilizationCountChargeState 317
scalar OsgEarthNet.uav[15] utilizationCountOverdrawnAfterMission 0
scalar OsgEarthNet.uav[15] utilizationCountIdleState 10
scalar OsgEarthNet.uav[15] utilizationFail 0
scalar OsgEarthNet.uav[15] simulationTime 1209600
scalar OsgEarthNet.uav[16] utilizationSecMission 208963.87433339
scalar OsgEarthNet.uav[16] utilizationSecMaintenance 83087.778483349
scalar OsgEarthNet.uav[16] utilizationSecCharge 913957.3959276
scalar OsgEarthNet.uav[16] utilizationSecIdle 3590.9502556647
scalar OsgEarthNet.uav[16] utilizationEnergyMission 1007708.5995636
scalar OsgEarthNet.uav[16] utilizationEnergyMaintenance 385600.94319534
scalar OsgEarthNet.uav[16] utilizationEnergyCharge 1392086.0644531
scalar OsgEarthNet.uav[16] utilizationEnergyOverdrawMission 0
scalar OsgEarthNet.uav[16] utilizationEnergyOverdrawMaintenance 0
scalar OsgEarthNet.uav[16] utilizationCountMissions 307
scalar OsgEarthNet.uav[16] utilizationCountManeuversMission 6282
scalar OsgEarthNet.uav[16] utilizationCountManeuversMaintenance 614
scalar OsgEarthNet.uav[16] utilizationCountChargeState 307
scalar OsgEarthNet.uav[16] utilizationCountOverdrawnAfterMission 0
scalar OsgEarthNet.uav[16] utilizationCountIdleState 3
scalar OsgEarthNet.uav[16] utilizationFail 0
scalar OsgEarthNet.uav[16] simulationTime 1209600
scalar OsgEarthNet.uav[17] utilizationSecMission 195969.81143497
scalar OsgEarthNet.uav[17] utilizationSecMaintenance 98274.933469523
scalar OsgEarthNet.uav[17] utilizationSecCharge 913953.25309551
scalar OsgEarthNet.uav[17] utilizationSecIdle 1402.001
scalar OsgEarthNet.uav[17] utilizationEnergyMission 957399.82963943
scalar OsgEarthNet.uav[17] utilizationEnergyMaintenance 458609.377285
scalar OsgEarthNet.uav[17] utilizationEnergyCharge 1403812.3395386
scalar OsgEarthNet.uav[17] utilizationEnergyOverdrawMission 0
scalar OsgEarthNet.uav[17] utilizationEnergyOverdrawMaintenance 0
scalar OsgEarthNet.uav[17] utilizationCountMissions 319
scalar OsgEarthNet.uav[17] utilizationCountManeuversMission 6492
scalar OsgEarthNet.uav[17] utilizationCountManeuversMaintenance 638
scalar OsgEarthNet.uav[17] utilizationCountChargeState 319
scalar OsgEarthNet.uav[17] utilizationCountOverdrawnAfterMission 0
scalar OsgEarthNet.uav[17] utilizationCountIdleState 9
scalar OsgEarthNet.uav[17] utilizationFail 0
scalar OsgEarthNet.uav[17] simulationTime 1209600
scalar OsgEarthNet.uav[18] utilizationSecMission 200776.72993409
scalar OsgEarthNet.uav[18] utilizationSecMaintenance 92625.818801882
scalar OsgEarthNet.uav[18] utilizationSecCharge 914770
scalar OsgEarthNet.uav[18] utilizationSecIdle 1427.4502640309
scalar OsgEarthNet.uav[18] utilizationEnergyMission 980023.47588171
scalar OsgEarthNet.uav[18] utilizationEnergyMaintenance 432533.65396118
scalar OsgEarthNet.uav[18] utilizationEnergyCharge 1404794.9350586
scalar OsgEarthNet.uav[18] utilizationEnergyOverdrawMission 0
scalar OsgEarthNet.uav[18] utilizationEnergyOverdrawMaintenance 0
scalar OsgEarthNet.uav[18] utilizationCountMissions 314
scalar OsgEarthNet.uav[18] utilizationCountManeuversMission 6478
scalar OsgEarthNet.uav[18] utilizationCountManeuversMaintenance 629
scalar OsgEarthNet.uav[18] utilizationCountChargeState 314
scalar OsgEarthNet.uav[18] utilizationCountOverdrawnAfterMission 0
scalar OsgEarthNet.uav[18] utilizationCountIdleState 8
scalar OsgEarthNet.uav[18] utilizationFail 0
scalar OsgEarthNet.uav[18] simulationTime 1209600
scalar OsgEarthNet.uav[19] utilizationSecMission 182414.83892332
scalar OsgEarthNet.uav[19] utilizationSecMaintenance 103603.15307668
scalar OsgEarthNet.uav[19] utilizationSecCharge 917830
scalar OsgEarthNet.uav[19] utilizationSecIdle 5752.007
scalar OsgEarthNet.uav[19] utilizationEnergyMission 885073.9975091
scalar OsgEarthNet.uav[19] utilizationEnergyMaintenance 490422.95986557
scalar OsgEarthNet.uav[19] utilizationEnergyCharge 1371238.2817383
scalar OsgEarthNet.uav[19] utilizationEnergyOverdrawMission 0
scalar OsgEarthNet.uav[19] utilizationEnergyOverdrawMaintenance 0
scalar OsgEarthNet.uav[19] utilizationCountMissions 318
scalar OsgEarthNet.uav[19] utilizationCountManeuversMission 5748
scalar OsgEarthNet.uav[19] utilizationCountManeuversMaintenance 637
scalar OsgEarthNet.uav[19] utilizationCountChargeState 318
scalar OsgEarthNet.uav[19] utilizationCountOverdrawnAfterMission 0
scalar OsgEarthNet.uav[19] utilizationCountIdleState 21
scalar OsgEarthNet.uav[19] utilizationFail 0
scalar OsgEarthNet.uav[19] simulationTime 1209600
scalar OsgEarthNet.uav[20] utilizationSecMission 169994.91902093
scalar OsgEarthNet.uav[20] utilizationSecMaintenance 102193.07897907
scalar OsgEarthNet.uav[20] utilizationSecCharge 935220
scalar OsgEarthNet.uav[20] utilizationSecIdle 2192.001
scalar OsgEarthNet.uav[20] utilizationEnergyMission 824965.83080292
scalar OsgEarthNet.uav[20] utilizationEnergyMaintenance 484193.13789577
scalar OsgEarthNet.uav[20] utilizationEnergyCharge 1309546.1550293
scalar OsgEarthNet.uav[20] utilizationEnergyOverdrawMission 0
scalar OsgEarthNet.uav[20] utilizationEnergyOverdrawMaintenance 0
scalar OsgEarthNet.uav[20] utilizationCountMissions 318
scalar OsgEarthNet.uav[20] utilizationCountManeuversMission 5198
scalar OsgEarthNet.uav[20] utilizationCountManeuversMaintenance 636
scalar OsgEarthNet.uav[20] utilizationCountChargeState 317
scalar OsgEarthNet.uav[20] utilizationCountOverdrawnAfterMission 0
scalar OsgEarthNet.uav[20] utilizationCountIdleState 25
scalar OsgEarthNet.uav[20] utilizationFail 0
scalar OsgEarthNet.uav[20] simulationTime 1209600
scalar OsgEarthNet.uav[21] utilizationSecMission 180634.24700986
scalar OsgEarthNet.uav[21] utilizationSecMaintenance 99868.370140305
scalar OsgEarthNet.uav[21] utilizationSecCharge 924591.93876115
scalar OsgEarthNet.uav[21] utilizationSecIdle 4505.443088691
scalar OsgEarthNet.uav[21] utilizationEnergyMission 878697.14390182
scalar OsgEarthNet.uav[21] utilizationEnergyMaintenance 466332.99908829
scalar OsgEarthNet.uav[21] utilizationEnergyCharge 1345736.654541
scalar OsgEarthNet.uav[21] utilizationEnergyOverdrawMission 0
scalar OsgEarthNet.uav[21] utilizationEnergyOverdrawMaintenance 0
scalar OsgEarthNet.uav[21] utilizationCountMissions 317
scalar OsgEarthNet.uav[21] utilizationCountManeuversMission 5761
scalar OsgEarthNet.uav[21] utilizationCountManeuversMaintenance 634
scalar OsgEarthNet.uav[21] utilizationCountChargeState 317
scalar OsgEarthNet.uav[21] utilizationCountOverdrawnAfterMission 0
scalar OsgEarthNet.uav[21] utilizationCountIdleState 20
scalar OsgEarthNet.uav[21] utilizationFail 0
scalar OsgEarthNet.uav[21] simulationTime 1209600
scalar OsgEarthNet.uav[22] utilizationSecMission 200735.4626422
scalar OsgEarthNet.uav[22] utilizationSecMaintenance 91449.168619017
scalar OsgEarthNet.uav[22] utilizationSecCharge 914813.36473878
scalar OsgEarthNet.uav[22] utilizationSecIdle 2602.003
scalar OsgEarthNet.uav[22] utilizationEnergyMission 971791.16142273
scalar OsgEarthNet.uav[22] utilizationEnergyMaintenance 423529.5954628
scalar OsgEarthNet.uav[22] utilizationEnergyCharge 1390861.8054199
scalar OsgEarthNet.uav[22] utilizationEnergyOverdrawMission 0
scalar OsgEarthNet.uav[22] utilizationEnergyOverdrawMaintenance 0
scalar OsgEarthNet.uav[22] utilizationCountMissions 311
scalar OsgEarthNet.uav[22] utilizationCountManeuversMission 6209
scalar OsgEarthNet.uav[22] utilizationCountManeuversMaintenance 622
scalar OsgEarthNet.uav[22] utilizationCountChargeState 311
scalar OsgEarthNet.uav[22] utilizationCountOverdrawnAfterMission 0
scalar OsgEarthNet.uav[22] utilizationCountIdleState 10
scalar OsgEarthNet.uav[22] utilizationFail 0
scalar OsgEarthNet.uav[22] simulationTime 1209600
scalar OsgEarthNet.uav[23] utilizationSecMission 180069.0493951
scalar OsgEarthNet.uav[23] utilizationSecMaintenance 95364.38104674
scalar OsgEarthNet.uav[23] utilizationSecCharge 931264.56655816
scalar OsgEarthNet.uav[23] utilizationSecIdle 2902.002
scalar OsgEarthNet.uav[23] utilizationEnergyMission 868275.59008408
scalar OsgEarthNet.uav[23] utilizationEnergyMaintenance 451014.5345459
scalar OsgEarthNet.uav[23] utilizationEnergyCharge 1318344.7597656
scalar OsgEarthNet.uav[23] utilizationEnergyOverdrawMission 0
scalar OsgEarthNet.uav[23] utilizationEnergyOverdrawMaintenance 0
scalar OsgEarthNet.uav[23] utilizationCountMissions 313
scalar OsgEarthNet.uav[23] utilizationCountManeuversMission 5363
scalar OsgEarthNet.uav[23] utilizationCountManeuversMaintenance 626
scalar OsgEarthNet.uav[23] utilizationCountChargeState 313
scalar OsgEarthNet.uav[23] utilizationCountOverdrawnAfterMission 0
scalar OsgEarthNet.uav[23] utilizationCountIdleState 28
scalar OsgEarthNet.uav[23] utilizationFail 0
scalar OsgEarthNet.uav[23] simulationTime 1209600
scalar OsgEarthNet.uav[24] utilizationSecMission 167202.00117989
scalar OsgEarthNet.uav[24] utilizationSecMaintenance 102095.99282011
scalar OsgEarthNet.uav[24] utilizationSecCharge 935520
scalar OsgEarthNet.uav[24] utilizationSecIdle 4782.005
scalar OsgEarthNet.uav[24] utilizationEnergyMission 804992.55591957
scalar OsgEarthNet.uav[24] utilizationEnergyMaintenance 484898.10598755
scalar OsgEarthNet.uav[24] utilizationEnergyCharge 1289051.6608887
scalar OsgEarthNet.uav[24] utilizationEnergyOverdrawMission 0
scalar OsgEarthNet.uav[24] utilizationEnergyOverdrawMaintenance 0
scalar OsgEarthNet.uav[24] utilizationCountMissions 319
scalar OsgEarthNet.uav[24] utilizationCountManeuversMission 5159
scalar OsgEarthNet.uav[24] utilizationCountManeuversMaintenance 639
scalar OsgEarthNet.uav[24] utilizationCountChargeState 319
scalar OsgEarthNet.uav[24] utilizationCountOverdrawnAfterMission 0
scalar OsgEarthNet.uav[24] utilizationCountIdleState 32
scalar OsgEarthNet.uav[24] utilizationFail 0
scalar OsgEarthNet.uav[24] simulationTime 1209600
scalar OsgEarthNet.uav[25] utilizationSecMission 197041.27980047
scalar OsgEarthNet.uav[25] utilizationSecMaintenance 92706.276266688
scalar OsgEarthNet.uav[25] utilizationSecCharge 917800.76988125
scalar OsgEarthNet.uav[25] utilizationSecIdle 2051.6730515863
scalar OsgEarthNet.uav[25] utilizationEnergyMission 961042.29917908
scalar OsgEarthNet.uav[25] utilizationEnergyMaintenance 429900.72544098
scalar OsgEarthNet.uav[25] utilizationEnergyCharge 1385996.3288574
scalar OsgEarthNet.uav[25] utilizationEnergyOverdrawMission 0
scalar OsgEarthNet.uav[25] utilizationEnergyOverdrawMaintenance 0
scalar OsgEarthNet.uav[25] utilizationCountMissions 313
scalar OsgEarthNet.uav[25] utilizationCountManeuversMission 6254
scalar OsgEarthNet.uav[25] utilizationCountManeuversMaintenance 626
scalar OsgEarthNet.uav[25] utilizationCountChargeState 313
scalar OsgEarthNet.uav[25] utilizationCountOverdrawnAfterMission 0
scalar OsgEarthNet.uav[25] utilizationCountIdleState 5
scalar OsgEarthNet.uav[25] utilizationFail 0
scalar OsgEarthNet.uav[25] simulationTime 1209600
scalar OsgEarthNet.uav[26] utilizationSecMission 205193.14299219
scalar OsgEarthNet.uav[26] utilizationSecMaintenance 86039.870559489
scalar OsgEarthNet.uav[26] utilizationSecCharge 915644.21948298
scalar OsgEarthNet.uav[26] utilizationSecIdle 2722.765965339
scalar OsgEarthNet.uav[26] utilizationEnergyMission 992190.58213806
scalar OsgEarthNet.uav[26] utilizationEnergyMaintenance 399630.27466202
scalar OsgEarthNet.uav[26] utilizationEnergyCharge 1390239.8695068
scalar OsgEarthNet.uav[26] utilizationEnergyOverdrawMission 0
scalar OsgEarthNet.uav[26] utilizationEnergyOverdrawMaintenance 0
scalar OsgEarthNet.uav[26] utilizationCountMissions 310
scalar OsgEarthNet.uav[26] utilizationCountManeuversMission 6293
scalar OsgEarthNet.uav[26] utilizationCountManeuversMaintenance 620
scalar OsgEarthNet.uav[26] utilizationCountChargeState 310
scalar OsgEarthNet.uav[26] utilizationCountOverdrawnAfterMission 0
scalar OsgEarthNet.uav[26] utilizationCountIdleState 6
scalar OsgEarthNet.uav[26] utilizationFail 0
scalar OsgEarthNet.uav[26] simulationTime 1209600
scalar OsgEarthNet.uav[27] utilizationSecMission 176977.33502544
scalar OsgEarthNet.uav[27] utilizationSecMaintenance 98940.577295772
scalar OsgEarthNet.uav[27] utilizationSecCharge 929734.77059696
scalar OsgEarthNet.uav[27] utilizationSecIdle 3947.3160818306
scalar OsgEarthNet.uav[27] utilizationEnergyMission 859559.61929321
scalar OsgEarthNet.uav[27] utilizationEnergyMaintenance 465249.76877975
scalar OsgEarthNet.uav[27] utilizationEnergyCharge 1324749.6035156
scalar OsgEarthNet.uav[27] utilizationEnergyOverdrawMission 0
scalar OsgEarthNet.uav[27] utilizationEnergyOverdrawMaintenance 0
scalar OsgEarthNet.uav[27] utilizationCountMissions 315
scalar OsgEarthNet.uav[27] utilizationCountManeuversMission 5609
scalar OsgEarthNet.uav[27] utilizationCountManeuversMaintenance 630
scalar OsgEarthNet.uav[27] utilizationCountChargeState 315
scalar OsgEarthNet.uav[27] utilizationCountOverdrawnAfterMission 0
scalar OsgEarthNet.uav[27] utilizationCountIdleState 23
scalar OsgEarthNet.uav[27] utilizationFail 0
scalar OsgEarthNet.uav[27] simulationTime 1209600
scalar OsgEarthNet.uav[28] utilizationSecMission 189578.54340918
scalar OsgEarthNet.uav[28] utilizationSecMaintenance 98546.039253101
scalar OsgEarthNet.uav[28] utilizationSecCharge 919726.24122731
scalar OsgEarthNet.uav[28] utilizationSecIdle 1749.1751104107
scalar OsgEarthNet.uav[28] utilizationEnergyMission 917979.76198196
scalar OsgEarthNet.uav[28] utilizationEnergyMaintenance 461508.2452507
scalar OsgEarthNet.uav[28] utilizationEnergyCharge 1383082.489502
scalar OsgEarthNet.uav[28] utilizationEnergyOverdrawMission 0
scalar OsgEarthNet.uav[28] utilizationEnergyOverdrawMaintenance 0
scalar OsgEarthNet.uav[28] utilizationCountMissions 316
scalar OsgEarthNet.uav[28] utilizationCountManeuversMission 6133
scalar OsgEarthNet.uav[28] utilizationCountManeuversMaintenance 632
scalar OsgEarthNet.uav[28] utilizationCountChargeState 316
scalar OsgEarthNet.uav[28] utilizationCountOverdrawnAfterMission 0
scalar OsgEarthNet.uav[28] utilizationCountIdleState 14
scalar OsgEarthNet.uav[28] utilizationFail 0
scalar OsgEarthNet.uav[28] simulationTime 1209600
scalar OsgEarthNet.uav[29] utilizationSecMission 172446.87916565
scalar OsgEarthNet.uav[29] utilizationSecMaintenance 104283.46862362
scalar OsgEarthNet.uav[29] utilizationSecCharge 927577.86510821
scalar OsgEarthNet.uav[29] utilizationSecIdle 5291.7861025228
scalar OsgEarthNet.uav[29] utilizationEnergyMission 832114.41292191
scalar OsgEarthNet.uav[29] utilizationEnergyMaintenance 494448.28794479
scalar OsgEarthNet.uav[29] utilizationEnergyCharge 1322127.5441284
scalar OsgEarthNet.uav[29] utilizationEnergyOverdrawMission 0
scalar OsgEarthNet.uav[29] utilizationEnergyOverdrawMaintenance 0
scalar OsgEarthNet.uav[29] utilizationCountMissions 320
scalar OsgEarthNet.uav[29] utilizationCountManeuversMission 5211
scalar OsgEarthNet.uav[29] utilizationCountManeuversMaintenance 640
scalar OsgEarthNet.uav[29] utilizationCountChargeState 320
scalar OsgEarthNet.uav[29] utilizationCountOverdrawnAfterMission 0
scalar OsgEarthNet.uav[29] utilizationCountIdleState 27
scalar OsgEarthNet.uav[29] utilizationFail 0
scalar OsgEarthNet.uav[29] simulationTime 1209600
scalar OsgEarthNet.uav[30] utilizationSecMission 177353.39090715
scalar OsgEarthNet.uav[30] utilizationSecMaintenance 115538.83197949
scalar OsgEarthNet.uav[30] utilizationSecCharge 914195.77311337
scalar OsgEarthNet.uav[30] utilizationSecIdle 2512.003
scalar OsgEarthNet.uav[30] utilizationEnergyMission 857957.16386795
scalar OsgEarthNet.uav[30] utilizationEnergyMaintenance 548263.01656342
scalar OsgEarthNet.uav[30] utilizationEnergyCharge 1407287.244751
scalar OsgEarthNet.uav[30] utilizationEnergyOverdrawMission 0
scalar OsgEarthNet.uav[30] utilizationEnergyOverdrawMaintenance 0
scalar OsgEarthNet.uav[30] utilizationCountMissions 326
scalar OsgEarthNet.uav[30] utilizationCountManeuversMission 5671
scalar OsgEarthNet.uav[30] utilizationCountManeuversMaintenance 652
scalar OsgEarthNet.uav[30] utilizationCountChargeState 326
scalar OsgEarthNet.uav[30] utilizationCountOverdrawnAfterMission 0
scalar OsgEarthNet.uav[30] utilizationCountIdleState 11
scalar OsgEarthNet.uav[30] utilizationFail 0
scalar OsgEarthNet.uav[30] simulationTime 1209600
scalar OsgEarthNet.uav[31] utilizationSecMission 175522.68691284
scalar OsgEarthNet.uav[31] utilizationSecMaintenance 95798.038756097
scalar OsgEarthNet.uav[31] utilizationSecCharge 932657.26933106
scalar OsgEarthNet.uav[31] utilizationSecIdle 5622.004
scalar OsgEarthNet.uav[31] utilizationEnergyMission 835982.34604645
scalar OsgEarthNet.uav[31] utilizationEnergyMaintenance 455055.37038803
scalar OsgEarthNet.uav[31] utilizationEnergyCharge 1291788.6621094
scalar OsgEarthNet.uav[31] utilizationEnergyOverdrawMission 0
scalar OsgEarthNet.uav[31] utilizationEnergyOverdrawMaintenance 0
scalar OsgEarthNet.uav[31] utilizationCountMissions 317
scalar OsgEarthNet.uav[31] utilizationCountManeuversMission 4751
scalar OsgEarthNet.uav[31] utilizationCountManeuversMaintenance 634
scalar OsgEarthNet.uav[31] utilizationCountChargeState 317
scalar OsgEarthNet.uav[31] utilizationCountOverdrawnAfterMission 0
scalar OsgEarthNet.uav[31] utilizationCountIdleState 41
scalar OsgEarthNet.uav[31] utilizationFail 0
scalar OsgEarthNet.uav[31] simulationTime 1209600
scalar OsgEarthNet.uav[32] utilizationSecMission 190216.78980279
scalar OsgEarthNet.uav[32] utilizationSecMaintenance 103145.71747171
scalar OsgEarthNet.uav[32] utilizationSecCharge 914728.27211158
scalar OsgEarthNet.uav[32] utilizationSecIdle 1509.2196139157
scalar OsgEarthNet.uav[32] utilizationEnergyMission 924987.20050812
scalar OsgEarthNet.uav[32] utilizationEnergyMaintenance 486272.6295929
scalar OsgEarthNet.uav[32] utilizationEnergyCharge 1406400.9491272
scalar OsgEarthNet.uav[32] utilizationEnergyOverdrawMission 0
scalar OsgEarthNet.uav[32] utilizationEnergyOverdrawMaintenance 0
scalar OsgEarthNet.uav[32] utilizationCountMissions 319
scalar OsgEarthNet.uav[32] utilizationCountManeuversMission 6207
scalar OsgEarthNet.uav[32] utilizationCountManeuversMaintenance 638
scalar OsgEarthNet.uav[32] utilizationCountChargeState 319
scalar OsgEarthNet.uav[32] utilizationCountOverdrawnAfterMission 0
scalar OsgEarthNet.uav[32] utilizationCountIdleState 8
scalar OsgEarthNet.uav[32] utilizationFail 0
scalar OsgEarthNet.uav[32] simulationTime 1209600
scalar OsgEarthNet.uav[33] utilizationSecMission 173762.36953966
scalar OsgEarthNet.uav[33] utilizationSecMaintenance 99949.864952604
scalar OsgEarthNet.uav[33] utilizationSecCharge 933905.76450773
scalar OsgEarthNet.uav[33] utilizationSecIdle 1982
scalar OsgEarthNet.uav[33] utilizationEnergyMission 836830.1914978
scalar OsgEarthNet.uav[33] utilizationEnergyMaintenance 474122.31241989
scalar OsgEarthNet.uav[33] utilizationEnergyCharge 1306115.2836914
scalar OsgEarthNet.uav[33] utilizationEnergyOverdrawMission 0
scalar OsgEarthNet.uav[33] utilizationEnergyOverdrawMaintenance 0
scalar OsgEarthNet.uav[33] utilizationCountMissions 320
scalar OsgEarthNet.uav[33] utilizationCountManeuversMission 5037
scalar OsgEarthNet.uav[33] utilizationCountManeuversMaintenance 640
scalar OsgEarthNet.uav[33] utilizationCountChargeState 320
scalar OsgEarthNet.uav[33] utilizationCountOverdrawnAfterMission 0
scalar OsgEarthNet.uav[33] utilizationCountIdleState 29
scalar OsgEarthNet.uav[33] utilizationFail 0
scalar OsgEarthNet.uav[33] simulationTime 1209600
scalar OsgEarthNet.uav[34] utilizationSecMission 187689.81978519
scalar OsgEarthNet.uav[34] utilizationSecMaintenance 104291.08211826
scalar OsgEarthNet.uav[34] utilizationSecCharge 915163.65600786
scalar OsgEarthNet.uav[34] utilizationSecIdle 2455.4410886909
scalar OsgEarthNet.uav[34] utilizationEnergyMission 911822.60048676
scalar OsgEarthNet.uav[34] utilizationEnergyMaintenance 490038.69773102
scalar OsgEarthNet.uav[34] utilizationEnergyCharge 1399608.4748535
scalar OsgEarthNet.uav[34] utilizationEnergyOverdrawMission 0
scalar OsgEarthNet.uav[34] utilizationEnergyOverdrawMaintenance 0
scalar OsgEarthNet.uav[34] utilizationCountMissions 318
scalar OsgEarthNet.uav[34] utilizationCountManeuversMission 6125
scalar OsgEarthNet.uav[34] utilizationCountManeuversMaintenance 636
scalar OsgEarthNet.uav[34] utilizationCountChargeState 318
scalar OsgEarthNet.uav[34] utilizationCountOverdrawnAfterMission 0
scalar OsgEarthNet.uav[34] utilizationCountIdleState 8
scalar OsgEarthNet.uav[34] utilizationFail 0
scalar OsgEarthNet.uav[34] simulationTime 1209600
scalar OsgEarthNet.uav[35] utilizationSecMission 209198.11088993
scalar OsgEarthNet.uav[35] utilizationSecMaintenance 84069.887110065
scalar OsgEarthNet.uav[35] utilizationSecCharge 915690
scalar OsgEarthNet.uav[35] utilizationSecIdle 642.001
scalar OsgEarthNet.uav[35] utilizationEnergyMission 1017787.107813
scalar OsgEarthNet.uav[35] utilizationEnergyMaintenance 388114.2183609
scalar OsgEarthNet.uav[35] utilizationEnergyCharge 1397402.1887207
scalar OsgEarthNet.uav[35] utilizationEnergyOverdrawMission 0
scalar OsgEarthNet.uav[35] utilizationEnergyOverdrawMaintenance 0
scalar OsgEarthNet.uav[35] utilizationCountMissions 309
scalar OsgEarthNet.uav[35] utilizationCountManeuversMission 6707
scalar OsgEarthNet.uav[35] utilizationCountManeuversMaintenance 619
scalar OsgEarthNet.uav[35] utilizationCountChargeState 309
scalar OsgEarthNet.uav[35] utilizationCountOverdrawnAfterMission 0
scalar OsgEarthNet.uav[35] utilizationCountIdleState 3
scalar OsgEarthNet.uav[35] utilizationFail 0
scalar OsgEarthNet.uav[35] simulationTime 1209600
scalar OsgEarthNet.uav[36] utilizationSecMission 170320.45465688
scalar OsgEarthNet.uav[36] utilizationSecMaintenance 103764.31076807
scalar OsgEarthNet.uav[36] utilizationSecCharge 930226.65291818
scalar OsgEarthNet.uav[36] utilizationSecIdle 5288.5806568717
scalar OsgEarthNet.uav[36] utilizationEnergyMission 822950.00222015
scalar OsgEarthNet.uav[36] utilizationEnergyMaintenance 493745.53837585
scalar OsgEarthNet.uav[36] utilizationEnergyCharge 1314988.3459473
scalar OsgEarthNet.uav[36] utilizationEnergyOverdrawMission 0
scalar OsgEarthNet.uav[36] utilizationEnergyOverdrawMaintenance 0
scalar OsgEarthNet.uav[36] utilizationCountMissions 320
scalar OsgEarthNet.uav[36] utilizationCountManeuversMission 5182
scalar OsgEarthNet.uav[36] utilizationCountManeuversMaintenance 640
scalar OsgEarthNet.uav[36] utilizationCountChargeState 320
scalar OsgEarthNet.uav[36] utilizationCountOverdrawnAfterMission 0
scalar OsgEarthNet.uav[36] utilizationCountIdleState 30
scalar OsgEarthNet.uav[36] utilizationFail 0
scalar OsgEarthNet.uav[36] simulationTime 1209600
scalar OsgEarthNet.uav[37] utilizationSecMission 184733.59000209
scalar OsgEarthNet.uav[37] utilizationSecMaintenance 101605.26513232
scalar OsgEarthNet.uav[37] utilizationSecCharge 921350.17987992
scalar OsgEarthNet.uav[37] utilizationSecIdle 1910.9639856735
scalar OsgEarthNet.uav[37] utilizationEnergyMission 899894.94063568
scalar OsgEarthNet.uav[37] utilizationEnergyMaintenance 477580.13700104
scalar OsgEarthNet.uav[37] utilizationEnergyCharge 1375148.3190918
scalar OsgEarthNet.uav[37] utilizationEnergyOverdrawMission 0
scalar OsgEarthNet.uav[37] utilizationEnergyOverdrawMaintenance 0
scalar OsgEarthNet.uav[37] utilizationCountMissions 319
scalar OsgEarthNet.uav[37] utilizationCountManeuversMission 5944
scalar OsgEarthNet.uav[37] utilizationCountManeuversMaintenance 638
scalar OsgEarthNet.uav[37] utilizationCountChargeState 319
scalar OsgEarthNet.uav[37] utilizationCountOverdrawnAfterMission 0
scalar OsgEarthNet.uav[37] utilizationCountIdleState 7
scalar OsgEarthNet.uav[37] utilizationFail 0
scalar OsgEarthNet.uav[37] simulationTime 1209600
scalar OsgEarthNet.uav[38] utilizationSecMission 205158.69837526
scalar OsgEarthNet.uav[38] utilizationSecMaintenance 88771.468332373
scalar OsgEarthNet.uav[38] utilizationSecCharge 914297.83029237
scalar OsgEarthNet.uav[38] utilizationSecIdle 1372.002
scalar OsgEarthNet.uav[38] utilizationEnergyMission 998516.98285675
scalar OsgEarthNet.uav[38] utilizationEnergyMaintenance 409724.30730438
scalar OsgEarthNet.uav[38] utilizationEnergyCharge 1405124.0510254
scalar OsgEarthNet.uav[38] utilizationEnergyOverdrawMission 0
scalar OsgEarthNet.uav[38] utilizationEnergyOverdrawMaintenance 0
scalar OsgEarthNet.uav[38] utilizationCountMissions 313
scalar OsgEarthNet.uav[38] utilizationCountManeuversMission 6576
scalar OsgEarthNet.uav[38] utilizationCountManeuversMaintenance 626
scalar OsgEarthNet.uav[38] utilizationCountChargeState 313
scalar OsgEarthNet.uav[38] utilizationCountOverdrawnAfterMission 0
scalar OsgEarthNet.uav[38] utilizationCountIdleState 5
scalar OsgEarthNet.uav[38] utilizationFail 0
scalar OsgEarthNet.uav[38] simulationTime 1209600
scalar OsgEarthNet.uav[39] utilizationSecMission 176483.7615948
scalar OsgEarthNet.uav[39] utilizationSecMaintenance 109434.09266525
scalar OsgEarthNet.uav[39] utilizationSecCharge 919360
scalar OsgEarthNet.uav[39] utilizationSecIdle 4322.1447399488
scalar OsgEarthNet.uav[39] utilizationEnergyMission 865412.55506135
scalar OsgEarthNet.uav[39] utilizationEnergyMaintenance 516740.94136047
scalar OsgEarthNet.uav[39] utilizationEnergyCharge 1380089.2670898
scalar OsgEarthNet.uav[39] utilizationEnergyOverdrawMission 0
scalar OsgEarthNet.uav[39] utilizationEnergyOverdrawMaintenance 0
scalar OsgEarthNet.uav[39] utilizationCountMissions 323
scalar OsgEarthNet.uav[39] utilizationCountManeuversMission 5942
scalar OsgEarthNet.uav[39] utilizationCountManeuversMaintenance 647
scalar OsgEarthNet.uav[39] utilizationCountChargeState 323
scalar OsgEarthNet.uav[39] utilizationCountOverdrawnAfterMission 0
scalar OsgEarthNet.uav[39] utilizationCountIdleState 14
scalar OsgEarthNet.uav[39] utilizationFail 0
scalar OsgEarthNet.uav[39] simulationTime 1209600
scalar OsgEarthNet.uav[40] utilizationSecMission 187010.49115156
scalar OsgEarthNet.uav[40] utilizationSecMaintenance 104801.76774489
scalar OsgEarthNet.uav[40] utilizationSecCharge 915055.73610355
scalar OsgEarthNet.uav[40] utilizationSecIdle 2732.004
scalar OsgEarthNet.uav[40] utilizationEnergyMission 910005.61577606
scalar OsgEarthNet.uav[40] utilizationEnergyMaintenance 492039.0414505
scalar OsgEarthNet.uav[40] utilizationEnergyCharge 1396925.1943359
scalar OsgEarthNet.uav[40] utilizationEnergyOverdrawMission 0
scalar OsgEarthNet.uav[40] utilizationEnergyOverdrawMaintenance 0
scalar OsgEarthNet.uav[40] utilizationCountMissions 320
scalar OsgEarthNet.uav[40] utilizationCountManeuversMission 6213
scalar OsgEarthNet.uav[40] utilizationCountManeuversMaintenance 640
scalar OsgEarthNet.uav[40] utilizationCountChargeState 320
scalar OsgEarthNet.uav[40] utilizationCountOverdrawnAfterMission 0
scalar OsgEarthNet.uav[40] utilizationCountIdleState 12
scalar OsgEarthNet.uav[40] utilizationFail 0
scalar OsgEarthNet.uav[40] simulationTime 1209600
scalar OsgEarthNet.uav[41] utilizationSecMission 179338.64631042
scalar OsgEarthNet.uav[41] utilizationSecMaintenance 108911.40298322
scalar OsgEarthNet.uav[41] utilizationSecCharge 917874.50761767
scalar OsgEarthNet.uav[41] utilizationSecIdle 3475.4420886909
scalar OsgEarthNet.uav[41] utilizationEnergyMission 870646.36593246
scalar OsgEarthNet.uav[41] utilizationEnergyMaintenance 513079.67844772
scalar OsgEarthNet.uav[41] utilizationEnergyCharge 1382573.3945312
scalar OsgEarthNet.uav[41] utilizationEnergyOverdrawMission 0
scalar OsgEarthNet.uav[41] utilizationEnergyOverdrawMaintenance 0
scalar OsgEarthNet.uav[41] utilizationCountMissions 320
scalar OsgEarthNet.uav[41] utilizationCountManeuversMission 5904
scalar OsgEarthNet.uav[41] utilizationCountManeuversMaintenance 640
scalar OsgEarthNet.uav[41] utilizationCountChargeState 320
scalar OsgEarthNet.uav[41] utilizationCountOverdrawnAfterMission 0
scalar OsgEarthNet.uav[41] utilizationCountIdleState 18
scalar OsgEarthNet.uav[41] utilizationFail 0
scalar OsgEarthNet.uav[41] simulationTime 1209600
scalar OsgEarthNet.uav[42] utilizationSecMission 186712.4167106
scalar OsgEarthNet.uav[42] utilizationSecMaintenance 98435.217304002
scalar OsgEarthNet.uav[42] utilizationSecCharge 923170.3649854
scalar OsgEarthNet.uav[42] utilizationSecIdle 1282
scalar OsgEarthNet.uav[42] utilizationEnergyMission 906458.68265152
scalar OsgEarthNet.uav[42] utilizationEnergyMaintenance 462118.70151901
scalar OsgEarthNet.uav[42] utilizationEnergyCharge 1363254.192627
scalar OsgEarthNet.uav[42] utilizationEnergyOverdrawMission 0
scalar OsgEarthNet.uav[42] utilizationEnergyOverdrawMaintenance 0
scalar OsgEarthNet.uav[42] utilizationCountMissions 315
scalar OsgEarthNet.uav[42] utilizationCountManeuversMission 5765
scalar OsgEarthNet.uav[42] utilizationCountManeuversMaintenance 630
scalar OsgEarthNet.uav[42] utilizationCountChargeState 315
scalar OsgEarthNet.uav[42] utilizationCountOverdrawnAfterMission 0
scalar OsgEarthNet.uav[42] utilizationCountIdleState 19
scalar OsgEarthNet.uav[42] utilizationFail 0
scalar OsgEarthNet.uav[42] simulationTime 1209600
scalar OsgEarthNet.uav[43] utilizationSecMission 176159.26964249
scalar OsgEarthNet.uav[43] utilizationSecMaintenance 106166.58889103
scalar OsgEarthNet.uav[43] utilizationSecCharge 922012.13246647
scalar OsgEarthNet.uav[43] utilizationSecIdle 5262.008
scalar OsgEarthNet.uav[43] utilizationEnergyMission 851508.59645081
scalar OsgEarthNet.uav[43] utilizationEnergyMaintenance 504226.8576355
scalar OsgEarthNet.uav[43] utilizationEnergyCharge 1350585.829834
scalar OsgEarthNet.uav[43] utilizationEnergyOverdrawMission 0
scalar OsgEarthNet.uav[43] utilizationEnergyOverdrawMaintenance 0
scalar OsgEarthNet.uav[43] utilizationCountMissions 320
scalar OsgEarthNet.uav[43] utilizationCountManeuversMission 5338
scalar OsgEarthNet.uav[43] utilizationCountManeuversMaintenance 640
scalar OsgEarthNet.uav[43] utilizationCountChargeState 320
scalar OsgEarthNet.uav[43] utilizationCountOverdrawnAfterMission 0
scalar OsgEarthNet.uav[43] utilizationCountIdleState 19
scalar OsgEarthNet.uav[43] utilizationFail 0
scalar OsgEarthNet.uav[43] simulationTime 1209600
scalar OsgEarthNet.uav[44] utilizationSecMission 179433.53725548
scalar OsgEarthNet.uav[44] utilizationSecMaintenance 98840.847670383
scalar OsgEarthNet.uav[44] utilizationSecCharge 929443.61407414
scalar OsgEarthNet.uav[44] utilizationSecIdle 1882
scalar OsgEarthNet.uav[44] utilizationEnergyMission 868809.19823456
scalar OsgEarthNet.uav[44] utilizationEnergyMaintenance 468720.27472687
scalar OsgEarthNet.uav[44] utilizationEnergyCharge 1337706.3007812
scalar OsgEarthNet.uav[44] utilizationEnergyOverdrawMission 0
scalar OsgEarthNet.uav[44] utilizationEnergyOverdrawMaintenance 0
scalar OsgEarthNet.uav[44] utilizationCountMissions 322
scalar OsgEarthNet.uav[44] utilizationCountManeuversMission 5456
scalar OsgEarthNet.uav[44] utilizationCountManeuversMaintenance 643
scalar OsgEarthNet.uav[44] utilizationCountChargeState 322
scalar OsgEarthNet.uav[44] utilizationCountOverdrawnAfterMission 0
scalar OsgEarthNet.uav[44] utilizationCountIdleState 25
scalar OsgEarthNet.uav[44] utilizationFail 0
scalar OsgEarthNet.uav[44] simulationTime 1209600
scalar OsgEarthNet.uav[45] utilizationSecMission 204044.88438678
scalar OsgEarthNet.uav[45] utilizationSecMaintenance 92529.322109873
scalar OsgEarthNet.uav[45] utilizationSecCharge 912553.79250335
scalar OsgEarthNet.uav[45] utilizationSecIdle 472
scalar OsgEarthNet.uav[45] utilizationEnergyMission 991147.58459495
scalar OsgEarthNet.uav[45] utilizationEnergyMaintenance 429115.67390823
scalar OsgEarthNet.uav[45] utilizationEnergyCharge 1408009.5927734
scalar OsgEarthNet.uav[45] utilizationEnergyOverdrawMission 0
scalar OsgEarthNet.uav[45] utilizationEnergyOverdrawMaintenance 0
scalar OsgEarthNet.uav[45] utilizationCountMissions 315
scalar OsgEarthNet.uav[45] utilizationCountManeuversMission 6289
scalar OsgEarthNet.uav[45] utilizationCountManeuversMaintenance 629
scalar OsgEarthNet.uav[45] utilizationCountChargeState 315
scalar OsgEarthNet.uav[45] utilizationCountOverdrawnAfterMission 0
scalar OsgEarthNet.uav[45] utilizationCountIdleState 5
scalar OsgEarthNet.uav[45] utilizationFail 0
scalar OsgEarthNet.uav[45] simulationTime 1209600
scalar OsgEarthNet.uav[46] utilizationSecMission 192583.33513484
scalar OsgEarthNet.uav[46] utilizationSecMaintenance 101164.31092612
scalar OsgEarthNet.uav[46] utilizationSecCharge 914920.35293904
scalar OsgEarthNet.uav[46] utilizationSecIdle 932
scalar OsgEarthNet.uav[46] utilizationEnergyMission 933452.22900009
scalar OsgEarthNet.uav[46] utilizationEnergyMaintenance 474999.69846344
scalar OsgEarthNet.uav[46] utilizationEnergyCharge 1403074.8856201
scalar OsgEarthNet.uav[46] utilizationEnergyOverdrawMission 0
scalar OsgEarthNet.uav[46] utilizationEnergyOverdrawMaintenance 0
scalar OsgEarthNet.uav[46] utilizationCountMissions 318
scalar OsgEarthNet.uav[46] utilizationCountManeuversMission 5996
scalar OsgEarthNet.uav[46] utilizationCountManeuversMaintenance 635
scalar OsgEarthNet.uav[46] utilizationCountChargeState 318
scalar OsgEarthNet.uav[46] utilizationCountOverdrawnAfterMission 0
scalar OsgEarthNet.uav[46] utilizationCountIdleState 8
scalar OsgEarthNet.uav[46] utilizationFail 0
scalar OsgEarthNet.uav[46] simulationTime 1209600
scalar OsgEarthNet.uav[47] utilizationSecMission 179583.74711908
scalar OsgEarthNet.uav[47] utilizationSecMaintenance 96881.639991401
scalar OsgEarthNet.uav[47] utilizationSecCharge 931260
scalar OsgEarthNet.uav[47] utilizationSecIdle 1874.6118895164
scalar OsgEarthNet.uav[47] utilizationEnergyMission 872054.21942139
scalar OsgEarthNet.uav[47] utilizationEnergyMaintenance 456774.35639706
scalar OsgEarthNet.uav[47] utilizationEnergyCharge 1329075.574707
scalar OsgEarthNet.uav[47] utilizationEnergyOverdrawMission 0
scalar OsgEarthNet.uav[47] utilizationEnergyOverdrawMaintenance 0
scalar OsgEarthNet.uav[47] utilizationCountMissions 316
scalar OsgEarthNet.uav[47] utilizationCountManeuversMission 5510
scalar OsgEarthNet.uav[47] utilizationCountManeuversMaintenance 633
scalar OsgEarthNet.uav[47] utilizationCountChargeState 316
scalar OsgEarthNet.uav[47] utilizationCountOverdrawnAfterMission 0
scalar OsgEarthNet.uav[47] utilizationCountIdleState 21
scalar OsgEarthNet.uav[47] utilizationFail 0
scalar OsgEarthNet.uav[47] simulationTime 1209600
scalar OsgEarthNet.uav[48] utilizationSecMission 206671.73919787
scalar OsgEarthNet.uav[48] utilizationSecMaintenance 86021.709817733
scalar OsgEarthNet.uav[48] utilizationSecCharge 915174.5469844
scalar OsgEarthNet.uav[48] utilizationSecIdle 1732.003
scalar OsgEarthNet.uav[48] utilizationEnergyMission 1000612.5255318
scalar OsgEarthNet.uav[48] utilizationEnergyMaintenance 398372.44438934
scalar OsgEarthNet.uav[48] utilizationEnergyCharge 1397967.3535156
scalar OsgEarthNet.uav[48] utilizationEnergyOverdrawMission 0
scalar OsgEarthNet.uav[48] utilizationEnergyOverdrawMaintenance 0
scalar OsgEarthNet.uav[48] utilizationCountMissions 310
scalar OsgEarthNet.uav[48] utilizationCountManeuversMission 6539
scalar OsgEarthNet.uav[48] utilizationCountManeuversMaintenance 620
scalar OsgEarthNet.uav[48] utilizationCountChargeState 310
scalar OsgEarthNet.uav[48] utilizationCountOverdrawnAfterMission 0
scalar OsgEarthNet.uav[48] utilizationCountIdleState 5
scalar OsgEarthNet.uav[48] utilizationFail 0
scalar OsgEarthNet.uav[48] simulationTime 1209600
scalar OsgEarthNet.uav[49] utilizationSecMission 181734.28610579
scalar OsgEarthNet.uav[49] utilizationSecMaintenance 110351.69462449
scalar OsgEarthNet.uav[49] utilizationSecCharge 912900
scalar OsgEarthNet.uav[49] utilizationSecIdle 4614.0182697282
scalar OsgEarthNet.uav[49] utilizationEnergyMission 884726.44765491
scalar OsgEarthNet.uav[49] utilizationEnergyMaintenance 521577.40205765
scalar OsgEarthNet.uav[49] utilizationEnergyCharge 1400511.2927246
scalar OsgEarthNet.uav[49] utilizationEnergyOverdrawMission 0
scalar OsgEarthNet.uav[49] utilizationEnergyOverdrawMaintenance 0
scalar OsgEarthNet.uav[49] utilizationCountMissions 323
scalar OsgEarthNet.uav[49] utilizationCountManeuversMission 5827
scalar OsgEarthNet.uav[49] utilizationCountManeuversMaintenance 647
scalar OsgEarthNet.uav[49] utilizationCountChargeState 323
scalar OsgEarthNet.uav[49] utilizationCountOverdrawnAfterMission 0
scalar OsgEarthNet.uav[49] utilizationCountIdleState 9
scalar OsgEarthNet.uav[49] utilizationFail 0
scalar OsgEarthNet.uav[49] simulationTime 1209600
scalar OsgEarthNet.uav[50] utilizationSecMission 170780.90531
scalar OsgEarthNet.uav[50] utilizationSecMaintenance 98793.975069246
scalar OsgEarthNet.uav[50] utilizationSecCharge 935543.6049598
scalar OsgEarthNet.uav[50] utilizationSecIdle 4481.5136609497
scalar OsgEarthNet.uav[50] utilizationEnergyMission 821160.99987793
scalar OsgEarthNet.uav[50] utilizationEnergyMaintenance 468720.4156189
scalar OsgEarthNet.uav[50] utilizationEnergyCharge 1289004.2368164
scalar OsgEarthNet.uav[50] utilizationEnergyOverdrawMission 0
scalar OsgEarthNet.uav[50] utilizationEnergyOverdrawMaintenance 0
scalar OsgEarthNet.uav[50] utilizationCountMissions 319
scalar OsgEarthNet.uav[50] utilizationCountManeuversMission 4852
scalar OsgEarthNet.uav[50] utilizationCountManeuversMaintenance 638
scalar OsgEarthNet.uav[50] utilizationCountChargeState 319
scalar OsgEarthNet.uav[50] utilizationCountOverdrawnAfterMission 0
scalar OsgEarthNet.uav[50] utilizationCountIdleState 38
scalar OsgEarthNet.uav[50] utilizationFail 0
scalar OsgEarthNet.uav[50] simulationTime 1209600
scalar OsgEarthNet.uav[51] utilizationSecMission 182596.88990717
scalar OsgEarthNet.uav[51] utilizationSecMaintenance 96667.436293407
scalar OsgEarthNet.uav[51] utilizationSecCharge 925475.87258081
scalar OsgEarthNet.uav[51] utilizationSecIdle 4859.8002186065
scalar OsgEarthNet.uav[51] utilizationEnergyMission 884276.17013931
scalar OsgEarthNet.uav[51] utilizationEnergyMaintenance 455876.46265793
scalar OsgEarthNet.uav[51] utilizationEnergyCharge 1332561.2008057
scalar OsgEarthNet.uav[51] utilizationEnergyOverdrawMission 0
scalar OsgEarthNet.uav[51] utilizationEnergyOverdrawMaintenance 0
scalar OsgEarthNet.uav[51] utilizationCountMissions 315
scalar OsgEarthNet.uav[51] utilizationCountManeuversMission 5760
scalar OsgEarthNet.uav[51] utilizationCountManeuversMaintenance 630
scalar OsgEarthNet.uav[51] utilizationCountChargeState 315
scalar OsgEarthNet.uav[51] utilizationCountOverdrawnAfterMission 0
scalar OsgEarthNet.uav[51] utilizationCountIdleState 22
scalar OsgEarthNet.uav[51] utilizationFail 0
scalar OsgEarthNet.uav[51] simulationTime 1209600
scalar OsgEarthNet.uav[52] utilizationSecMission 180610.32065492
scalar OsgEarthNet.uav[52] utilizationSecMaintenance 98900.04726441
scalar OsgEarthNet.uav[52] utilizationSecCharge 925940
scalar OsgEarthNet.uav[52] utilizationSecIdle 4149.6310806652
scalar OsgEarthNet.uav[52] utilizationEnergyMission 867901.73845652
scalar OsgEarthNet.uav[52] utilizationEnergyMaintenance 468297.2065239
scalar OsgEarthNet.uav[52] utilizationEnergyCharge 1334956.5756836
scalar OsgEarthNet.uav[52] utilizationEnergyOverdrawMission 0
scalar OsgEarthNet.uav[52] utilizationEnergyOverdrawMaintenance 0
scalar OsgEarthNet.uav[52] utilizationCountMissions 316
scalar OsgEarthNet.uav[52] utilizationCountManeuversMission 5278
scalar OsgEarthNet.uav[52] utilizationCountManeuversMaintenance 633
scalar OsgEarthNet.uav[52] utilizationCountChargeState 316
scalar OsgEarthNet.uav[52] utilizationCountOverdrawnAfterMission 0
scalar OsgEarthNet.uav[52] utilizationCountIdleState 30
scalar OsgEarthNet.uav[52] utilizationFail 0
scalar OsgEarthNet.uav[52] simulationTime 1209600
scalar OsgEarthNet.uav[53] utilizationSecMission 182943.81651526
scalar OsgEarthNet.uav[53] utilizationSecMaintenance 102417.0671134
scalar OsgEarthNet.uav[53] utilizationSecCharge 919688.16711567
scalar OsgEarthNet.uav[53] utilizationSecIdle 4550.9482556647
scalar OsgEarthNet.uav[53] utilizationEnergyMission 887851.14749527
scalar OsgEarthNet.uav[53] utilizationEnergyMaintenance 483904.62587738
scalar OsgEarthNet.uav[53] utilizationEnergyCharge 1372213.6333008
scalar OsgEarthNet.uav[53] utilizationEnergyOverdrawMission 0
scalar OsgEarthNet.uav[53] utilizationEnergyOverdrawMaintenance 0
scalar OsgEarthNet.uav[53] utilizationCountMissions 317
scalar OsgEarthNet.uav[53] utilizationCountManeuversMission 5953
scalar OsgEarthNet.uav[53] utilizationCountManeuversMaintenance 634
scalar OsgEarthNet.uav[53] utilizationCountChargeState 317
scalar OsgEarthNet.uav[53] utilizationCountOverdrawnAfterMission 0
scalar OsgEarthNet.uav[53] utilizationCountIdleState 15
scalar OsgEarthNet.uav[53] utilizationFail 0
scalar OsgEarthNet.uav[53] simulationTime 1209600
scalar OsgEarthNet.uav[54] utilizationSecMission 170174.92374214
scalar OsgEarthNet.uav[54] utilizationSecMaintenance 102833.07325786
scalar OsgEarthNet.uav[54] utilizationSecCharge 933520
scalar OsgEarthNet.uav[54] utilizationSecIdle 3072.002
scalar OsgEarthNet.uav[54] utilizationEnergyMission 825270.78901672
scalar OsgEarthNet.uav[54] utilizationEnergyMaintenance 488492.18946293
scalar OsgEarthNet.uav[54] utilizationEnergyCharge 1307495.2416992
scalar OsgEarthNet.uav[54] utilizationEnergyOverdrawMission 0
scalar OsgEarthNet.uav[54] utilizationEnergyOverdrawMaintenance 0
scalar OsgEarthNet.uav[54] utilizationCountMissions 319
scalar OsgEarthNet.uav[54] utilizationCountManeuversMission 5198
scalar OsgEarthNet.uav[54] utilizationCountManeuversMaintenance 638
scalar OsgEarthNet.uav[54] utilizationCountChargeState 318
scalar OsgEarthNet.uav[54] utilizationCountOverdrawnAfterMission 0
scalar OsgEarthNet.uav[54] utilizationCountIdleState 31
scalar OsgEarthNet.uav[54] utilizationFail 0
scalar OsgEarthNet.uav[54] simulationTime 1209600
scalar OsgEarthNet.uav[55] utilizationSecMission 196950.89701258
scalar OsgEarthNet.uav[55] utilizationSecMaintenance 90729.606581015
scalar OsgEarthNet.uav[55] utilizationSecCharge 920737.4954064
scalar OsgEarthNet.uav[55] utilizationSecIdle 1182
scalar OsgEarthNet.uav[55] utilizationEnergyMission 954858.54860306
scalar OsgEarthNet.uav[55] utilizationEnergyMaintenance 420135.96372223
scalar OsgEarthNet.uav[55] utilizationEnergyCharge 1370915.7609863
scalar OsgEarthNet.uav[55] utilizationEnergyOverdrawMission 0
scalar OsgEarthNet.uav[55] utilizationEnergyOverdrawMaintenance 0
scalar OsgEarthNet.uav[55] utilizationCountMissions 313
scalar OsgEarthNet.uav[55] utilizationCountManeuversMission 6252
scalar OsgEarthNet.uav[55] utilizationCountManeuversMaintenance 626
scalar OsgEarthNet.uav[55] utilizationCountChargeState 313
scalar OsgEarthNet.uav[55] utilizationCountOverdrawnAfterMission 0
scalar OsgEarthNet.uav[55] utilizationCountIdleState 14
scalar OsgEarthNet.uav[55] utilizationFail 0
scalar OsgEarthNet.uav[55] simulationTime 1209600
scalar OsgEarthNet.uav[56] utilizationSecMission 190403.1211059
scalar OsgEarthNet.uav[56] utilizationSecMaintenance 100485.68991981
scalar OsgEarthNet.uav[56] utilizationSecCharge 915989.04816114
scalar OsgEarthNet.uav[56] utilizationSecIdle 2722.1398131443
scalar OsgEarthNet.uav[56] utilizationEnergyMission 923980.32565308
scalar OsgEarthNet.uav[56] utilizationEnergyMaintenance 473652.60500717
scalar OsgEarthNet.uav[56] utilizationEnergyCharge 1395504.0714111
scalar OsgEarthNet.uav[56] utilizationEnergyOverdrawMission 0
scalar OsgEarthNet.uav[56] utilizationEnergyOverdrawMaintenance 0
scalar OsgEarthNet.uav[56] utilizationCountMissions 319
scalar OsgEarthNet.uav[56] utilizationCountManeuversMission 6040
scalar OsgEarthNet.uav[56] utilizationCountManeuversMaintenance 638
scalar OsgEarthNet.uav[56] utilizationCountChargeState 319
scalar OsgEarthNet.uav[56] utilizationCountOverdrawnAfterMission 0
scalar OsgEarthNet.uav[56] utilizationCountIdleState 12
scalar OsgEarthNet.uav[56] utilizationFail 0
scalar OsgEarthNet.uav[56] simulationTime 1209600
scalar OsgEarthNet.uav[57] utilizationSecMission 182492.79824523
scalar OsgEarthNet.uav[57] utilizationSecMaintenance 94366.274400525
scalar OsgEarthNet.uav[57] utilizationSecCharge 929118.92484752
scalar OsgEarthNet.uav[57] utilizationSecIdle 3622.0015067221
scalar OsgEarthNet.uav[57] utilizationEnergyMission 876129.97970581
scalar OsgEarthNet.uav[57] utilizationEnergyMaintenance 445659.2869339
scalar OsgEarthNet.uav[57] utilizationEnergyCharge 1322437.4199219
scalar OsgEarthNet.uav[57] utilizationEnergyOverdrawMission 0
scalar OsgEarthNet.uav[57] utilizationEnergyOverdrawMaintenance 0
scalar OsgEarthNet.uav[57] utilizationCountMissions 316
scalar OsgEarthNet.uav[57] utilizationCountManeuversMission 5308
scalar OsgEarthNet.uav[57] utilizationCountManeuversMaintenance 632
scalar OsgEarthNet.uav[57] utilizationCountChargeState 316
scalar OsgEarthNet.uav[57] utilizationCountOverdrawnAfterMission 0
scalar OsgEarthNet.uav[57] utilizationCountIdleState 23
scalar OsgEarthNet.uav[57] utilizationFail 0
scalar OsgEarthNet.uav[57] simulationTime 1209600
scalar OsgEarthNet.cs[0] usedPower 19196476.388668
scalar OsgEarthNet.cs[0] chargedPower 19196476.388668
scalar OsgEarthNet.cs[0] chargedMobileNodes 129
scalar OsgEarthNet.cs[0] reservations 4411
scalar OsgEarthNet.cs[1] usedPower 26987459.626676
scalar OsgEarthNet.cs[1] chargedPower 26987459.626676
scalar OsgEarthNet.cs[1] chargedMobileNodes 805
scalar OsgEarthNet.cs[1] reservations 6672
scalar OsgEarthNet.cs[2] usedPower 32795567.094014
scalar OsgEarthNet.cs[2] chargedPower 32795567.094014
scalar OsgEarthNet.cs[2] chargedMobileNodes 88
scalar OsgEarthNet.cs[2] reservations 7289

