version 2
run Szenario_Hotel_Gabelbach-90-20180719-01:06:20-10980
attr configname Szenario_Hotel_Gabelbach
attr datetime 20180719-01:06:20
attr experiment Szenario_Hotel_Gabelbach
attr inifile omnetpp.ini
attr iterationvars "$replM=2, $biWeight=0.35, $replSearchM=1, $numUAVs=56"
attr iterationvarsf replM=2,biWeight=0.35,replSearchM=1,numUAVs=56-
attr measurement "$replM=2, $biWeight=0.35, $replSearchM=1, $numUAVs=56"
attr network OsgEarthNet
attr processid 10980
attr repetition 42
attr replication #42
attr resultdir results
attr runnumber 90
attr seedset 90
itervar biWeight 0.35
itervar numUAVs 56
itervar replM 2
itervar replSearchM 1
param *.osgEarthScene.scene "\"Szenario_Hotel_Gabelbach.earth\""
param *.playgroundLatitude 50.6830269
param *.playgroundLongitude 10.8538055
param *.playgroundWidth 3500m
param *.playgroundHeight 3500m
param *.cs[0].posX 3537m
param *.cs[0].posY 965m
param *.cs[0].posZ 538m
param *.cs[1].posX 312m
param *.cs[1].posY 1262m
param *.cs[1].posZ 539m
param *.cs[2].posX 2185m
param *.cs[2].posY 3026m
param *.cs[2].posZ 777m
param *.cs[3].posX 10m
param *.cs[3].posY 2200m
param *.cs[3].posZ 560m
param *.cs[4].posX 750m
param *.cs[4].posY 200m
param *.cs[4].posZ 540m
param *.cs[5].posX 2450m
param *.cs[5].posY 180m
param *.cs[5].posZ 524m
param *.cs[6].posX 3140m
param *.cs[6].posY 1790m
param *.cs[6].posZ 606m
param *.numCSs 3
param *.uav[*].replacementMethod 2
param *.uav[*].weightedSumWeight 0.35
param *.missionControl.replacementSearchMethod 1
param *.numUAVs 56
param *.*.timeStep 10s
param *.uav[*].commandPreviewCommandCount 20
param *.missionControl.missionFiles "\"missions\\\\Szenario_WB_Hotel_Gabelbach_Mission_Hotel.waypoints,missions\\\\Szenario_WB_Hotel_Gabelbach_Mission_Kickelhahn.waypoints,missions\\\\Szenario_WB_Hotel_Gabelbach_Mission_Ilmenau_Sportplatz.waypoints,missions\\\\Szenario_WB_Hotel_Gabelbach_Mission_Manebach_Mitte.waypoints,missions\\\\Szenario_WB_Hotel_Gabelbach_Mission_Manebach_Sued.waypoints,missions\\\\Szenario_WB_Hotel_Gabelbach_Hover_HoheSchlaufe.waypoints,missions\\\\Szenario_WB_Hotel_Gabelbach_Hover_Kickelhahn.waypoints,missions\\\\Szenario_WB_Hotel_Gabelbach_Hover_Gabelbachskopf.waypoints,missions\\\\Szenario_WB_Hotel_Gabelbach_Hover_Dachskopf.waypoints\""
param *.uav[0].startX 3537m
param *.uav[0].startY 965m
param *.uav[0].startZ 539m
param *.uav[1].startX 312m
param *.uav[1].startY 1262m
param *.uav[1].startZ 540m
param *.uav[2].startX 2185m
param *.uav[2].startY 3026m
param *.uav[2].startZ 778m
param *.uav[3].startX 3537m
param *.uav[3].startY 965m
param *.uav[3].startZ 539m
param *.uav[4].startX 312m
param *.uav[4].startY 1262m
param *.uav[4].startZ 540m
param *.uav[5].startX 2185m
param *.uav[5].startY 3026m
param *.uav[5].startZ 778m
param *.uav[6].startX 3537m
param *.uav[6].startY 965m
param *.uav[6].startZ 539m
param *.uav[7].startX 312m
param *.uav[7].startY 1262m
param *.uav[7].startZ 540m
param *.uav[8].startX 2185m
param *.uav[8].startY 3026m
param *.uav[8].startZ 778m
param *.uav[9].startX 3537m
param *.uav[9].startY 965m
param *.uav[9].startZ 539m
param *.uav[10].startX 3537m
param *.uav[10].startY 965m
param *.uav[10].startZ 539m
param *.uav[11].startX 312m
param *.uav[11].startY 1262m
param *.uav[11].startZ 540m
param *.uav[12].startX 2185m
param *.uav[12].startY 3026m
param *.uav[12].startZ 778m
param *.uav[13].startX 3537m
param *.uav[13].startY 965m
param *.uav[13].startZ 539m
param *.uav[14].startX 312m
param *.uav[14].startY 1262m
param *.uav[14].startZ 540m
param *.uav[15].startX 2185m
param *.uav[15].startY 3026m
param *.uav[15].startZ 778m
param *.uav[16].startX 3537m
param *.uav[16].startY 965m
param *.uav[16].startZ 539m
param *.uav[17].startX 312m
param *.uav[17].startY 1262m
param *.uav[17].startZ 540m
param *.uav[18].startX 2185m
param *.uav[18].startY 3026m
param *.uav[18].startZ 778m
param *.uav[19].startX 3537m
param *.uav[19].startY 965m
param *.uav[19].startZ 539m
param *.uav[20].startX 3537m
param *.uav[20].startY 965m
param *.uav[20].startZ 539m
param *.uav[21].startX 312m
param *.uav[21].startY 1262m
param *.uav[21].startZ 540m
param *.uav[22].startX 2185m
param *.uav[22].startY 3026m
param *.uav[22].startZ 778m
param *.uav[23].startX 3537m
param *.uav[23].startY 965m
param *.uav[23].startZ 539m
param *.uav[24].startX 312m
param *.uav[24].startY 1262m
param *.uav[24].startZ 540m
param *.uav[25].startX 2185m
param *.uav[25].startY 3026m
param *.uav[25].startZ 778m
param *.uav[26].startX 3537m
param *.uav[26].startY 965m
param *.uav[26].startZ 539m
param *.uav[27].startX 312m
param *.uav[27].startY 1262m
param *.uav[27].startZ 540m
param *.uav[28].startX 2185m
param *.uav[28].startY 3026m
param *.uav[28].startZ 778m
param *.uav[29].startX 3537m
param *.uav[29].startY 965m
param *.uav[29].startZ 539m
param *.uav[30].startX 3537m
param *.uav[30].startY 965m
param *.uav[30].startZ 539m
param *.uav[31].startX 312m
param *.uav[31].startY 1262m
param *.uav[31].startZ 540m
param *.uav[32].startX 2185m
param *.uav[32].startY 3026m
param *.uav[32].startZ 778m
param *.uav[33].startX 3537m
param *.uav[33].startY 965m
param *.uav[33].startZ 539m
param *.uav[34].startX 312m
param *.uav[34].startY 1262m
param *.uav[34].startZ 540m
param *.uav[35].startX 2185m
param *.uav[35].startY 3026m
param *.uav[35].startZ 778m
param *.uav[36].startX 3537m
param *.uav[36].startY 965m
param *.uav[36].startZ 539m
param *.uav[37].startX 312m
param *.uav[37].startY 1262m
param *.uav[37].startZ 540m
param *.uav[38].startX 2185m
param *.uav[38].startY 3026m
param *.uav[38].startZ 778m
param *.uav[39].startX 3537m
param *.uav[39].startY 965m
param *.uav[39].startZ 539m
param *.uav[40].startX 3537m
param *.uav[40].startY 965m
param *.uav[40].startZ 539m
param *.uav[41].startX 312m
param *.uav[41].startY 1262m
param *.uav[41].startZ 540m
param *.uav[42].startX 2185m
param *.uav[42].startY 3026m
param *.uav[42].startZ 778m
param *.uav[43].startX 3537m
param *.uav[43].startY 965m
param *.uav[43].startZ 539m
param *.uav[44].startX 312m
param *.uav[44].startY 1262m
param *.uav[44].startZ 540m
param *.uav[45].startX 2185m
param *.uav[45].startY 3026m
param *.uav[45].startZ 778m
param *.uav[46].startX 3537m
param *.uav[46].startY 965m
param *.uav[46].startZ 539m
param *.uav[47].startX 312m
param *.uav[47].startY 1262m
param *.uav[47].startZ 540m
param *.uav[48].startX 2185m
param *.uav[48].startY 3026m
param *.uav[48].startZ 778m
param *.uav[49].startX 3537m
param *.uav[49].startY 965m
param *.uav[49].startZ 539m
param *.uav[50].startX 3537m
param *.uav[50].startY 965m
param *.uav[50].startZ 539m
param *.uav[51].startX 312m
param *.uav[51].startY 1262m
param *.uav[51].startZ 540m
param *.uav[52].startX 2185m
param *.uav[52].startY 3026m
param *.uav[52].startZ 778m
param *.uav[53].startX 3537m
param *.uav[53].startY 965m
param *.uav[53].startZ 539m
param *.uav[54].startX 312m
param *.uav[54].startY 1262m
param *.uav[54].startZ 540m
param *.uav[55].startX 2185m
param *.uav[55].startY 3026m
param *.uav[55].startZ 778m
param *.uav[56].startX 3537m
param *.uav[56].startY 965m
param *.uav[56].startZ 539m
param *.uav[57].startX 312m
param *.uav[57].startY 1262m
param *.uav[57].startZ 540m
param *.uav[58].startX 2185m
param *.uav[58].startY 3026m
param *.uav[58].startZ 778m
param *.uav[59].startX 3537m
param *.uav[59].startY 965m
param *.uav[59].startZ 539m
param *.uav[60].startX 3537m
param *.uav[60].startY 965m
param *.uav[60].startZ 539m
param *.uav[61].startX 312m
param *.uav[61].startY 1262m
param *.uav[61].startZ 540m
param *.uav[62].startX 2185m
param *.uav[62].startY 3026m
param *.uav[62].startZ 778m
param *.uav[63].startX 3537m
param *.uav[63].startY 965m
param *.uav[63].startZ 539m
param *.uav[64].startX 312m
param *.uav[64].startY 1262m
param *.uav[64].startZ 540m
param *.uav[65].startX 2185m
param *.uav[65].startY 3026m
param *.uav[65].startZ 778m
param *.uav[66].startX 3537m
param *.uav[66].startY 965m
param *.uav[66].startZ 539m
param *.uav[67].startX 312m
param *.uav[67].startY 1262m
param *.uav[67].startZ 540m
param *.uav[68].startX 2185m
param *.uav[68].startY 3026m
param *.uav[68].startZ 778m
param *.uav[69].startX 3537m
param *.uav[69].startY 965m
param *.uav[69].startZ 539m
param *.uav[70].startX 3537m
param *.uav[70].startY 965m
param *.uav[70].startZ 539m
param *.uav[71].startX 312m
param *.uav[71].startY 1262m
param *.uav[71].startZ 540m
param *.uav[72].startX 2185m
param *.uav[72].startY 3026m
param *.uav[72].startZ 778m
param *.uav[73].startX 3537m
param *.uav[73].startY 965m
param *.uav[73].startZ 539m
param *.uav[74].startX 312m
param *.uav[74].startY 1262m
param *.uav[74].startZ 540m
param *.uav[75].startX 2185m
param *.uav[75].startY 3026m
param *.uav[75].startZ 778m
param *.uav[76].startX 3537m
param *.uav[76].startY 965m
param *.uav[76].startZ 539m
param *.uav[77].startX 312m
param *.uav[77].startY 1262m
param *.uav[77].startZ 540m
param *.uav[78].startX 2185m
param *.uav[78].startY 3026m
param *.uav[78].startZ 778m
param *.uav[79].startX 3537m
param *.uav[79].startY 965m
param *.uav[79].startZ 539m
param *.uav[80].startX 3537m
param *.uav[80].startY 965m
param *.uav[80].startZ 539m
param *.uav[81].startX 312m
param *.uav[81].startY 1262m
param *.uav[81].startZ 540m
param *.uav[82].startX 2185m
param *.uav[82].startY 3026m
param *.uav[82].startZ 778m
param *.uav[83].startX 3537m
param *.uav[83].startY 965m
param *.uav[83].startZ 539m
param *.uav[84].startX 312m
param *.uav[84].startY 1262m
param *.uav[84].startZ 540m
param *.uav[85].startX 2185m
param *.uav[85].startY 3026m
param *.uav[85].startZ 778m
param *.uav[86].startX 3537m
param *.uav[86].startY 965m
param *.uav[86].startZ 539m
param *.uav[87].startX 312m
param *.uav[87].startY 1262m
param *.uav[87].startZ 540m
param *.uav[88].startX 2185m
param *.uav[88].startY 3026m
param *.uav[88].startZ 778m
param *.uav[89].startX 3537m
param *.uav[89].startY 965m
param *.uav[89].startZ 539m
param *.uav[90].startX 3537m
param *.uav[90].startY 965m
param *.uav[90].startZ 539m
param *.uav[91].startX 312m
param *.uav[91].startY 1262m
param *.uav[91].startZ 540m
param *.uav[92].startX 2185m
param *.uav[92].startY 3026m
param *.uav[92].startZ 778m
param *.uav[93].startX 3537m
param *.uav[93].startY 965m
param *.uav[93].startZ 539m
param *.uav[94].startX 312m
param *.uav[94].startY 1262m
param *.uav[94].startZ 540m
param *.uav[95].startX 2185m
param *.uav[95].startY 3026m
param *.uav[95].startZ 778m
param *.uav[96].startX 3537m
param *.uav[96].startY 965m
param *.uav[96].startZ 539m
param *.uav[97].startX 312m
param *.uav[97].startY 1262m
param *.uav[97].startZ 540m
param *.uav[98].startX 2185m
param *.uav[98].startY 3026m
param *.uav[98].startZ 778m
param *.uav[99].startX 3537m
param *.uav[99].startY 965m
param *.uav[99].startZ 539m
param *.osgEarthScene.scene "\"boston.earth\""
param *.playgroundLatitude 42.3558
param *.playgroundLongitude -71.0677
param *.playgroundWidth 400m
param *.playgroundHeight 200m
param *.channelController.connectionColor "\"#0000FF40\""
param *.channelController.showConnections false
param *.uav[*].modelURL "\"quadrocopter.small.obj.15.scale.0,0,90.rot\""
param *.uav[*].labelColor "\"#FF7C00CC\""
param *.uav[*].label2Color "\"#FF7C00EE\""
param *.uav[*].batteryCapacity 5200mAh
param *.uav[*].batteryRemaining uav[index].batteryCapacity
param *.uav[*].predictionQuantile 0.95
param *.uav[*].replacementMethod 2
param *.uav[*].weightedSumWeight 0.5
param *.cs[*].modelURL "\"chargingstation_v1.osgt.2.scale.0,0,0.rot.0,0,-15e-1.trans\""
param *.cs[*].spotsWaiting 999
param *.cs[*].spotsCharging 999
param *.cs[*].chargeEffectivenessPercentage 100
param *.cs[*].nonLinearPhaseStartPercentage 85
param *.cs[*].chargeCurrent 6.0A
param *.cs[*].prioritizeFastCharge true
param *.missionControl.replacementSearchMethod 0
param *.*.timeStep 9s

scalar OsgEarthNet.uav[0] utilizationSecMission 186368.6317949
scalar OsgEarthNet.uav[0] utilizationSecMaintenance 113860.46452273
scalar OsgEarthNet.uav[0] utilizationSecCharge 906440
scalar OsgEarthNet.uav[0] utilizationSecIdle 2930.9026823698
scalar OsgEarthNet.uav[0] utilizationEnergyMission 908200.68115997
scalar OsgEarthNet.uav[0] utilizationEnergyMaintenance 536686.93159036
scalar OsgEarthNet.uav[0] utilizationEnergyCharge 1436819.6496582
scalar OsgEarthNet.uav[0] utilizationEnergyOverdrawMission 0
scalar OsgEarthNet.uav[0] utilizationEnergyOverdrawMaintenance 0
scalar OsgEarthNet.uav[0] utilizationCountMissions 341
scalar OsgEarthNet.uav[0] utilizationCountManeuversMission 5878
scalar OsgEarthNet.uav[0] utilizationCountManeuversMaintenance 682
scalar OsgEarthNet.uav[0] utilizationCountChargeState 340
scalar OsgEarthNet.uav[0] utilizationCountOverdrawnAfterMission 0
scalar OsgEarthNet.uav[0] utilizationCountIdleState 1
scalar OsgEarthNet.uav[0] utilizationFail 0
scalar OsgEarthNet.uav[0] simulationTime 1209600
scalar OsgEarthNet.uav[1] utilizationSecMission 192392.09987863
scalar OsgEarthNet.uav[1] utilizationSecMaintenance 109269.89927085
scalar OsgEarthNet.uav[1] utilizationSecCharge 905920
scalar OsgEarthNet.uav[1] utilizationSecIdle 2017.9998505245
scalar OsgEarthNet.uav[1] utilizationEnergyMission 938939.33869705
scalar OsgEarthNet.uav[1] utilizationEnergyMaintenance 512942.33656692
scalar OsgEarthNet.uav[1] utilizationEnergyCharge 1444392.1123047
scalar OsgEarthNet.uav[1] utilizationEnergyOverdrawMission 0
scalar OsgEarthNet.uav[1] utilizationEnergyOverdrawMaintenance 0
scalar OsgEarthNet.uav[1] utilizationCountMissions 335
scalar OsgEarthNet.uav[1] utilizationCountManeuversMission 6272
scalar OsgEarthNet.uav[1] utilizationCountManeuversMaintenance 671
scalar OsgEarthNet.uav[1] utilizationCountChargeState 335
scalar OsgEarthNet.uav[1] utilizationCountOverdrawnAfterMission 0
scalar OsgEarthNet.uav[1] utilizationCountIdleState 2
scalar OsgEarthNet.uav[1] utilizationFail 0
scalar OsgEarthNet.uav[1] simulationTime 1209600
scalar OsgEarthNet.uav[2] utilizationSecMission 193882.34757027
scalar OsgEarthNet.uav[2] utilizationSecMaintenance 106006.75663408
scalar OsgEarthNet.uav[2] utilizationSecCharge 908801.71968524
scalar OsgEarthNet.uav[2] utilizationSecIdle 909.17511041073
scalar OsgEarthNet.uav[2] utilizationEnergyMission 938913.33560944
scalar OsgEarthNet.uav[2] utilizationEnergyMaintenance 495840.14423752
scalar OsgEarthNet.uav[2] utilizationEnergyCharge 1434329.2346191
scalar OsgEarthNet.uav[2] utilizationEnergyOverdrawMission 0
scalar OsgEarthNet.uav[2] utilizationEnergyOverdrawMaintenance 0
scalar OsgEarthNet.uav[2] utilizationCountMissions 334
scalar OsgEarthNet.uav[2] utilizationCountManeuversMission 6112
scalar OsgEarthNet.uav[2] utilizationCountManeuversMaintenance 668
scalar OsgEarthNet.uav[2] utilizationCountChargeState 334
scalar OsgEarthNet.uav[2] utilizationCountOverdrawnAfterMission 0
scalar OsgEarthNet.uav[2] utilizationCountIdleState 2
scalar OsgEarthNet.uav[2] utilizationFail 0
scalar OsgEarthNet.uav[2] simulationTime 1209600
scalar OsgEarthNet.uav[3] utilizationSecMission 201503.18277934
scalar OsgEarthNet.uav[3] utilizationSecMaintenance 98696.43702346
scalar OsgEarthNet.uav[3] utilizationSecCharge 906212.29621741
scalar OsgEarthNet.uav[3] utilizationSecIdle 3188.0829797894
scalar OsgEarthNet.uav[3] utilizationEnergyMission 980793.95119095
scalar OsgEarthNet.uav[3] utilizationEnergyMaintenance 459185.44910812
scalar OsgEarthNet.uav[3] utilizationEnergyCharge 1433769.2490845
scalar OsgEarthNet.uav[3] utilizationEnergyOverdrawMission 0
scalar OsgEarthNet.uav[3] utilizationEnergyOverdrawMaintenance 0
scalar OsgEarthNet.uav[3] utilizationCountMissions 328
scalar OsgEarthNet.uav[3] utilizationCountManeuversMission 6608
scalar OsgEarthNet.uav[3] utilizationCountManeuversMaintenance 656
scalar OsgEarthNet.uav[3] utilizationCountChargeState 328
scalar OsgEarthNet.uav[3] utilizationCountOverdrawnAfterMission 0
scalar OsgEarthNet.uav[3] utilizationCountIdleState 2
scalar OsgEarthNet.uav[3] utilizationFail 0
scalar OsgEarthNet.uav[3] simulationTime 1209600
scalar OsgEarthNet.uav[4] utilizationSecMission 179797.12753817
scalar OsgEarthNet.uav[4] utilizationSecMaintenance 116539.89229839
scalar OsgEarthNet.uav[4] utilizationSecCharge 913260.97916344
scalar OsgEarthNet.uav[4] utilizationSecIdle 2
scalar OsgEarthNet.uav[4] utilizationEnergyMission 873111.50139236
scalar OsgEarthNet.uav[4] utilizationEnergyMaintenance 552521.27196121
scalar OsgEarthNet.uav[4] utilizationEnergyCharge 1422203.5385742
scalar OsgEarthNet.uav[4] utilizationEnergyOverdrawMission 0
scalar OsgEarthNet.uav[4] utilizationEnergyOverdrawMaintenance 0
scalar OsgEarthNet.uav[4] utilizationCountMissions 342
scalar OsgEarthNet.uav[4] utilizationCountManeuversMission 5567
scalar OsgEarthNet.uav[4] utilizationCountManeuversMaintenance 683
scalar OsgEarthNet.uav[4] utilizationCountChargeState 342
scalar OsgEarthNet.uav[4] utilizationCountOverdrawnAfterMission 0
scalar OsgEarthNet.uav[4] utilizationCountIdleState 1
scalar OsgEarthNet.uav[4] utilizationFail 0
scalar OsgEarthNet.uav[4] simulationTime 1209600
scalar OsgEarthNet.uav[5] utilizationSecMission 184992.41037188
scalar OsgEarthNet.uav[5] utilizationSecMaintenance 114646.13566941
scalar OsgEarthNet.uav[5] utilizationSecCharge 908490
scalar OsgEarthNet.uav[5] utilizationSecIdle 1471.4529587171
scalar OsgEarthNet.uav[5] utilizationEnergyMission 899808.21251297
scalar OsgEarthNet.uav[5] utilizationEnergyMaintenance 541828.77113329
scalar OsgEarthNet.uav[5] utilizationEnergyCharge 1438299.2353516
scalar OsgEarthNet.uav[5] utilizationEnergyOverdrawMission 0
scalar OsgEarthNet.uav[5] utilizationEnergyOverdrawMaintenance 15.904697418213
scalar OsgEarthNet.uav[5] utilizationCountMissions 339
scalar OsgEarthNet.uav[5] utilizationCountManeuversMission 5994
scalar OsgEarthNet.uav[5] utilizationCountManeuversMaintenance 678
scalar OsgEarthNet.uav[5] utilizationCountChargeState 338
scalar OsgEarthNet.uav[5] utilizationCountOverdrawnAfterMission 1
scalar OsgEarthNet.uav[5] utilizationCountIdleState 1
scalar OsgEarthNet.uav[5] utilizationFail 0
scalar OsgEarthNet.uav[5] simulationTime 1209600
scalar OsgEarthNet.uav[6] utilizationSecMission 196480.32129866
scalar OsgEarthNet.uav[6] utilizationSecMaintenance 103018.35817391
scalar OsgEarthNet.uav[6] utilizationSecCharge 907252.73887056
scalar OsgEarthNet.uav[6] utilizationSecIdle 2848.5806568717
scalar OsgEarthNet.uav[6] utilizationEnergyMission 947802.234478
scalar OsgEarthNet.uav[6] utilizationEnergyMaintenance 482272.25188065
scalar OsgEarthNet.uav[6] utilizationEnergyCharge 1431732.7590332
scalar OsgEarthNet.uav[6] utilizationEnergyOverdrawMission 0
scalar OsgEarthNet.uav[6] utilizationEnergyOverdrawMaintenance 0
scalar OsgEarthNet.uav[6] utilizationCountMissions 333
scalar OsgEarthNet.uav[6] utilizationCountManeuversMission 5799
scalar OsgEarthNet.uav[6] utilizationCountManeuversMaintenance 666
scalar OsgEarthNet.uav[6] utilizationCountChargeState 333
scalar OsgEarthNet.uav[6] utilizationCountOverdrawnAfterMission 0
scalar OsgEarthNet.uav[6] utilizationCountIdleState 1
scalar OsgEarthNet.uav[6] utilizationFail 0
scalar OsgEarthNet.uav[6] simulationTime 1209600
scalar OsgEarthNet.uav[7] utilizationSecMission 178535.1470161
scalar OsgEarthNet.uav[7] utilizationSecMaintenance 114749.74618235
scalar OsgEarthNet.uav[7] utilizationSecCharge 913797.78971972
scalar OsgEarthNet.uav[7] utilizationSecIdle 2517.3160818306
scalar OsgEarthNet.uav[7] utilizationEnergyMission 866404.07886505
scalar OsgEarthNet.uav[7] utilizationEnergyMaintenance 545256.08279419
scalar OsgEarthNet.uav[7] utilizationEnergyCharge 1409621.9831543
scalar OsgEarthNet.uav[7] utilizationEnergyOverdrawMission 0
scalar OsgEarthNet.uav[7] utilizationEnergyOverdrawMaintenance 0
scalar OsgEarthNet.uav[7] utilizationCountMissions 347
scalar OsgEarthNet.uav[7] utilizationCountManeuversMission 5588
scalar OsgEarthNet.uav[7] utilizationCountManeuversMaintenance 694
scalar OsgEarthNet.uav[7] utilizationCountChargeState 347
scalar OsgEarthNet.uav[7] utilizationCountOverdrawnAfterMission 0
scalar OsgEarthNet.uav[7] utilizationCountIdleState 3
scalar OsgEarthNet.uav[7] utilizationFail 0
scalar OsgEarthNet.uav[7] simulationTime 1209600
scalar OsgEarthNet.uav[8] utilizationSecMission 199268.30550295
scalar OsgEarthNet.uav[8] utilizationSecMaintenance 100322.47388314
scalar OsgEarthNet.uav[8] utilizationSecCharge 909320
scalar OsgEarthNet.uav[8] utilizationSecIdle 689.21961391566
scalar OsgEarthNet.uav[8] utilizationEnergyMission 967446.62068348
scalar OsgEarthNet.uav[8] utilizationEnergyMaintenance 467599.12131882
scalar OsgEarthNet.uav[8] utilizationEnergyCharge 1428684.6213379
scalar OsgEarthNet.uav[8] utilizationEnergyOverdrawMission 0
scalar OsgEarthNet.uav[8] utilizationEnergyOverdrawMaintenance 0
scalar OsgEarthNet.uav[8] utilizationCountMissions 329
scalar OsgEarthNet.uav[8] utilizationCountManeuversMission 6277
scalar OsgEarthNet.uav[8] utilizationCountManeuversMaintenance 659
scalar OsgEarthNet.uav[8] utilizationCountChargeState 329
scalar OsgEarthNet.uav[8] utilizationCountOverdrawnAfterMission 0
scalar OsgEarthNet.uav[8] utilizationCountIdleState 1
scalar OsgEarthNet.uav[8] utilizationFail 0
scalar OsgEarthNet.uav[8] simulationTime 1209600
scalar OsgEarthNet.uav[9] utilizationSecMission 186257.59444681
scalar OsgEarthNet.uav[9] utilizationSecMaintenance 110036.66538106
scalar OsgEarthNet.uav[9] utilizationSecCharge 911633.59935898
scalar OsgEarthNet.uav[9] utilizationSecIdle 1672.1398131443
scalar OsgEarthNet.uav[9] utilizationEnergyMission 903496.35057068
scalar OsgEarthNet.uav[9] utilizationEnergyMaintenance 519603.40131378
scalar OsgEarthNet.uav[9] utilizationEnergyCharge 1417959.0687256
scalar OsgEarthNet.uav[9] utilizationEnergyOverdrawMission 0
scalar OsgEarthNet.uav[9] utilizationEnergyOverdrawMaintenance 0
scalar OsgEarthNet.uav[9] utilizationCountMissions 341
scalar OsgEarthNet.uav[9] utilizationCountManeuversMission 5903
scalar OsgEarthNet.uav[9] utilizationCountManeuversMaintenance 682
scalar OsgEarthNet.uav[9] utilizationCountChargeState 341
scalar OsgEarthNet.uav[9] utilizationCountOverdrawnAfterMission 0
scalar OsgEarthNet.uav[9] utilizationCountIdleState 1
scalar OsgEarthNet.uav[9] utilizationFail 0
scalar OsgEarthNet.uav[9] simulationTime 1209600
scalar OsgEarthNet.uav[10] utilizationSecMission 192789.56571364
scalar OsgEarthNet.uav[10] utilizationSecMaintenance 108638.86087918
scalar OsgEarthNet.uav[10] utilizationSecCharge 908169.57240718
scalar OsgEarthNet.uav[10] utilizationSecIdle 2
scalar OsgEarthNet.uav[10] utilizationEnergyMission 933173.51643372
scalar OsgEarthNet.uav[10] utilizationEnergyMaintenance 510436.78100204
scalar OsgEarthNet.uav[10] utilizationEnergyCharge 1442878.6188965
scalar OsgEarthNet.uav[10] utilizationEnergyOverdrawMission 0
scalar OsgEarthNet.uav[10] utilizationEnergyOverdrawMaintenance 0
scalar OsgEarthNet.uav[10] utilizationCountMissions 333
scalar OsgEarthNet.uav[10] utilizationCountManeuversMission 6008
scalar OsgEarthNet.uav[10] utilizationCountManeuversMaintenance 666
scalar OsgEarthNet.uav[10] utilizationCountChargeState 333
scalar OsgEarthNet.uav[10] utilizationCountOverdrawnAfterMission 0
scalar OsgEarthNet.uav[10] utilizationCountIdleState 1
scalar OsgEarthNet.uav[10] utilizationFail 0
scalar OsgEarthNet.uav[10] simulationTime 1209600
scalar OsgEarthNet.uav[11] utilizationSecMission 204713.41162879
scalar OsgEarthNet.uav[11] utilizationSecMaintenance 98148.944075381
scalar OsgEarthNet.uav[11] utilizationSecCharge 905135.64029583
scalar OsgEarthNet.uav[11] utilizationSecIdle 1602.003
scalar OsgEarthNet.uav[11] utilizationEnergyMission 995229.28304291
scalar OsgEarthNet.uav[11] utilizationEnergyMaintenance 455196.36261368
scalar OsgEarthNet.uav[11] utilizationEnergyCharge 1440581.8771973
scalar OsgEarthNet.uav[11] utilizationEnergyOverdrawMission 0
scalar OsgEarthNet.uav[11] utilizationEnergyOverdrawMaintenance 0
scalar OsgEarthNet.uav[11] utilizationCountMissions 330
scalar OsgEarthNet.uav[11] utilizationCountManeuversMission 6469
scalar OsgEarthNet.uav[11] utilizationCountManeuversMaintenance 660
scalar OsgEarthNet.uav[11] utilizationCountChargeState 330
scalar OsgEarthNet.uav[11] utilizationCountOverdrawnAfterMission 0
scalar OsgEarthNet.uav[11] utilizationCountIdleState 1
scalar OsgEarthNet.uav[11] utilizationFail 0
scalar OsgEarthNet.uav[11] simulationTime 1209600
scalar OsgEarthNet.uav[12] utilizationSecMission 196207.36328145
scalar OsgEarthNet.uav[12] utilizationSecMaintenance 104808.38474737
scalar OsgEarthNet.uav[12] utilizationSecCharge 908102.24997118
scalar OsgEarthNet.uav[12] utilizationSecIdle 482.001
scalar OsgEarthNet.uav[12] utilizationEnergyMission 947781.71670914
scalar OsgEarthNet.uav[12] utilizationEnergyMaintenance 491497.7449646
scalar OsgEarthNet.uav[12] utilizationEnergyCharge 1437365.2460938
scalar OsgEarthNet.uav[12] utilizationEnergyOverdrawMission 0
scalar OsgEarthNet.uav[12] utilizationEnergyOverdrawMaintenance 0
scalar OsgEarthNet.uav[12] utilizationCountMissions 334
scalar OsgEarthNet.uav[12] utilizationCountManeuversMission 6081
scalar OsgEarthNet.uav[12] utilizationCountManeuversMaintenance 668
scalar OsgEarthNet.uav[12] utilizationCountChargeState 334
scalar OsgEarthNet.uav[12] utilizationCountOverdrawnAfterMission 0
scalar OsgEarthNet.uav[12] utilizationCountIdleState 1
scalar OsgEarthNet.uav[12] utilizationFail 0
scalar OsgEarthNet.uav[12] simulationTime 1209600
scalar OsgEarthNet.uav[13] utilizationSecMission 196542.63383541
scalar OsgEarthNet.uav[13] utilizationSecMaintenance 103263.24275641
scalar OsgEarthNet.uav[13] utilizationSecCharge 909352.12140818
scalar OsgEarthNet.uav[13] utilizationSecIdle 442.001
scalar OsgEarthNet.uav[13] utilizationEnergyMission 951034.02814484
scalar OsgEarthNet.uav[13] utilizationEnergyMaintenance 481712.99890518
scalar OsgEarthNet.uav[13] utilizationEnergyCharge 1428488.4470215
scalar OsgEarthNet.uav[13] utilizationEnergyOverdrawMission 0
scalar OsgEarthNet.uav[13] utilizationEnergyOverdrawMaintenance 0
scalar OsgEarthNet.uav[13] utilizationCountMissions 332
scalar OsgEarthNet.uav[13] utilizationCountManeuversMission 6054
scalar OsgEarthNet.uav[13] utilizationCountManeuversMaintenance 664
scalar OsgEarthNet.uav[13] utilizationCountChargeState 332
scalar OsgEarthNet.uav[13] utilizationCountOverdrawnAfterMission 0
scalar OsgEarthNet.uav[13] utilizationCountIdleState 1
scalar OsgEarthNet.uav[13] utilizationFail 0
scalar OsgEarthNet.uav[13] simulationTime 1209600
scalar OsgEarthNet.uav[14] utilizationSecMission 193661.90267701
scalar OsgEarthNet.uav[14] utilizationSecMaintenance 107362.91068732
scalar OsgEarthNet.uav[14] utilizationSecCharge 906689.74454697
scalar OsgEarthNet.uav[14] utilizationSecIdle 1885.4410886909
scalar OsgEarthNet.uav[14] utilizationEnergyMission 939416.33059311
scalar OsgEarthNet.uav[14] utilizationEnergyMaintenance 502872.25463486
scalar OsgEarthNet.uav[14] utilizationEnergyCharge 1434144.2496338
scalar OsgEarthNet.uav[14] utilizationEnergyOverdrawMission 0
scalar OsgEarthNet.uav[14] utilizationEnergyOverdrawMaintenance 0
scalar OsgEarthNet.uav[14] utilizationCountMissions 335
scalar OsgEarthNet.uav[14] utilizationCountManeuversMission 6083
scalar OsgEarthNet.uav[14] utilizationCountManeuversMaintenance 670
scalar OsgEarthNet.uav[14] utilizationCountChargeState 335
scalar OsgEarthNet.uav[14] utilizationCountOverdrawnAfterMission 0
scalar OsgEarthNet.uav[14] utilizationCountIdleState 1
scalar OsgEarthNet.uav[14] utilizationFail 0
scalar OsgEarthNet.uav[14] simulationTime 1209600
scalar OsgEarthNet.uav[15] utilizationSecMission 195974.69712159
scalar OsgEarthNet.uav[15] utilizationSecMaintenance 103446.22050742
scalar OsgEarthNet.uav[15] utilizationSecCharge 907879.45029032
scalar OsgEarthNet.uav[15] utilizationSecIdle 2299.6310806652
scalar OsgEarthNet.uav[15] utilizationEnergyMission 949457.38410568
scalar OsgEarthNet.uav[15] utilizationEnergyMaintenance 483201.01726532
scalar OsgEarthNet.uav[15] utilizationEnergyCharge 1429593.9946289
scalar OsgEarthNet.uav[15] utilizationEnergyOverdrawMission 0
scalar OsgEarthNet.uav[15] utilizationEnergyOverdrawMaintenance 0
scalar OsgEarthNet.uav[15] utilizationCountMissions 332
scalar OsgEarthNet.uav[15] utilizationCountManeuversMission 6117
scalar OsgEarthNet.uav[15] utilizationCountManeuversMaintenance 664
scalar OsgEarthNet.uav[15] utilizationCountChargeState 332
scalar OsgEarthNet.uav[15] utilizationCountOverdrawnAfterMission 0
scalar OsgEarthNet.uav[15] utilizationCountIdleState 4
scalar OsgEarthNet.uav[15] utilizationFail 0
scalar OsgEarthNet.uav[15] simulationTime 1209600
scalar OsgEarthNet.uav[16] utilizationSecMission 209057.00680509
scalar OsgEarthNet.uav[16] utilizationSecMaintenance 94380.992194913
scalar OsgEarthNet.uav[16] utilizationSecCharge 906130
scalar OsgEarthNet.uav[16] utilizationSecIdle 32
scalar OsgEarthNet.uav[16] utilizationEnergyMission 1003305.9002147
scalar OsgEarthNet.uav[16] utilizationEnergyMaintenance 438503.75545502
scalar OsgEarthNet.uav[16] utilizationEnergyCharge 1435119.4206543
scalar OsgEarthNet.uav[16] utilizationEnergyOverdrawMission 0
scalar OsgEarthNet.uav[16] utilizationEnergyOverdrawMaintenance 0
scalar OsgEarthNet.uav[16] utilizationCountMissions 326
scalar OsgEarthNet.uav[16] utilizationCountManeuversMission 5986
scalar OsgEarthNet.uav[16] utilizationCountManeuversMaintenance 652
scalar OsgEarthNet.uav[16] utilizationCountChargeState 326
scalar OsgEarthNet.uav[16] utilizationCountOverdrawnAfterMission 0
scalar OsgEarthNet.uav[16] utilizationCountIdleState 2
scalar OsgEarthNet.uav[16] utilizationFail 0
scalar OsgEarthNet.uav[16] simulationTime 1209600
scalar OsgEarthNet.uav[17] utilizationSecMission 191793.35300518
scalar OsgEarthNet.uav[17] utilizationSecMaintenance 108614.68940953
scalar OsgEarthNet.uav[17] utilizationSecCharge 906487.53563125
scalar OsgEarthNet.uav[17] utilizationSecIdle 2704.4209540413
scalar OsgEarthNet.uav[17] utilizationEnergyMission 937075.59881592
scalar OsgEarthNet.uav[17] utilizationEnergyMaintenance 509000.18030167
scalar OsgEarthNet.uav[17] utilizationEnergyCharge 1448918.9084473
scalar OsgEarthNet.uav[17] utilizationEnergyOverdrawMission 0
scalar OsgEarthNet.uav[17] utilizationEnergyOverdrawMaintenance 0
scalar OsgEarthNet.uav[17] utilizationCountMissions 335
scalar OsgEarthNet.uav[17] utilizationCountManeuversMission 6316
scalar OsgEarthNet.uav[17] utilizationCountManeuversMaintenance 670
scalar OsgEarthNet.uav[17] utilizationCountChargeState 335
scalar OsgEarthNet.uav[17] utilizationCountOverdrawnAfterMission 0
scalar OsgEarthNet.uav[17] utilizationCountIdleState 2
scalar OsgEarthNet.uav[17] utilizationFail 0
scalar OsgEarthNet.uav[17] simulationTime 1209600
scalar OsgEarthNet.uav[18] utilizationSecMission 194018.73173666
scalar OsgEarthNet.uav[18] utilizationSecMaintenance 102579.26726333
scalar OsgEarthNet.uav[18] utilizationSecCharge 913000
scalar OsgEarthNet.uav[18] utilizationSecIdle 2
scalar OsgEarthNet.uav[18] utilizationEnergyMission 938851.1300575
scalar OsgEarthNet.uav[18] utilizationEnergyMaintenance 482223.16004562
scalar OsgEarthNet.uav[18] utilizationEnergyCharge 1413268.5195312
scalar OsgEarthNet.uav[18] utilizationEnergyOverdrawMission 0
scalar OsgEarthNet.uav[18] utilizationEnergyOverdrawMaintenance 0
scalar OsgEarthNet.uav[18] utilizationCountMissions 332
scalar OsgEarthNet.uav[18] utilizationCountManeuversMission 5778
scalar OsgEarthNet.uav[18] utilizationCountManeuversMaintenance 665
scalar OsgEarthNet.uav[18] utilizationCountChargeState 332
scalar OsgEarthNet.uav[18] utilizationCountOverdrawnAfterMission 0
scalar OsgEarthNet.uav[18] utilizationCountIdleState 1
scalar OsgEarthNet.uav[18] utilizationFail 0
scalar OsgEarthNet.uav[18] simulationTime 1209600
scalar OsgEarthNet.uav[19] utilizationSecMission 193875.31913378
scalar OsgEarthNet.uav[19] utilizationSecMaintenance 104789.10965273
scalar OsgEarthNet.uav[19] utilizationSecCharge 908350.29857839
scalar OsgEarthNet.uav[19] utilizationSecIdle 2585.2716350975
scalar OsgEarthNet.uav[19] utilizationEnergyMission 937873.92893982
scalar OsgEarthNet.uav[19] utilizationEnergyMaintenance 492584.67671204
scalar OsgEarthNet.uav[19] utilizationEnergyCharge 1422856.6312256
scalar OsgEarthNet.uav[19] utilizationEnergyOverdrawMission 0
scalar OsgEarthNet.uav[19] utilizationEnergyOverdrawMaintenance 0
scalar OsgEarthNet.uav[19] utilizationCountMissions 332
scalar OsgEarthNet.uav[19] utilizationCountManeuversMission 5676
scalar OsgEarthNet.uav[19] utilizationCountManeuversMaintenance 664
scalar OsgEarthNet.uav[19] utilizationCountChargeState 332
scalar OsgEarthNet.uav[19] utilizationCountOverdrawnAfterMission 0
scalar OsgEarthNet.uav[19] utilizationCountIdleState 3
scalar OsgEarthNet.uav[19] utilizationFail 0
scalar OsgEarthNet.uav[19] simulationTime 1209600
scalar OsgEarthNet.uav[20] utilizationSecMission 199171.76795524
scalar OsgEarthNet.uav[20] utilizationSecMaintenance 102470.89226654
scalar OsgEarthNet.uav[20] utilizationSecCharge 904743.94666068
scalar OsgEarthNet.uav[20] utilizationSecIdle 3213.3921175336
scalar OsgEarthNet.uav[20] utilizationEnergyMission 965634.91100693
scalar OsgEarthNet.uav[20] utilizationEnergyMaintenance 478645.73182678
scalar OsgEarthNet.uav[20] utilizationEnergyCharge 1444414.262207
scalar OsgEarthNet.uav[20] utilizationEnergyOverdrawMission 0
scalar OsgEarthNet.uav[20] utilizationEnergyOverdrawMaintenance 0
scalar OsgEarthNet.uav[20] utilizationCountMissions 330
scalar OsgEarthNet.uav[20] utilizationCountManeuversMission 6382
scalar OsgEarthNet.uav[20] utilizationCountManeuversMaintenance 660
scalar OsgEarthNet.uav[20] utilizationCountChargeState 330
scalar OsgEarthNet.uav[20] utilizationCountOverdrawnAfterMission 0
scalar OsgEarthNet.uav[20] utilizationCountIdleState 1
scalar OsgEarthNet.uav[20] utilizationFail 0
scalar OsgEarthNet.uav[20] simulationTime 1209600
scalar OsgEarthNet.uav[21] utilizationSecMission 184297.26318908
scalar OsgEarthNet.uav[21] utilizationSecMaintenance 112236.34970362
scalar OsgEarthNet.uav[21] utilizationSecCharge 910774.3821073
scalar OsgEarthNet.uav[21] utilizationSecIdle 2292.004
scalar OsgEarthNet.uav[21] utilizationEnergyMission 905344.74809647
scalar OsgEarthNet.uav[21] utilizationEnergyMaintenance 526637.76544952
scalar OsgEarthNet.uav[21] utilizationEnergyCharge 1423214.8474121
scalar OsgEarthNet.uav[21] utilizationEnergyOverdrawMission 0
scalar OsgEarthNet.uav[21] utilizationEnergyOverdrawMaintenance 0
scalar OsgEarthNet.uav[21] utilizationCountMissions 340
scalar OsgEarthNet.uav[21] utilizationCountManeuversMission 5951
scalar OsgEarthNet.uav[21] utilizationCountManeuversMaintenance 680
scalar OsgEarthNet.uav[21] utilizationCountChargeState 340
scalar OsgEarthNet.uav[21] utilizationCountOverdrawnAfterMission 0
scalar OsgEarthNet.uav[21] utilizationCountIdleState 3
scalar OsgEarthNet.uav[21] utilizationFail 0
scalar OsgEarthNet.uav[21] simulationTime 1209600
scalar OsgEarthNet.uav[22] utilizationSecMission 198253.82123777
scalar OsgEarthNet.uav[22] utilizationSecMaintenance 101687.71135709
scalar OsgEarthNet.uav[22] utilizationSecCharge 908169.04105785
scalar OsgEarthNet.uav[22] utilizationSecIdle 1489.4253472904
scalar OsgEarthNet.uav[22] utilizationEnergyMission 954838.03245163
scalar OsgEarthNet.uav[22] utilizationEnergyMaintenance 476358.27839279
scalar OsgEarthNet.uav[22] utilizationEnergyCharge 1434028.4274902
scalar OsgEarthNet.uav[22] utilizationEnergyOverdrawMission 0
scalar OsgEarthNet.uav[22] utilizationEnergyOverdrawMaintenance 0
scalar OsgEarthNet.uav[22] utilizationCountMissions 330
scalar OsgEarthNet.uav[22] utilizationCountManeuversMission 5904
scalar OsgEarthNet.uav[22] utilizationCountManeuversMaintenance 660
scalar OsgEarthNet.uav[22] utilizationCountChargeState 330
scalar OsgEarthNet.uav[22] utilizationCountOverdrawnAfterMission 0
scalar OsgEarthNet.uav[22] utilizationCountIdleState 2
scalar OsgEarthNet.uav[22] utilizationFail 0
scalar OsgEarthNet.uav[22] simulationTime 1209600
scalar OsgEarthNet.uav[23] utilizationSecMission 181786.04371905
scalar OsgEarthNet.uav[23] utilizationSecMaintenance 117086.24908706
scalar OsgEarthNet.uav[23] utilizationSecCharge 908875.70219389
scalar OsgEarthNet.uav[23] utilizationSecIdle 1852.004
scalar OsgEarthNet.uav[23] utilizationEnergyMission 884124.29180908
scalar OsgEarthNet.uav[23] utilizationEnergyMaintenance 553794.53761673
scalar OsgEarthNet.uav[23] utilizationEnergyCharge 1435338.0180664
scalar OsgEarthNet.uav[23] utilizationEnergyOverdrawMission 0
scalar OsgEarthNet.uav[23] utilizationEnergyOverdrawMaintenance 0
scalar OsgEarthNet.uav[23] utilizationCountMissions 343
scalar OsgEarthNet.uav[23] utilizationCountManeuversMission 5627
scalar OsgEarthNet.uav[23] utilizationCountManeuversMaintenance 686
scalar OsgEarthNet.uav[23] utilizationCountChargeState 343
scalar OsgEarthNet.uav[23] utilizationCountOverdrawnAfterMission 0
scalar OsgEarthNet.uav[23] utilizationCountIdleState 2
scalar OsgEarthNet.uav[23] utilizationFail 0
scalar OsgEarthNet.uav[23] simulationTime 1209600
scalar OsgEarthNet.uav[24] utilizationSecMission 186454.55841203
scalar OsgEarthNet.uav[24] utilizationSecMaintenance 106738.19739787
scalar OsgEarthNet.uav[24] utilizationSecCharge 913645.2381901
scalar OsgEarthNet.uav[24] utilizationSecIdle 2762.005
scalar OsgEarthNet.uav[24] utilizationEnergyMission 894830.1833992
scalar OsgEarthNet.uav[24] utilizationEnergyMaintenance 500968.38137817
scalar OsgEarthNet.uav[24] utilizationEnergyCharge 1395381.3115234
scalar OsgEarthNet.uav[24] utilizationEnergyOverdrawMission 0
scalar OsgEarthNet.uav[24] utilizationEnergyOverdrawMaintenance 0
scalar OsgEarthNet.uav[24] utilizationCountMissions 338
scalar OsgEarthNet.uav[24] utilizationCountManeuversMission 5467
scalar OsgEarthNet.uav[24] utilizationCountManeuversMaintenance 676
scalar OsgEarthNet.uav[24] utilizationCountChargeState 338
scalar OsgEarthNet.uav[24] utilizationCountOverdrawnAfterMission 0
scalar OsgEarthNet.uav[24] utilizationCountIdleState 3
scalar OsgEarthNet.uav[24] utilizationFail 0
scalar OsgEarthNet.uav[24] simulationTime 1209600
scalar OsgEarthNet.uav[25] utilizationSecMission 189972.79956451
scalar OsgEarthNet.uav[25] utilizationSecMaintenance 106955.94332796
scalar OsgEarthNet.uav[25] utilizationSecCharge 912669.25610752
scalar OsgEarthNet.uav[25] utilizationSecIdle 2
scalar OsgEarthNet.uav[25] utilizationEnergyMission 926391.42045011
scalar OsgEarthNet.uav[25] utilizationEnergyMaintenance 503456.64286804
scalar OsgEarthNet.uav[25] utilizationEnergyCharge 1423016.5292969
scalar OsgEarthNet.uav[25] utilizationEnergyOverdrawMission 0
scalar OsgEarthNet.uav[25] utilizationEnergyOverdrawMaintenance 0
scalar OsgEarthNet.uav[25] utilizationCountMissions 338
scalar OsgEarthNet.uav[25] utilizationCountManeuversMission 5943
scalar OsgEarthNet.uav[25] utilizationCountManeuversMaintenance 675
scalar OsgEarthNet.uav[25] utilizationCountChargeState 338
scalar OsgEarthNet.uav[25] utilizationCountOverdrawnAfterMission 0
scalar OsgEarthNet.uav[25] utilizationCountIdleState 1
scalar OsgEarthNet.uav[25] utilizationFail 0
scalar OsgEarthNet.uav[25] simulationTime 1209600
scalar OsgEarthNet.uav[26] utilizationSecMission 179698.53324213
scalar OsgEarthNet.uav[26] utilizationSecMaintenance 119547.72553642
scalar OsgEarthNet.uav[26] utilizationSecCharge 909451.73822145
scalar OsgEarthNet.uav[26] utilizationSecIdle 902.002
scalar OsgEarthNet.uav[26] utilizationEnergyMission 880006.74616623
scalar OsgEarthNet.uav[26] utilizationEnergyMaintenance 564906.9250679
scalar OsgEarthNet.uav[26] utilizationEnergyCharge 1443959.3708496
scalar OsgEarthNet.uav[26] utilizationEnergyOverdrawMission 0
scalar OsgEarthNet.uav[26] utilizationEnergyOverdrawMaintenance 0
scalar OsgEarthNet.uav[26] utilizationCountMissions 342
scalar OsgEarthNet.uav[26] utilizationCountManeuversMission 6073
scalar OsgEarthNet.uav[26] utilizationCountManeuversMaintenance 684
scalar OsgEarthNet.uav[26] utilizationCountChargeState 342
scalar OsgEarthNet.uav[26] utilizationCountOverdrawnAfterMission 0
scalar OsgEarthNet.uav[26] utilizationCountIdleState 1
scalar OsgEarthNet.uav[26] utilizationFail 0
scalar OsgEarthNet.uav[26] simulationTime 1209600
scalar OsgEarthNet.uav[27] utilizationSecMission 187844.31325527
scalar OsgEarthNet.uav[27] utilizationSecMaintenance 110403.33869013
scalar OsgEarthNet.uav[27] utilizationSecCharge 908806.90396592
scalar OsgEarthNet.uav[27] utilizationSecIdle 2545.443088691
scalar OsgEarthNet.uav[27] utilizationEnergyMission 916726.15702057
scalar OsgEarthNet.uav[27] utilizationEnergyMaintenance 519534.17117691
scalar OsgEarthNet.uav[27] utilizationEnergyCharge 1434793.7788086
scalar OsgEarthNet.uav[27] utilizationEnergyOverdrawMission 0
scalar OsgEarthNet.uav[27] utilizationEnergyOverdrawMaintenance 0
scalar OsgEarthNet.uav[27] utilizationCountMissions 339
scalar OsgEarthNet.uav[27] utilizationCountManeuversMission 6161
scalar OsgEarthNet.uav[27] utilizationCountManeuversMaintenance 678
scalar OsgEarthNet.uav[27] utilizationCountChargeState 339
scalar OsgEarthNet.uav[27] utilizationCountOverdrawnAfterMission 0
scalar OsgEarthNet.uav[27] utilizationCountIdleState 1
scalar OsgEarthNet.uav[27] utilizationFail 0
scalar OsgEarthNet.uav[27] simulationTime 1209600
scalar OsgEarthNet.uav[28] utilizationSecMission 197962.86886109
scalar OsgEarthNet.uav[28] utilizationSecMaintenance 98851.685362275
scalar OsgEarthNet.uav[28] utilizationSecCharge 911329.1193972
scalar OsgEarthNet.uav[28] utilizationSecIdle 1456.3253794327
scalar OsgEarthNet.uav[28] utilizationEnergyMission 958737.01572037
scalar OsgEarthNet.uav[28] utilizationEnergyMaintenance 460670.38386536
scalar OsgEarthNet.uav[28] utilizationEnergyCharge 1413980.5982666
scalar OsgEarthNet.uav[28] utilizationEnergyOverdrawMission 0
scalar OsgEarthNet.uav[28] utilizationEnergyOverdrawMaintenance 0
scalar OsgEarthNet.uav[28] utilizationCountMissions 330
scalar OsgEarthNet.uav[28] utilizationCountManeuversMission 6029
scalar OsgEarthNet.uav[28] utilizationCountManeuversMaintenance 660
scalar OsgEarthNet.uav[28] utilizationCountChargeState 330
scalar OsgEarthNet.uav[28] utilizationCountOverdrawnAfterMission 0
scalar OsgEarthNet.uav[28] utilizationCountIdleState 4
scalar OsgEarthNet.uav[28] utilizationFail 0
scalar OsgEarthNet.uav[28] simulationTime 1209600
scalar OsgEarthNet.uav[29] utilizationSecMission 200471.03894531
scalar OsgEarthNet.uav[29] utilizationSecMaintenance 98094.206834242
scalar OsgEarthNet.uav[29] utilizationSecCharge 908722.74822045
scalar OsgEarthNet.uav[29] utilizationSecIdle 2312.005
scalar OsgEarthNet.uav[29] utilizationEnergyMission 974700.49384308
scalar OsgEarthNet.uav[29] utilizationEnergyMaintenance 455488.28481293
scalar OsgEarthNet.uav[29] utilizationEnergyCharge 1428882.3513184
scalar OsgEarthNet.uav[29] utilizationEnergyOverdrawMission 0
scalar OsgEarthNet.uav[29] utilizationEnergyOverdrawMaintenance 0
scalar OsgEarthNet.uav[29] utilizationCountMissions 330
scalar OsgEarthNet.uav[29] utilizationCountManeuversMission 6455
scalar OsgEarthNet.uav[29] utilizationCountManeuversMaintenance 660
scalar OsgEarthNet.uav[29] utilizationCountChargeState 330
scalar OsgEarthNet.uav[29] utilizationCountOverdrawnAfterMission 0
scalar OsgEarthNet.uav[29] utilizationCountIdleState 2
scalar OsgEarthNet.uav[29] utilizationFail 0
scalar OsgEarthNet.uav[29] simulationTime 1209600
scalar OsgEarthNet.uav[30] utilizationSecMission 185897.67220456
scalar OsgEarthNet.uav[30] utilizationSecMaintenance 112110.18205549
scalar OsgEarthNet.uav[30] utilizationSecCharge 908660
scalar OsgEarthNet.uav[30] utilizationSecIdle 2932.1447399488
scalar OsgEarthNet.uav[30] utilizationEnergyMission 901608.26559098
scalar OsgEarthNet.uav[30] utilizationEnergyMaintenance 526676.91080093
scalar OsgEarthNet.uav[30] utilizationEnergyCharge 1424202.7431641
scalar OsgEarthNet.uav[30] utilizationEnergyOverdrawMission 0
scalar OsgEarthNet.uav[30] utilizationEnergyOverdrawMaintenance 0
scalar OsgEarthNet.uav[30] utilizationCountMissions 340
scalar OsgEarthNet.uav[30] utilizationCountManeuversMission 5738
scalar OsgEarthNet.uav[30] utilizationCountManeuversMaintenance 681
scalar OsgEarthNet.uav[30] utilizationCountChargeState 340
scalar OsgEarthNet.uav[30] utilizationCountOverdrawnAfterMission 0
scalar OsgEarthNet.uav[30] utilizationCountIdleState 3
scalar OsgEarthNet.uav[30] utilizationFail 0
scalar OsgEarthNet.uav[30] simulationTime 1209600
scalar OsgEarthNet.uav[31] utilizationSecMission 209142.91876457
scalar OsgEarthNet.uav[31] utilizationSecMaintenance 93215.67949824
scalar OsgEarthNet.uav[31] utilizationSecCharge 906679.39973719
scalar OsgEarthNet.uav[31] utilizationSecIdle 562.001
scalar OsgEarthNet.uav[31] utilizationEnergyMission 1012018.9714241
scalar OsgEarthNet.uav[31] utilizationEnergyMaintenance 431405.83465576
scalar OsgEarthNet.uav[31] utilizationEnergyCharge 1438624.887207
scalar OsgEarthNet.uav[31] utilizationEnergyOverdrawMission 0
scalar OsgEarthNet.uav[31] utilizationEnergyOverdrawMaintenance 0
scalar OsgEarthNet.uav[31] utilizationCountMissions 326
scalar OsgEarthNet.uav[31] utilizationCountManeuversMission 6160
scalar OsgEarthNet.uav[31] utilizationCountManeuversMaintenance 652
scalar OsgEarthNet.uav[31] utilizationCountChargeState 326
scalar OsgEarthNet.uav[31] utilizationCountOverdrawnAfterMission 0
scalar OsgEarthNet.uav[31] utilizationCountIdleState 1
scalar OsgEarthNet.uav[31] utilizationFail 0
scalar OsgEarthNet.uav[31] simulationTime 1209600
scalar OsgEarthNet.uav[32] utilizationSecMission 196032.11751323
scalar OsgEarthNet.uav[32] utilizationSecMaintenance 104715.88048677
scalar OsgEarthNet.uav[32] utilizationSecCharge 908170
scalar OsgEarthNet.uav[32] utilizationSecIdle 682.001
scalar OsgEarthNet.uav[32] utilizationEnergyMission 952245.16254596
scalar OsgEarthNet.uav[32] utilizationEnergyMaintenance 490909.35013962
scalar OsgEarthNet.uav[32] utilizationEnergyCharge 1441578.3696289
scalar OsgEarthNet.uav[32] utilizationEnergyOverdrawMission 0
scalar OsgEarthNet.uav[32] utilizationEnergyOverdrawMaintenance 0
scalar OsgEarthNet.uav[32] utilizationCountMissions 331
scalar OsgEarthNet.uav[32] utilizationCountManeuversMission 6248
scalar OsgEarthNet.uav[32] utilizationCountManeuversMaintenance 663
scalar OsgEarthNet.uav[32] utilizationCountChargeState 331
scalar OsgEarthNet.uav[32] utilizationCountOverdrawnAfterMission 0
scalar OsgEarthNet.uav[32] utilizationCountIdleState 1
scalar OsgEarthNet.uav[32] utilizationFail 0
scalar OsgEarthNet.uav[32] simulationTime 1209600
scalar OsgEarthNet.uav[33] utilizationSecMission 181711.8271562
scalar OsgEarthNet.uav[33] utilizationSecMaintenance 114917.72744221
scalar OsgEarthNet.uav[33] utilizationSecCharge 912968.44440159
scalar OsgEarthNet.uav[33] utilizationSecIdle 2
scalar OsgEarthNet.uav[33] utilizationEnergyMission 876924.65868378
scalar OsgEarthNet.uav[33] utilizationEnergyMaintenance 544154.75305939
scalar OsgEarthNet.uav[33] utilizationEnergyCharge 1416333.1968384
scalar OsgEarthNet.uav[33] utilizationEnergyOverdrawMission 0
scalar OsgEarthNet.uav[33] utilizationEnergyOverdrawMaintenance 0
scalar OsgEarthNet.uav[33] utilizationCountMissions 346
scalar OsgEarthNet.uav[33] utilizationCountManeuversMission 5440
scalar OsgEarthNet.uav[33] utilizationCountManeuversMaintenance 691
scalar OsgEarthNet.uav[33] utilizationCountChargeState 346
scalar OsgEarthNet.uav[33] utilizationCountOverdrawnAfterMission 0
scalar OsgEarthNet.uav[33] utilizationCountIdleState 1
scalar OsgEarthNet.uav[33] utilizationFail 0
scalar OsgEarthNet.uav[33] simulationTime 1209600
scalar OsgEarthNet.uav[34] utilizationSecMission 191516.13937552
scalar OsgEarthNet.uav[34] utilizationSecMaintenance 106286.64155079
scalar OsgEarthNet.uav[34] utilizationSecCharge 911755.21807369
scalar OsgEarthNet.uav[34] utilizationSecIdle 42
scalar OsgEarthNet.uav[34] utilizationEnergyMission 927886.76449966
scalar OsgEarthNet.uav[34] utilizationEnergyMaintenance 500654.31967926
scalar OsgEarthNet.uav[34] utilizationEnergyCharge 1424187.7145996
scalar OsgEarthNet.uav[34] utilizationEnergyOverdrawMission 0
scalar OsgEarthNet.uav[34] utilizationEnergyOverdrawMaintenance 0
scalar OsgEarthNet.uav[34] utilizationCountMissions 335
scalar OsgEarthNet.uav[34] utilizationCountManeuversMission 5846
scalar OsgEarthNet.uav[34] utilizationCountManeuversMaintenance 670
scalar OsgEarthNet.uav[34] utilizationCountChargeState 335
scalar OsgEarthNet.uav[34] utilizationCountOverdrawnAfterMission 0
scalar OsgEarthNet.uav[34] utilizationCountIdleState 2
scalar OsgEarthNet.uav[34] utilizationFail 0
scalar OsgEarthNet.uav[34] simulationTime 1209600
scalar OsgEarthNet.uav[35] utilizationSecMission 198833.18262775
scalar OsgEarthNet.uav[35] utilizationSecMaintenance 99091.070188648
scalar OsgEarthNet.uav[35] utilizationSecCharge 911673.7461836
scalar OsgEarthNet.uav[35] utilizationSecIdle 2
scalar OsgEarthNet.uav[35] utilizationEnergyMission 965054.50886536
scalar OsgEarthNet.uav[35] utilizationEnergyMaintenance 463515.99534988
scalar OsgEarthNet.uav[35] utilizationEnergyCharge 1426704.387207
scalar OsgEarthNet.uav[35] utilizationEnergyOverdrawMission 0
scalar OsgEarthNet.uav[35] utilizationEnergyOverdrawMaintenance 0
scalar OsgEarthNet.uav[35] utilizationCountMissions 330
scalar OsgEarthNet.uav[35] utilizationCountManeuversMission 6349
scalar OsgEarthNet.uav[35] utilizationCountManeuversMaintenance 660
scalar OsgEarthNet.uav[35] utilizationCountChargeState 330
scalar OsgEarthNet.uav[35] utilizationCountOverdrawnAfterMission 0
scalar OsgEarthNet.uav[35] utilizationCountIdleState 1
scalar OsgEarthNet.uav[35] utilizationFail 0
scalar OsgEarthNet.uav[35] simulationTime 1209600
scalar OsgEarthNet.uav[36] utilizationSecMission 196496.77360189
scalar OsgEarthNet.uav[36] utilizationSecMaintenance 102398.71854022
scalar OsgEarthNet.uav[36] utilizationSecCharge 909802.99319693
scalar OsgEarthNet.uav[36] utilizationSecIdle 901.51366094966
scalar OsgEarthNet.uav[36] utilizationEnergyMission 956195.17369461
scalar OsgEarthNet.uav[36] utilizationEnergyMaintenance 478679.69729996
scalar OsgEarthNet.uav[36] utilizationEnergyCharge 1434097.1394043
scalar OsgEarthNet.uav[36] utilizationEnergyOverdrawMission 0
scalar OsgEarthNet.uav[36] utilizationEnergyOverdrawMaintenance 0
scalar OsgEarthNet.uav[36] utilizationCountMissions 333
scalar OsgEarthNet.uav[36] utilizationCountManeuversMission 6344
scalar OsgEarthNet.uav[36] utilizationCountManeuversMaintenance 666
scalar OsgEarthNet.uav[36] utilizationCountChargeState 333
scalar OsgEarthNet.uav[36] utilizationCountOverdrawnAfterMission 0
scalar OsgEarthNet.uav[36] utilizationCountIdleState 1
scalar OsgEarthNet.uav[36] utilizationFail 0
scalar OsgEarthNet.uav[36] simulationTime 1209600
scalar OsgEarthNet.uav[37] utilizationSecMission 191259.10083148
scalar OsgEarthNet.uav[37] utilizationSecMaintenance 107729.8620447
scalar OsgEarthNet.uav[37] utilizationSecCharge 908792.68252094
scalar OsgEarthNet.uav[37] utilizationSecIdle 1818.3536028792
scalar OsgEarthNet.uav[37] utilizationEnergyMission 927497.10164642
scalar OsgEarthNet.uav[37] utilizationEnergyMaintenance 506555.15458298
scalar OsgEarthNet.uav[37] utilizationEnergyCharge 1428393.9912109
scalar OsgEarthNet.uav[37] utilizationEnergyOverdrawMission 0
scalar OsgEarthNet.uav[37] utilizationEnergyOverdrawMaintenance 0
scalar OsgEarthNet.uav[37] utilizationCountMissions 336
scalar OsgEarthNet.uav[37] utilizationCountManeuversMission 6034
scalar OsgEarthNet.uav[37] utilizationCountManeuversMaintenance 672
scalar OsgEarthNet.uav[37] utilizationCountChargeState 336
scalar OsgEarthNet.uav[37] utilizationCountOverdrawnAfterMission 0
scalar OsgEarthNet.uav[37] utilizationCountIdleState 2
scalar OsgEarthNet.uav[37] utilizationFail 0
scalar OsgEarthNet.uav[37] simulationTime 1209600
scalar OsgEarthNet.uav[38] utilizationSecMission 187955.11790902
scalar OsgEarthNet.uav[38] utilizationSecMaintenance 110882.87909098
scalar OsgEarthNet.uav[38] utilizationSecCharge 909760
scalar OsgEarthNet.uav[38] utilizationSecIdle 1002.002
scalar OsgEarthNet.uav[38] utilizationEnergyMission 913987.79356421
scalar OsgEarthNet.uav[38] utilizationEnergyMaintenance 520315.17169571
scalar OsgEarthNet.uav[38] utilizationEnergyCharge 1429872.9575195
scalar OsgEarthNet.uav[38] utilizationEnergyOverdrawMission 0
scalar OsgEarthNet.uav[38] utilizationEnergyOverdrawMaintenance 0
scalar OsgEarthNet.uav[38] utilizationCountMissions 336
scalar OsgEarthNet.uav[38] utilizationCountManeuversMission 6012
scalar OsgEarthNet.uav[38] utilizationCountManeuversMaintenance 673
scalar OsgEarthNet.uav[38] utilizationCountChargeState 336
scalar OsgEarthNet.uav[38] utilizationCountOverdrawnAfterMission 0
scalar OsgEarthNet.uav[38] utilizationCountIdleState 1
scalar OsgEarthNet.uav[38] utilizationFail 0
scalar OsgEarthNet.uav[38] simulationTime 1209600
scalar OsgEarthNet.uav[39] utilizationSecMission 194164.38340054
scalar OsgEarthNet.uav[39] utilizationSecMaintenance 107385.6935588
scalar OsgEarthNet.uav[39] utilizationSecCharge 905714.02736387
scalar OsgEarthNet.uav[39] utilizationSecIdle 2335.8946767885
scalar OsgEarthNet.uav[39] utilizationEnergyMission 940896.99609756
scalar OsgEarthNet.uav[39] utilizationEnergyMaintenance 504736.9196701
scalar OsgEarthNet.uav[39] utilizationEnergyCharge 1440974.1196289
scalar OsgEarthNet.uav[39] utilizationEnergyOverdrawMission 0
scalar OsgEarthNet.uav[39] utilizationEnergyOverdrawMaintenance 0
scalar OsgEarthNet.uav[39] utilizationCountMissions 333
scalar OsgEarthNet.uav[39] utilizationCountManeuversMission 6268
scalar OsgEarthNet.uav[39] utilizationCountManeuversMaintenance 666
scalar OsgEarthNet.uav[39] utilizationCountChargeState 333
scalar OsgEarthNet.uav[39] utilizationCountOverdrawnAfterMission 0
scalar OsgEarthNet.uav[39] utilizationCountIdleState 1
scalar OsgEarthNet.uav[39] utilizationFail 0
scalar OsgEarthNet.uav[39] simulationTime 1209600
scalar OsgEarthNet.uav[40] utilizationSecMission 193217.81913719
scalar OsgEarthNet.uav[40] utilizationSecMaintenance 106312.05534487
scalar OsgEarthNet.uav[40] utilizationSecCharge 906944.85188283
scalar OsgEarthNet.uav[40] utilizationSecIdle 3125.2726350975
scalar OsgEarthNet.uav[40] utilizationEnergyMission 939390.51018906
scalar OsgEarthNet.uav[40] utilizationEnergyMaintenance 494607.02568436
scalar OsgEarthNet.uav[40] utilizationEnergyCharge 1436328.1494141
scalar OsgEarthNet.uav[40] utilizationEnergyOverdrawMission 0
scalar OsgEarthNet.uav[40] utilizationEnergyOverdrawMaintenance 0
scalar OsgEarthNet.uav[40] utilizationCountMissions 334
scalar OsgEarthNet.uav[40] utilizationCountManeuversMission 6422
scalar OsgEarthNet.uav[40] utilizationCountManeuversMaintenance 668
scalar OsgEarthNet.uav[40] utilizationCountChargeState 334
scalar OsgEarthNet.uav[40] utilizationCountOverdrawnAfterMission 0
scalar OsgEarthNet.uav[40] utilizationCountIdleState 3
scalar OsgEarthNet.uav[40] utilizationFail 0
scalar OsgEarthNet.uav[40] simulationTime 1209600
scalar OsgEarthNet.uav[41] utilizationSecMission 192023.26040228
scalar OsgEarthNet.uav[41] utilizationSecMaintenance 106474.73659772
scalar OsgEarthNet.uav[41] utilizationSecCharge 909950
scalar OsgEarthNet.uav[41] utilizationSecIdle 1152.002
scalar OsgEarthNet.uav[41] utilizationEnergyMission 923107.49659374
scalar OsgEarthNet.uav[41] utilizationEnergyMaintenance 502020.41923523
scalar OsgEarthNet.uav[41] utilizationEnergyCharge 1419127.9929199
scalar OsgEarthNet.uav[41] utilizationEnergyOverdrawMission 0
scalar OsgEarthNet.uav[41] utilizationEnergyOverdrawMaintenance 0
scalar OsgEarthNet.uav[41] utilizationCountMissions 334
scalar OsgEarthNet.uav[41] utilizationCountManeuversMission 5609
scalar OsgEarthNet.uav[41] utilizationCountManeuversMaintenance 669
scalar OsgEarthNet.uav[41] utilizationCountChargeState 334
scalar OsgEarthNet.uav[41] utilizationCountOverdrawnAfterMission 0
scalar OsgEarthNet.uav[41] utilizationCountIdleState 2
scalar OsgEarthNet.uav[41] utilizationFail 0
scalar OsgEarthNet.uav[41] simulationTime 1209600
scalar OsgEarthNet.uav[42] utilizationSecMission 184362.97409306
scalar OsgEarthNet.uav[42] utilizationSecMaintenance 111962.27754346
scalar OsgEarthNet.uav[42] utilizationSecCharge 911533.07431189
scalar OsgEarthNet.uav[42] utilizationSecIdle 1741.6730515863
scalar OsgEarthNet.uav[42] utilizationEnergyMission 907129.05523682
scalar OsgEarthNet.uav[42] utilizationEnergyMaintenance 525760.031147
scalar OsgEarthNet.uav[42] utilizationEnergyCharge 1425968.0106201
scalar OsgEarthNet.uav[42] utilizationEnergyOverdrawMission 0
scalar OsgEarthNet.uav[42] utilizationEnergyOverdrawMaintenance 0
scalar OsgEarthNet.uav[42] utilizationCountMissions 336
scalar OsgEarthNet.uav[42] utilizationCountManeuversMission 6605
scalar OsgEarthNet.uav[42] utilizationCountManeuversMaintenance 672
scalar OsgEarthNet.uav[42] utilizationCountChargeState 336
scalar OsgEarthNet.uav[42] utilizationCountOverdrawnAfterMission 0
scalar OsgEarthNet.uav[42] utilizationCountIdleState 1
scalar OsgEarthNet.uav[42] utilizationFail 0
scalar OsgEarthNet.uav[42] simulationTime 1209600
scalar OsgEarthNet.uav[43] utilizationSecMission 186016.78966733
scalar OsgEarthNet.uav[43] utilizationSecMaintenance 108416.59139756
scalar OsgEarthNet.uav[43] utilizationSecCharge 912364.6119351
scalar OsgEarthNet.uav[43] utilizationSecIdle 2802.006
scalar OsgEarthNet.uav[43] utilizationEnergyMission 909136.59549332
scalar OsgEarthNet.uav[43] utilizationEnergyMaintenance 511280.00983429
scalar OsgEarthNet.uav[43] utilizationEnergyCharge 1418967.5773926
scalar OsgEarthNet.uav[43] utilizationEnergyOverdrawMission 0
scalar OsgEarthNet.uav[43] utilizationEnergyOverdrawMaintenance 0
scalar OsgEarthNet.uav[43] utilizationCountMissions 337
scalar OsgEarthNet.uav[43] utilizationCountManeuversMission 6074
scalar OsgEarthNet.uav[43] utilizationCountManeuversMaintenance 674
scalar OsgEarthNet.uav[43] utilizationCountChargeState 337
scalar OsgEarthNet.uav[43] utilizationCountOverdrawnAfterMission 0
scalar OsgEarthNet.uav[43] utilizationCountIdleState 2
scalar OsgEarthNet.uav[43] utilizationFail 0
scalar OsgEarthNet.uav[43] simulationTime 1209600
scalar OsgEarthNet.uav[44] utilizationSecMission 200170.61526338
scalar OsgEarthNet.uav[44] utilizationSecMaintenance 99039.396358643
scalar OsgEarthNet.uav[44] utilizationSecCharge 909497.98587125
scalar OsgEarthNet.uav[44] utilizationSecIdle 892.00150672213
scalar OsgEarthNet.uav[44] utilizationEnergyMission 966604.58638763
scalar OsgEarthNet.uav[44] utilizationEnergyMaintenance 461742.70146179
scalar OsgEarthNet.uav[44] utilizationEnergyCharge 1427086.9520264
scalar OsgEarthNet.uav[44] utilizationEnergyOverdrawMission 0
scalar OsgEarthNet.uav[44] utilizationEnergyOverdrawMaintenance 0
scalar OsgEarthNet.uav[44] utilizationCountMissions 330
scalar OsgEarthNet.uav[44] utilizationCountManeuversMission 6216
scalar OsgEarthNet.uav[44] utilizationCountManeuversMaintenance 660
scalar OsgEarthNet.uav[44] utilizationCountChargeState 330
scalar OsgEarthNet.uav[44] utilizationCountOverdrawnAfterMission 0
scalar OsgEarthNet.uav[44] utilizationCountIdleState 1
scalar OsgEarthNet.uav[44] utilizationFail 0
scalar OsgEarthNet.uav[44] simulationTime 1209600
scalar OsgEarthNet.uav[45] utilizationSecMission 199002.2655232
scalar OsgEarthNet.uav[45] utilizationSecMaintenance 99901.407097366
scalar OsgEarthNet.uav[45] utilizationSecCharge 908540
scalar OsgEarthNet.uav[45] utilizationSecIdle 2156.3263794327
scalar OsgEarthNet.uav[45] utilizationEnergyMission 965719.72819784
scalar OsgEarthNet.uav[45] utilizationEnergyMaintenance 468035.11515045
scalar OsgEarthNet.uav[45] utilizationEnergyCharge 1430312.6906738
scalar OsgEarthNet.uav[45] utilizationEnergyOverdrawMission 0
scalar OsgEarthNet.uav[45] utilizationEnergyOverdrawMaintenance 0
scalar OsgEarthNet.uav[45] utilizationCountMissions 330
scalar OsgEarthNet.uav[45] utilizationCountManeuversMission 6186
scalar OsgEarthNet.uav[45] utilizationCountManeuversMaintenance 661
scalar OsgEarthNet.uav[45] utilizationCountChargeState 330
scalar OsgEarthNet.uav[45] utilizationCountOverdrawnAfterMission 0
scalar OsgEarthNet.uav[45] utilizationCountIdleState 4
scalar OsgEarthNet.uav[45] utilizationFail 0
scalar OsgEarthNet.uav[45] simulationTime 1209600
scalar OsgEarthNet.uav[46] utilizationSecMission 199348.96265975
scalar OsgEarthNet.uav[46] utilizationSecMaintenance 100344.40445025
scalar OsgEarthNet.uav[46] utilizationSecCharge 906528.44977446
scalar OsgEarthNet.uav[46] utilizationSecIdle 3378.1821155351
scalar OsgEarthNet.uav[46] utilizationEnergyMission 971345.39717865
scalar OsgEarthNet.uav[46] utilizationEnergyMaintenance 468903.2837677
scalar OsgEarthNet.uav[46] utilizationEnergyCharge 1438906.796875
scalar OsgEarthNet.uav[46] utilizationEnergyOverdrawMission 0
scalar OsgEarthNet.uav[46] utilizationEnergyOverdrawMaintenance 0
scalar OsgEarthNet.uav[46] utilizationCountMissions 328
scalar OsgEarthNet.uav[46] utilizationCountManeuversMission 6552
scalar OsgEarthNet.uav[46] utilizationCountManeuversMaintenance 656
scalar OsgEarthNet.uav[46] utilizationCountChargeState 328
scalar OsgEarthNet.uav[46] utilizationCountOverdrawnAfterMission 0
scalar OsgEarthNet.uav[46] utilizationCountIdleState 1
scalar OsgEarthNet.uav[46] utilizationFail 0
scalar OsgEarthNet.uav[46] simulationTime 1209600
scalar OsgEarthNet.uav[47] utilizationSecMission 191805.7786203
scalar OsgEarthNet.uav[47] utilizationSecMaintenance 104842.11963729
scalar OsgEarthNet.uav[47] utilizationSecCharge 912227.48885289
scalar OsgEarthNet.uav[47] utilizationSecIdle 724.61188951643
scalar OsgEarthNet.uav[47] utilizationEnergyMission 931572.1821022
scalar OsgEarthNet.uav[47] utilizationEnergyMaintenance 491870.65190506
scalar OsgEarthNet.uav[47] utilizationEnergyCharge 1420002.3151855
scalar OsgEarthNet.uav[47] utilizationEnergyOverdrawMission 0
scalar OsgEarthNet.uav[47] utilizationEnergyOverdrawMaintenance 0
scalar OsgEarthNet.uav[47] utilizationCountMissions 334
scalar OsgEarthNet.uav[47] utilizationCountManeuversMission 6030
scalar OsgEarthNet.uav[47] utilizationCountManeuversMaintenance 668
scalar OsgEarthNet.uav[47] utilizationCountChargeState 334
scalar OsgEarthNet.uav[47] utilizationCountOverdrawnAfterMission 0
scalar OsgEarthNet.uav[47] utilizationCountIdleState 5
scalar OsgEarthNet.uav[47] utilizationFail 0
scalar OsgEarthNet.uav[47] simulationTime 1209600
scalar OsgEarthNet.uav[48] utilizationSecMission 189875.28371271
scalar OsgEarthNet.uav[48] utilizationSecMaintenance 108217.45839555
scalar OsgEarthNet.uav[48] utilizationSecCharge 909865.25389175
scalar OsgEarthNet.uav[48] utilizationSecIdle 1642.003
scalar OsgEarthNet.uav[48] utilizationEnergyMission 914641.45396423
scalar OsgEarthNet.uav[48] utilizationEnergyMaintenance 510466.68506622
scalar OsgEarthNet.uav[48] utilizationEnergyCharge 1422535.8371582
scalar OsgEarthNet.uav[48] utilizationEnergyOverdrawMission 0
scalar OsgEarthNet.uav[48] utilizationEnergyOverdrawMaintenance 0
scalar OsgEarthNet.uav[48] utilizationCountMissions 336
scalar OsgEarthNet.uav[48] utilizationCountManeuversMission 5553
scalar OsgEarthNet.uav[48] utilizationCountManeuversMaintenance 672
scalar OsgEarthNet.uav[48] utilizationCountChargeState 336
scalar OsgEarthNet.uav[48] utilizationCountOverdrawnAfterMission 0
scalar OsgEarthNet.uav[48] utilizationCountIdleState 2
scalar OsgEarthNet.uav[48] utilizationFail 0
scalar OsgEarthNet.uav[48] simulationTime 1209600
scalar OsgEarthNet.uav[49] utilizationSecMission 190653.60347191
scalar OsgEarthNet.uav[49] utilizationSecMaintenance 107895.20617014
scalar OsgEarthNet.uav[49] utilizationSecCharge 907789.18235795
scalar OsgEarthNet.uav[49] utilizationSecIdle 3262.007
scalar OsgEarthNet.uav[49] utilizationEnergyMission 923652.53725052
scalar OsgEarthNet.uav[49] utilizationEnergyMaintenance 505761.53891754
scalar OsgEarthNet.uav[49] utilizationEnergyCharge 1426209.4221191
scalar OsgEarthNet.uav[49] utilizationEnergyOverdrawMission 0
scalar OsgEarthNet.uav[49] utilizationEnergyOverdrawMaintenance 0
scalar OsgEarthNet.uav[49] utilizationCountMissions 340
scalar OsgEarthNet.uav[49] utilizationCountManeuversMission 5866
scalar OsgEarthNet.uav[49] utilizationCountManeuversMaintenance 680
scalar OsgEarthNet.uav[49] utilizationCountChargeState 340
scalar OsgEarthNet.uav[49] utilizationCountOverdrawnAfterMission 0
scalar OsgEarthNet.uav[49] utilizationCountIdleState 1
scalar OsgEarthNet.uav[49] utilizationFail 0
scalar OsgEarthNet.uav[49] simulationTime 1209600
scalar OsgEarthNet.uav[50] utilizationSecMission 187332.72790033
scalar OsgEarthNet.uav[50] utilizationSecMaintenance 112464.50513433
scalar OsgEarthNet.uav[50] utilizationSecCharge 907360
scalar OsgEarthNet.uav[50] utilizationSecIdle 2442.765965339
scalar OsgEarthNet.uav[50] utilizationEnergyMission 909226.77666473
scalar OsgEarthNet.uav[50] utilizationEnergyMaintenance 530312.66275727
scalar OsgEarthNet.uav[50] utilizationEnergyCharge 1432467.1394043
scalar OsgEarthNet.uav[50] utilizationEnergyOverdrawMission 0
scalar OsgEarthNet.uav[50] utilizationEnergyOverdrawMaintenance 0
scalar OsgEarthNet.uav[50] utilizationCountMissions 336
scalar OsgEarthNet.uav[50] utilizationCountManeuversMission 5794
scalar OsgEarthNet.uav[50] utilizationCountManeuversMaintenance 672
scalar OsgEarthNet.uav[50] utilizationCountChargeState 335
scalar OsgEarthNet.uav[50] utilizationCountOverdrawnAfterMission 0
scalar OsgEarthNet.uav[50] utilizationCountIdleState 1
scalar OsgEarthNet.uav[50] utilizationFail 0
scalar OsgEarthNet.uav[50] simulationTime 1209600
scalar OsgEarthNet.uav[51] utilizationSecMission 194818.67242536
scalar OsgEarthNet.uav[51] utilizationSecMaintenance 103242.66612688
scalar OsgEarthNet.uav[51] utilizationSecCharge 910017.69646209
scalar OsgEarthNet.uav[51] utilizationSecIdle 1520.9639856735
scalar OsgEarthNet.uav[51] utilizationEnergyMission 942149.97581863
scalar OsgEarthNet.uav[51] utilizationEnergyMaintenance 483190.88389969
scalar OsgEarthNet.uav[51] utilizationEnergyCharge 1421497.067627
scalar OsgEarthNet.uav[51] utilizationEnergyOverdrawMission 0
scalar OsgEarthNet.uav[51] utilizationEnergyOverdrawMaintenance 0
scalar OsgEarthNet.uav[51] utilizationCountMissions 335
scalar OsgEarthNet.uav[51] utilizationCountManeuversMission 5806
scalar OsgEarthNet.uav[51] utilizationCountManeuversMaintenance 670
scalar OsgEarthNet.uav[51] utilizationCountChargeState 335
scalar OsgEarthNet.uav[51] utilizationCountOverdrawnAfterMission 0
scalar OsgEarthNet.uav[51] utilizationCountIdleState 2
scalar OsgEarthNet.uav[51] utilizationFail 0
scalar OsgEarthNet.uav[51] simulationTime 1209600
scalar OsgEarthNet.uav[52] utilizationSecMission 206428.24219824
scalar OsgEarthNet.uav[52] utilizationSecMaintenance 94915.454113054
scalar OsgEarthNet.uav[52] utilizationSecCharge 908234.30268871
scalar OsgEarthNet.uav[52] utilizationSecIdle 22
scalar OsgEarthNet.uav[52] utilizationEnergyMission 997447.21287031
scalar OsgEarthNet.uav[52] utilizationEnergyMaintenance 440201.45622635
scalar OsgEarthNet.uav[52] utilizationEnergyCharge 1442478.3459473
scalar OsgEarthNet.uav[52] utilizationEnergyOverdrawMission 0
scalar OsgEarthNet.uav[52] utilizationEnergyOverdrawMaintenance 0
scalar OsgEarthNet.uav[52] utilizationCountMissions 326
scalar OsgEarthNet.uav[52] utilizationCountManeuversMission 6539
scalar OsgEarthNet.uav[52] utilizationCountManeuversMaintenance 651
scalar OsgEarthNet.uav[52] utilizationCountChargeState 326
scalar OsgEarthNet.uav[52] utilizationCountOverdrawnAfterMission 0
scalar OsgEarthNet.uav[52] utilizationCountIdleState 3
scalar OsgEarthNet.uav[52] utilizationFail 0
scalar OsgEarthNet.uav[52] simulationTime 1209600
scalar OsgEarthNet.uav[53] utilizationSecMission 188313.96230683
scalar OsgEarthNet.uav[53] utilizationSecMaintenance 109941.60148644
scalar OsgEarthNet.uav[53] utilizationSecCharge 909872.43220673
scalar OsgEarthNet.uav[53] utilizationSecIdle 1472.003
scalar OsgEarthNet.uav[53] utilizationEnergyMission 911302.88756943
scalar OsgEarthNet.uav[53] utilizationEnergyMaintenance 520485.49640274
scalar OsgEarthNet.uav[53] utilizationEnergyCharge 1428583.0524902
scalar OsgEarthNet.uav[53] utilizationEnergyOverdrawMission 0
scalar OsgEarthNet.uav[53] utilizationEnergyOverdrawMaintenance 0
scalar OsgEarthNet.uav[53] utilizationCountMissions 335
scalar OsgEarthNet.uav[53] utilizationCountManeuversMission 5657
scalar OsgEarthNet.uav[53] utilizationCountManeuversMaintenance 670
scalar OsgEarthNet.uav[53] utilizationCountChargeState 335
scalar OsgEarthNet.uav[53] utilizationCountOverdrawnAfterMission 0
scalar OsgEarthNet.uav[53] utilizationCountIdleState 3
scalar OsgEarthNet.uav[53] utilizationFail 0
scalar OsgEarthNet.uav[53] simulationTime 1209600
scalar OsgEarthNet.uav[54] utilizationSecMission 182539.48551359
scalar OsgEarthNet.uav[54] utilizationSecMaintenance 114812.77447156
scalar OsgEarthNet.uav[54] utilizationSecCharge 909942.29692616
scalar OsgEarthNet.uav[54] utilizationSecIdle 2305.4420886909
scalar OsgEarthNet.uav[54] utilizationEnergyMission 889834.37837219
scalar OsgEarthNet.uav[54] utilizationEnergyMaintenance 542454.9384079
scalar OsgEarthNet.uav[54] utilizationEnergyCharge 1422023.696228
scalar OsgEarthNet.uav[54] utilizationEnergyOverdrawMission 0
scalar OsgEarthNet.uav[54] utilizationEnergyOverdrawMaintenance 0
scalar OsgEarthNet.uav[54] utilizationCountMissions 342
scalar OsgEarthNet.uav[54] utilizationCountManeuversMission 5803
scalar OsgEarthNet.uav[54] utilizationCountManeuversMaintenance 684
scalar OsgEarthNet.uav[54] utilizationCountChargeState 342
scalar OsgEarthNet.uav[54] utilizationCountOverdrawnAfterMission 0
scalar OsgEarthNet.uav[54] utilizationCountIdleState 2
scalar OsgEarthNet.uav[54] utilizationFail 0
scalar OsgEarthNet.uav[54] simulationTime 1209600
scalar OsgEarthNet.uav[55] utilizationSecMission 197474.14733933
scalar OsgEarthNet.uav[55] utilizationSecMaintenance 101257.97098886
scalar OsgEarthNet.uav[55] utilizationSecCharge 910100.43040778
scalar OsgEarthNet.uav[55] utilizationSecIdle 767.4502640309
scalar OsgEarthNet.uav[55] utilizationEnergyMission 952411.66307068
scalar OsgEarthNet.uav[55] utilizationEnergyMaintenance 472764.43938065
scalar OsgEarthNet.uav[55] utilizationEnergyCharge 1423167.1687012
scalar OsgEarthNet.uav[55] utilizationEnergyOverdrawMission 0
scalar OsgEarthNet.uav[55] utilizationEnergyOverdrawMaintenance 0
scalar OsgEarthNet.uav[55] utilizationCountMissions 333
scalar OsgEarthNet.uav[55] utilizationCountManeuversMission 5722
scalar OsgEarthNet.uav[55] utilizationCountManeuversMaintenance 666
scalar OsgEarthNet.uav[55] utilizationCountChargeState 333
scalar OsgEarthNet.uav[55] utilizationCountOverdrawnAfterMission 0
scalar OsgEarthNet.uav[55] utilizationCountIdleState 1
scalar OsgEarthNet.uav[55] utilizationFail 0
scalar OsgEarthNet.uav[55] simulationTime 1209600
scalar OsgEarthNet.cs[0] usedPower 19796340.573194
scalar OsgEarthNet.cs[0] chargedPower 19796340.573194
scalar OsgEarthNet.cs[0] chargedMobileNodes 2
scalar OsgEarthNet.cs[0] reservations 4638
scalar OsgEarthNet.cs[1] usedPower 23417304.001395
scalar OsgEarthNet.cs[1] chargedPower 23417304.001395
scalar OsgEarthNet.cs[1] chargedMobileNodes 27
scalar OsgEarthNet.cs[1] reservations 5848
scalar OsgEarthNet.cs[2] usedPower 36834960.763966
scalar OsgEarthNet.cs[2] chargedPower 36834960.763966
scalar OsgEarthNet.cs[2] chargedMobileNodes 17
scalar OsgEarthNet.cs[2] reservations 8256

