version 2
run Szenario_Hotel_Gabelbach-70-20180718-22:11:21-30544
attr configname Szenario_Hotel_Gabelbach
attr datetime 20180718-22:11:21
attr experiment Szenario_Hotel_Gabelbach
attr inifile omnetpp.ini
attr iterationvars "$replM=2, $biWeight=0.35, $replSearchM=1, $numUAVs=56"
attr iterationvarsf replM=2,biWeight=0.35,replSearchM=1,numUAVs=56-
attr measurement "$replM=2, $biWeight=0.35, $replSearchM=1, $numUAVs=56"
attr network OsgEarthNet
attr processid 30544
attr repetition 22
attr replication #22
attr resultdir results
attr runnumber 70
attr seedset 70
itervar biWeight 0.35
itervar numUAVs 56
itervar replM 2
itervar replSearchM 1
param *.osgEarthScene.scene "\"Szenario_Hotel_Gabelbach.earth\""
param *.playgroundLatitude 50.6830269
param *.playgroundLongitude 10.8538055
param *.playgroundWidth 3500m
param *.playgroundHeight 3500m
param *.cs[0].posX 3537m
param *.cs[0].posY 965m
param *.cs[0].posZ 538m
param *.cs[1].posX 312m
param *.cs[1].posY 1262m
param *.cs[1].posZ 539m
param *.cs[2].posX 2185m
param *.cs[2].posY 3026m
param *.cs[2].posZ 777m
param *.cs[3].posX 10m
param *.cs[3].posY 2200m
param *.cs[3].posZ 560m
param *.cs[4].posX 750m
param *.cs[4].posY 200m
param *.cs[4].posZ 540m
param *.cs[5].posX 2450m
param *.cs[5].posY 180m
param *.cs[5].posZ 524m
param *.cs[6].posX 3140m
param *.cs[6].posY 1790m
param *.cs[6].posZ 606m
param *.numCSs 3
param *.uav[*].replacementMethod 2
param *.uav[*].weightedSumWeight 0.35
param *.missionControl.replacementSearchMethod 1
param *.numUAVs 56
param *.*.timeStep 10s
param *.uav[*].commandPreviewCommandCount 20
param *.missionControl.missionFiles "\"missions\\\\Szenario_WB_Hotel_Gabelbach_Mission_Hotel.waypoints,missions\\\\Szenario_WB_Hotel_Gabelbach_Mission_Kickelhahn.waypoints,missions\\\\Szenario_WB_Hotel_Gabelbach_Mission_Ilmenau_Sportplatz.waypoints,missions\\\\Szenario_WB_Hotel_Gabelbach_Mission_Manebach_Mitte.waypoints,missions\\\\Szenario_WB_Hotel_Gabelbach_Mission_Manebach_Sued.waypoints,missions\\\\Szenario_WB_Hotel_Gabelbach_Hover_HoheSchlaufe.waypoints,missions\\\\Szenario_WB_Hotel_Gabelbach_Hover_Kickelhahn.waypoints,missions\\\\Szenario_WB_Hotel_Gabelbach_Hover_Gabelbachskopf.waypoints,missions\\\\Szenario_WB_Hotel_Gabelbach_Hover_Dachskopf.waypoints\""
param *.uav[0].startX 3537m
param *.uav[0].startY 965m
param *.uav[0].startZ 539m
param *.uav[1].startX 312m
param *.uav[1].startY 1262m
param *.uav[1].startZ 540m
param *.uav[2].startX 2185m
param *.uav[2].startY 3026m
param *.uav[2].startZ 778m
param *.uav[3].startX 3537m
param *.uav[3].startY 965m
param *.uav[3].startZ 539m
param *.uav[4].startX 312m
param *.uav[4].startY 1262m
param *.uav[4].startZ 540m
param *.uav[5].startX 2185m
param *.uav[5].startY 3026m
param *.uav[5].startZ 778m
param *.uav[6].startX 3537m
param *.uav[6].startY 965m
param *.uav[6].startZ 539m
param *.uav[7].startX 312m
param *.uav[7].startY 1262m
param *.uav[7].startZ 540m
param *.uav[8].startX 2185m
param *.uav[8].startY 3026m
param *.uav[8].startZ 778m
param *.uav[9].startX 3537m
param *.uav[9].startY 965m
param *.uav[9].startZ 539m
param *.uav[10].startX 3537m
param *.uav[10].startY 965m
param *.uav[10].startZ 539m
param *.uav[11].startX 312m
param *.uav[11].startY 1262m
param *.uav[11].startZ 540m
param *.uav[12].startX 2185m
param *.uav[12].startY 3026m
param *.uav[12].startZ 778m
param *.uav[13].startX 3537m
param *.uav[13].startY 965m
param *.uav[13].startZ 539m
param *.uav[14].startX 312m
param *.uav[14].startY 1262m
param *.uav[14].startZ 540m
param *.uav[15].startX 2185m
param *.uav[15].startY 3026m
param *.uav[15].startZ 778m
param *.uav[16].startX 3537m
param *.uav[16].startY 965m
param *.uav[16].startZ 539m
param *.uav[17].startX 312m
param *.uav[17].startY 1262m
param *.uav[17].startZ 540m
param *.uav[18].startX 2185m
param *.uav[18].startY 3026m
param *.uav[18].startZ 778m
param *.uav[19].startX 3537m
param *.uav[19].startY 965m
param *.uav[19].startZ 539m
param *.uav[20].startX 3537m
param *.uav[20].startY 965m
param *.uav[20].startZ 539m
param *.uav[21].startX 312m
param *.uav[21].startY 1262m
param *.uav[21].startZ 540m
param *.uav[22].startX 2185m
param *.uav[22].startY 3026m
param *.uav[22].startZ 778m
param *.uav[23].startX 3537m
param *.uav[23].startY 965m
param *.uav[23].startZ 539m
param *.uav[24].startX 312m
param *.uav[24].startY 1262m
param *.uav[24].startZ 540m
param *.uav[25].startX 2185m
param *.uav[25].startY 3026m
param *.uav[25].startZ 778m
param *.uav[26].startX 3537m
param *.uav[26].startY 965m
param *.uav[26].startZ 539m
param *.uav[27].startX 312m
param *.uav[27].startY 1262m
param *.uav[27].startZ 540m
param *.uav[28].startX 2185m
param *.uav[28].startY 3026m
param *.uav[28].startZ 778m
param *.uav[29].startX 3537m
param *.uav[29].startY 965m
param *.uav[29].startZ 539m
param *.uav[30].startX 3537m
param *.uav[30].startY 965m
param *.uav[30].startZ 539m
param *.uav[31].startX 312m
param *.uav[31].startY 1262m
param *.uav[31].startZ 540m
param *.uav[32].startX 2185m
param *.uav[32].startY 3026m
param *.uav[32].startZ 778m
param *.uav[33].startX 3537m
param *.uav[33].startY 965m
param *.uav[33].startZ 539m
param *.uav[34].startX 312m
param *.uav[34].startY 1262m
param *.uav[34].startZ 540m
param *.uav[35].startX 2185m
param *.uav[35].startY 3026m
param *.uav[35].startZ 778m
param *.uav[36].startX 3537m
param *.uav[36].startY 965m
param *.uav[36].startZ 539m
param *.uav[37].startX 312m
param *.uav[37].startY 1262m
param *.uav[37].startZ 540m
param *.uav[38].startX 2185m
param *.uav[38].startY 3026m
param *.uav[38].startZ 778m
param *.uav[39].startX 3537m
param *.uav[39].startY 965m
param *.uav[39].startZ 539m
param *.uav[40].startX 3537m
param *.uav[40].startY 965m
param *.uav[40].startZ 539m
param *.uav[41].startX 312m
param *.uav[41].startY 1262m
param *.uav[41].startZ 540m
param *.uav[42].startX 2185m
param *.uav[42].startY 3026m
param *.uav[42].startZ 778m
param *.uav[43].startX 3537m
param *.uav[43].startY 965m
param *.uav[43].startZ 539m
param *.uav[44].startX 312m
param *.uav[44].startY 1262m
param *.uav[44].startZ 540m
param *.uav[45].startX 2185m
param *.uav[45].startY 3026m
param *.uav[45].startZ 778m
param *.uav[46].startX 3537m
param *.uav[46].startY 965m
param *.uav[46].startZ 539m
param *.uav[47].startX 312m
param *.uav[47].startY 1262m
param *.uav[47].startZ 540m
param *.uav[48].startX 2185m
param *.uav[48].startY 3026m
param *.uav[48].startZ 778m
param *.uav[49].startX 3537m
param *.uav[49].startY 965m
param *.uav[49].startZ 539m
param *.uav[50].startX 3537m
param *.uav[50].startY 965m
param *.uav[50].startZ 539m
param *.uav[51].startX 312m
param *.uav[51].startY 1262m
param *.uav[51].startZ 540m
param *.uav[52].startX 2185m
param *.uav[52].startY 3026m
param *.uav[52].startZ 778m
param *.uav[53].startX 3537m
param *.uav[53].startY 965m
param *.uav[53].startZ 539m
param *.uav[54].startX 312m
param *.uav[54].startY 1262m
param *.uav[54].startZ 540m
param *.uav[55].startX 2185m
param *.uav[55].startY 3026m
param *.uav[55].startZ 778m
param *.uav[56].startX 3537m
param *.uav[56].startY 965m
param *.uav[56].startZ 539m
param *.uav[57].startX 312m
param *.uav[57].startY 1262m
param *.uav[57].startZ 540m
param *.uav[58].startX 2185m
param *.uav[58].startY 3026m
param *.uav[58].startZ 778m
param *.uav[59].startX 3537m
param *.uav[59].startY 965m
param *.uav[59].startZ 539m
param *.uav[60].startX 3537m
param *.uav[60].startY 965m
param *.uav[60].startZ 539m
param *.uav[61].startX 312m
param *.uav[61].startY 1262m
param *.uav[61].startZ 540m
param *.uav[62].startX 2185m
param *.uav[62].startY 3026m
param *.uav[62].startZ 778m
param *.uav[63].startX 3537m
param *.uav[63].startY 965m
param *.uav[63].startZ 539m
param *.uav[64].startX 312m
param *.uav[64].startY 1262m
param *.uav[64].startZ 540m
param *.uav[65].startX 2185m
param *.uav[65].startY 3026m
param *.uav[65].startZ 778m
param *.uav[66].startX 3537m
param *.uav[66].startY 965m
param *.uav[66].startZ 539m
param *.uav[67].startX 312m
param *.uav[67].startY 1262m
param *.uav[67].startZ 540m
param *.uav[68].startX 2185m
param *.uav[68].startY 3026m
param *.uav[68].startZ 778m
param *.uav[69].startX 3537m
param *.uav[69].startY 965m
param *.uav[69].startZ 539m
param *.uav[70].startX 3537m
param *.uav[70].startY 965m
param *.uav[70].startZ 539m
param *.uav[71].startX 312m
param *.uav[71].startY 1262m
param *.uav[71].startZ 540m
param *.uav[72].startX 2185m
param *.uav[72].startY 3026m
param *.uav[72].startZ 778m
param *.uav[73].startX 3537m
param *.uav[73].startY 965m
param *.uav[73].startZ 539m
param *.uav[74].startX 312m
param *.uav[74].startY 1262m
param *.uav[74].startZ 540m
param *.uav[75].startX 2185m
param *.uav[75].startY 3026m
param *.uav[75].startZ 778m
param *.uav[76].startX 3537m
param *.uav[76].startY 965m
param *.uav[76].startZ 539m
param *.uav[77].startX 312m
param *.uav[77].startY 1262m
param *.uav[77].startZ 540m
param *.uav[78].startX 2185m
param *.uav[78].startY 3026m
param *.uav[78].startZ 778m
param *.uav[79].startX 3537m
param *.uav[79].startY 965m
param *.uav[79].startZ 539m
param *.uav[80].startX 3537m
param *.uav[80].startY 965m
param *.uav[80].startZ 539m
param *.uav[81].startX 312m
param *.uav[81].startY 1262m
param *.uav[81].startZ 540m
param *.uav[82].startX 2185m
param *.uav[82].startY 3026m
param *.uav[82].startZ 778m
param *.uav[83].startX 3537m
param *.uav[83].startY 965m
param *.uav[83].startZ 539m
param *.uav[84].startX 312m
param *.uav[84].startY 1262m
param *.uav[84].startZ 540m
param *.uav[85].startX 2185m
param *.uav[85].startY 3026m
param *.uav[85].startZ 778m
param *.uav[86].startX 3537m
param *.uav[86].startY 965m
param *.uav[86].startZ 539m
param *.uav[87].startX 312m
param *.uav[87].startY 1262m
param *.uav[87].startZ 540m
param *.uav[88].startX 2185m
param *.uav[88].startY 3026m
param *.uav[88].startZ 778m
param *.uav[89].startX 3537m
param *.uav[89].startY 965m
param *.uav[89].startZ 539m
param *.uav[90].startX 3537m
param *.uav[90].startY 965m
param *.uav[90].startZ 539m
param *.uav[91].startX 312m
param *.uav[91].startY 1262m
param *.uav[91].startZ 540m
param *.uav[92].startX 2185m
param *.uav[92].startY 3026m
param *.uav[92].startZ 778m
param *.uav[93].startX 3537m
param *.uav[93].startY 965m
param *.uav[93].startZ 539m
param *.uav[94].startX 312m
param *.uav[94].startY 1262m
param *.uav[94].startZ 540m
param *.uav[95].startX 2185m
param *.uav[95].startY 3026m
param *.uav[95].startZ 778m
param *.uav[96].startX 3537m
param *.uav[96].startY 965m
param *.uav[96].startZ 539m
param *.uav[97].startX 312m
param *.uav[97].startY 1262m
param *.uav[97].startZ 540m
param *.uav[98].startX 2185m
param *.uav[98].startY 3026m
param *.uav[98].startZ 778m
param *.uav[99].startX 3537m
param *.uav[99].startY 965m
param *.uav[99].startZ 539m
param *.osgEarthScene.scene "\"boston.earth\""
param *.playgroundLatitude 42.3558
param *.playgroundLongitude -71.0677
param *.playgroundWidth 400m
param *.playgroundHeight 200m
param *.channelController.connectionColor "\"#0000FF40\""
param *.channelController.showConnections false
param *.uav[*].modelURL "\"quadrocopter.small.obj.15.scale.0,0,90.rot\""
param *.uav[*].labelColor "\"#FF7C00CC\""
param *.uav[*].label2Color "\"#FF7C00EE\""
param *.uav[*].batteryCapacity 5200mAh
param *.uav[*].batteryRemaining uav[index].batteryCapacity
param *.uav[*].predictionQuantile 0.95
param *.uav[*].replacementMethod 2
param *.uav[*].weightedSumWeight 0.5
param *.cs[*].modelURL "\"chargingstation_v1.osgt.2.scale.0,0,0.rot.0,0,-15e-1.trans\""
param *.cs[*].spotsWaiting 999
param *.cs[*].spotsCharging 999
param *.cs[*].chargeEffectivenessPercentage 100
param *.cs[*].nonLinearPhaseStartPercentage 85
param *.cs[*].chargeCurrent 6.0A
param *.cs[*].prioritizeFastCharge true
param *.missionControl.replacementSearchMethod 0
param *.*.timeStep 9s

scalar OsgEarthNet.uav[0] utilizationSecMission 190163.0937262
scalar OsgEarthNet.uav[0] utilizationSecMaintenance 110899.47332165
scalar OsgEarthNet.uav[0] utilizationSecCharge 905628.85129528
scalar OsgEarthNet.uav[0] utilizationSecIdle 2908.5806568717
scalar OsgEarthNet.uav[0] utilizationEnergyMission 923062.78523254
scalar OsgEarthNet.uav[0] utilizationEnergyMaintenance 521359.05402756
scalar OsgEarthNet.uav[0] utilizationEnergyCharge 1446236.7446289
scalar OsgEarthNet.uav[0] utilizationEnergyOverdrawMission 0
scalar OsgEarthNet.uav[0] utilizationEnergyOverdrawMaintenance 0
scalar OsgEarthNet.uav[0] utilizationCountMissions 337
scalar OsgEarthNet.uav[0] utilizationCountManeuversMission 6145
scalar OsgEarthNet.uav[0] utilizationCountManeuversMaintenance 674
scalar OsgEarthNet.uav[0] utilizationCountChargeState 337
scalar OsgEarthNet.uav[0] utilizationCountOverdrawnAfterMission 0
scalar OsgEarthNet.uav[0] utilizationCountIdleState 1
scalar OsgEarthNet.uav[0] utilizationFail 0
scalar OsgEarthNet.uav[0] simulationTime 1209600
scalar OsgEarthNet.uav[1] utilizationSecMission 187396.28408212
scalar OsgEarthNet.uav[1] utilizationSecMaintenance 107476.39883605
scalar OsgEarthNet.uav[1] utilizationSecCharge 912310
scalar OsgEarthNet.uav[1] utilizationSecIdle 2417.3160818306
scalar OsgEarthNet.uav[1] utilizationEnergyMission 904924.49707766
scalar OsgEarthNet.uav[1] utilizationEnergyMaintenance 508175.93516159
scalar OsgEarthNet.uav[1] utilizationEnergyCharge 1411721.4543457
scalar OsgEarthNet.uav[1] utilizationEnergyOverdrawMission 0
scalar OsgEarthNet.uav[1] utilizationEnergyOverdrawMaintenance 0
scalar OsgEarthNet.uav[1] utilizationCountMissions 340
scalar OsgEarthNet.uav[1] utilizationCountManeuversMission 5614
scalar OsgEarthNet.uav[1] utilizationCountManeuversMaintenance 681
scalar OsgEarthNet.uav[1] utilizationCountChargeState 340
scalar OsgEarthNet.uav[1] utilizationCountOverdrawnAfterMission 0
scalar OsgEarthNet.uav[1] utilizationCountIdleState 1
scalar OsgEarthNet.uav[1] utilizationFail 0
scalar OsgEarthNet.uav[1] simulationTime 1209600
scalar OsgEarthNet.uav[2] utilizationSecMission 198500.26266477
scalar OsgEarthNet.uav[2] utilizationSecMaintenance 100117.73633523
scalar OsgEarthNet.uav[2] utilizationSecCharge 910940
scalar OsgEarthNet.uav[2] utilizationSecIdle 42
scalar OsgEarthNet.uav[2] utilizationEnergyMission 963200.65842357
scalar OsgEarthNet.uav[2] utilizationEnergyMaintenance 467002.27060699
scalar OsgEarthNet.uav[2] utilizationEnergyCharge 1425600.5036621
scalar OsgEarthNet.uav[2] utilizationEnergyOverdrawMission 0
scalar OsgEarthNet.uav[2] utilizationEnergyOverdrawMaintenance 0
scalar OsgEarthNet.uav[2] utilizationCountMissions 330
scalar OsgEarthNet.uav[2] utilizationCountManeuversMission 6109
scalar OsgEarthNet.uav[2] utilizationCountManeuversMaintenance 661
scalar OsgEarthNet.uav[2] utilizationCountChargeState 330
scalar OsgEarthNet.uav[2] utilizationCountOverdrawnAfterMission 0
scalar OsgEarthNet.uav[2] utilizationCountIdleState 2
scalar OsgEarthNet.uav[2] utilizationFail 0
scalar OsgEarthNet.uav[2] simulationTime 1209600
scalar OsgEarthNet.uav[3] utilizationSecMission 188640.08690154
scalar OsgEarthNet.uav[3] utilizationSecMaintenance 109532.78935655
scalar OsgEarthNet.uav[3] utilizationSecCharge 908594.97800196
scalar OsgEarthNet.uav[3] utilizationSecIdle 2832.1447399488
scalar OsgEarthNet.uav[3] utilizationEnergyMission 913156.41910934
scalar OsgEarthNet.uav[3] utilizationEnergyMaintenance 516437.52746582
scalar OsgEarthNet.uav[3] utilizationEnergyCharge 1425044.6813965
scalar OsgEarthNet.uav[3] utilizationEnergyOverdrawMission 0
scalar OsgEarthNet.uav[3] utilizationEnergyOverdrawMaintenance 0
scalar OsgEarthNet.uav[3] utilizationCountMissions 339
scalar OsgEarthNet.uav[3] utilizationCountManeuversMission 5726
scalar OsgEarthNet.uav[3] utilizationCountManeuversMaintenance 678
scalar OsgEarthNet.uav[3] utilizationCountChargeState 339
scalar OsgEarthNet.uav[3] utilizationCountOverdrawnAfterMission 0
scalar OsgEarthNet.uav[3] utilizationCountIdleState 1
scalar OsgEarthNet.uav[3] utilizationFail 0
scalar OsgEarthNet.uav[3] simulationTime 1209600
scalar OsgEarthNet.uav[4] utilizationSecMission 199176.51850642
scalar OsgEarthNet.uav[4] utilizationSecMaintenance 98248.038404886
scalar OsgEarthNet.uav[4] utilizationSecCharge 909890
scalar OsgEarthNet.uav[4] utilizationSecIdle 2285.4420886909
scalar OsgEarthNet.uav[4] utilizationEnergyMission 964658.45850754
scalar OsgEarthNet.uav[4] utilizationEnergyMaintenance 461676.01947274
scalar OsgEarthNet.uav[4] utilizationEnergyCharge 1425960.2734375
scalar OsgEarthNet.uav[4] utilizationEnergyOverdrawMission 0
scalar OsgEarthNet.uav[4] utilizationEnergyOverdrawMaintenance 0
scalar OsgEarthNet.uav[4] utilizationCountMissions 329
scalar OsgEarthNet.uav[4] utilizationCountManeuversMission 6145
scalar OsgEarthNet.uav[4] utilizationCountManeuversMaintenance 659
scalar OsgEarthNet.uav[4] utilizationCountChargeState 329
scalar OsgEarthNet.uav[4] utilizationCountOverdrawnAfterMission 0
scalar OsgEarthNet.uav[4] utilizationCountIdleState 2
scalar OsgEarthNet.uav[4] utilizationFail 0
scalar OsgEarthNet.uav[4] simulationTime 1209600
scalar OsgEarthNet.uav[5] utilizationSecMission 195917.08783034
scalar OsgEarthNet.uav[5] utilizationSecMaintenance 100855.63389646
scalar OsgEarthNet.uav[5] utilizationSecCharge 912635.27727319
scalar OsgEarthNet.uav[5] utilizationSecIdle 192
scalar OsgEarthNet.uav[5] utilizationEnergyMission 949230.9457016
scalar OsgEarthNet.uav[5] utilizationEnergyMaintenance 472340.68514252
scalar OsgEarthNet.uav[5] utilizationEnergyCharge 1414232.6659546
scalar OsgEarthNet.uav[5] utilizationEnergyOverdrawMission 0
scalar OsgEarthNet.uav[5] utilizationEnergyOverdrawMaintenance 0
scalar OsgEarthNet.uav[5] utilizationCountMissions 332
scalar OsgEarthNet.uav[5] utilizationCountManeuversMission 6147
scalar OsgEarthNet.uav[5] utilizationCountManeuversMaintenance 664
scalar OsgEarthNet.uav[5] utilizationCountChargeState 332
scalar OsgEarthNet.uav[5] utilizationCountOverdrawnAfterMission 0
scalar OsgEarthNet.uav[5] utilizationCountIdleState 4
scalar OsgEarthNet.uav[5] utilizationFail 0
scalar OsgEarthNet.uav[5] simulationTime 1209600
scalar OsgEarthNet.uav[6] utilizationSecMission 197280.75828582
scalar OsgEarthNet.uav[6] utilizationSecMaintenance 103167.24071418
scalar OsgEarthNet.uav[6] utilizationSecCharge 909150
scalar OsgEarthNet.uav[6] utilizationSecIdle 2
scalar OsgEarthNet.uav[6] utilizationEnergyMission 959646.22853851
scalar OsgEarthNet.uav[6] utilizationEnergyMaintenance 484769.69974375
scalar OsgEarthNet.uav[6] utilizationEnergyCharge 1439821.1904297
scalar OsgEarthNet.uav[6] utilizationEnergyOverdrawMission 0
scalar OsgEarthNet.uav[6] utilizationEnergyOverdrawMaintenance 0
scalar OsgEarthNet.uav[6] utilizationCountMissions 333
scalar OsgEarthNet.uav[6] utilizationCountManeuversMission 6224
scalar OsgEarthNet.uav[6] utilizationCountManeuversMaintenance 666
scalar OsgEarthNet.uav[6] utilizationCountChargeState 333
scalar OsgEarthNet.uav[6] utilizationCountOverdrawnAfterMission 0
scalar OsgEarthNet.uav[6] utilizationCountIdleState 1
scalar OsgEarthNet.uav[6] utilizationFail 0
scalar OsgEarthNet.uav[6] simulationTime 1209600
scalar OsgEarthNet.uav[7] utilizationSecMission 182341.74784902
scalar OsgEarthNet.uav[7] utilizationSecMaintenance 114498.67880348
scalar OsgEarthNet.uav[7] utilizationSecCharge 910761.57249684
scalar OsgEarthNet.uav[7] utilizationSecIdle 1997.9998506628
scalar OsgEarthNet.uav[7] utilizationEnergyMission 874792.04106522
scalar OsgEarthNet.uav[7] utilizationEnergyMaintenance 542694.4240036
scalar OsgEarthNet.uav[7] utilizationEnergyCharge 1417529.5158691
scalar OsgEarthNet.uav[7] utilizationEnergyOverdrawMission 0
scalar OsgEarthNet.uav[7] utilizationEnergyOverdrawMaintenance 0
scalar OsgEarthNet.uav[7] utilizationCountMissions 345
scalar OsgEarthNet.uav[7] utilizationCountManeuversMission 5320
scalar OsgEarthNet.uav[7] utilizationCountManeuversMaintenance 690
scalar OsgEarthNet.uav[7] utilizationCountChargeState 345
scalar OsgEarthNet.uav[7] utilizationCountOverdrawnAfterMission 0
scalar OsgEarthNet.uav[7] utilizationCountIdleState 1
scalar OsgEarthNet.uav[7] utilizationFail 0
scalar OsgEarthNet.uav[7] simulationTime 1209600
scalar OsgEarthNet.uav[8] utilizationSecMission 186850.86602739
scalar OsgEarthNet.uav[8] utilizationSecMaintenance 110302.54688857
scalar OsgEarthNet.uav[8] utilizationSecCharge 911757.36647013
scalar OsgEarthNet.uav[8] utilizationSecIdle 689.21961391566
scalar OsgEarthNet.uav[8] utilizationEnergyMission 906862.96886826
scalar OsgEarthNet.uav[8] utilizationEnergyMaintenance 518930.51466751
scalar OsgEarthNet.uav[8] utilizationEnergyCharge 1421463.4697266
scalar OsgEarthNet.uav[8] utilizationEnergyOverdrawMission 0
scalar OsgEarthNet.uav[8] utilizationEnergyOverdrawMaintenance 0
scalar OsgEarthNet.uav[8] utilizationCountMissions 339
scalar OsgEarthNet.uav[8] utilizationCountManeuversMission 5899
scalar OsgEarthNet.uav[8] utilizationCountManeuversMaintenance 678
scalar OsgEarthNet.uav[8] utilizationCountChargeState 339
scalar OsgEarthNet.uav[8] utilizationCountOverdrawnAfterMission 0
scalar OsgEarthNet.uav[8] utilizationCountIdleState 1
scalar OsgEarthNet.uav[8] utilizationFail 0
scalar OsgEarthNet.uav[8] simulationTime 1209600
scalar OsgEarthNet.uav[9] utilizationSecMission 196714.07382772
scalar OsgEarthNet.uav[9] utilizationSecMaintenance 105299.91707134
scalar OsgEarthNet.uav[9] utilizationSecCharge 904362.61598341
scalar OsgEarthNet.uav[9] utilizationSecIdle 3223.3921175336
scalar OsgEarthNet.uav[9] utilizationEnergyMission 953611.87710953
scalar OsgEarthNet.uav[9] utilizationEnergyMaintenance 495774.29862213
scalar OsgEarthNet.uav[9] utilizationEnergyCharge 1442178.546936
scalar OsgEarthNet.uav[9] utilizationEnergyOverdrawMission 0
scalar OsgEarthNet.uav[9] utilizationEnergyOverdrawMaintenance 0
scalar OsgEarthNet.uav[9] utilizationCountMissions 333
scalar OsgEarthNet.uav[9] utilizationCountManeuversMission 6073
scalar OsgEarthNet.uav[9] utilizationCountManeuversMaintenance 666
scalar OsgEarthNet.uav[9] utilizationCountChargeState 333
scalar OsgEarthNet.uav[9] utilizationCountOverdrawnAfterMission 0
scalar OsgEarthNet.uav[9] utilizationCountIdleState 2
scalar OsgEarthNet.uav[9] utilizationFail 0
scalar OsgEarthNet.uav[9] simulationTime 1209600
scalar OsgEarthNet.uav[10] utilizationSecMission 201668.94653841
scalar OsgEarthNet.uav[10] utilizationSecMaintenance 97437.783500397
scalar OsgEarthNet.uav[10] utilizationSecCharge 907435.88249971
scalar OsgEarthNet.uav[10] utilizationSecIdle 3057.3864614769
scalar OsgEarthNet.uav[10] utilizationEnergyMission 973481.27262878
scalar OsgEarthNet.uav[10] utilizationEnergyMaintenance 454146.66256714
scalar OsgEarthNet.uav[10] utilizationEnergyCharge 1430963.1108398
scalar OsgEarthNet.uav[10] utilizationEnergyOverdrawMission 0
scalar OsgEarthNet.uav[10] utilizationEnergyOverdrawMaintenance 0
scalar OsgEarthNet.uav[10] utilizationCountMissions 326
scalar OsgEarthNet.uav[10] utilizationCountManeuversMission 6262
scalar OsgEarthNet.uav[10] utilizationCountManeuversMaintenance 652
scalar OsgEarthNet.uav[10] utilizationCountChargeState 326
scalar OsgEarthNet.uav[10] utilizationCountOverdrawnAfterMission 0
scalar OsgEarthNet.uav[10] utilizationCountIdleState 2
scalar OsgEarthNet.uav[10] utilizationFail 0
scalar OsgEarthNet.uav[10] simulationTime 1209600
scalar OsgEarthNet.uav[11] utilizationSecMission 191278.12500548
scalar OsgEarthNet.uav[11] utilizationSecMaintenance 107907.38971877
scalar OsgEarthNet.uav[11] utilizationSecCharge 910392.48427575
scalar OsgEarthNet.uav[11] utilizationSecIdle 22
scalar OsgEarthNet.uav[11] utilizationEnergyMission 930863.06744766
scalar OsgEarthNet.uav[11] utilizationEnergyMaintenance 506864.00971222
scalar OsgEarthNet.uav[11] utilizationEnergyCharge 1434594.8145752
scalar OsgEarthNet.uav[11] utilizationEnergyOverdrawMission 0
scalar OsgEarthNet.uav[11] utilizationEnergyOverdrawMaintenance 0
scalar OsgEarthNet.uav[11] utilizationCountMissions 338
scalar OsgEarthNet.uav[11] utilizationCountManeuversMission 6219
scalar OsgEarthNet.uav[11] utilizationCountManeuversMaintenance 675
scalar OsgEarthNet.uav[11] utilizationCountChargeState 338
scalar OsgEarthNet.uav[11] utilizationCountOverdrawnAfterMission 0
scalar OsgEarthNet.uav[11] utilizationCountIdleState 2
scalar OsgEarthNet.uav[11] utilizationFail 0
scalar OsgEarthNet.uav[11] simulationTime 1209600
scalar OsgEarthNet.uav[12] utilizationSecMission 187550.64155931
scalar OsgEarthNet.uav[12] utilizationSecMaintenance 111953.12270547
scalar OsgEarthNet.uav[12] utilizationSecCharge 909328.78447118
scalar OsgEarthNet.uav[12] utilizationSecIdle 767.4502640309
scalar OsgEarthNet.uav[12] utilizationEnergyMission 910248.12519836
scalar OsgEarthNet.uav[12] utilizationEnergyMaintenance 528397.59789276
scalar OsgEarthNet.uav[12] utilizationEnergyCharge 1435548.6972656
scalar OsgEarthNet.uav[12] utilizationEnergyOverdrawMission 0
scalar OsgEarthNet.uav[12] utilizationEnergyOverdrawMaintenance 0
scalar OsgEarthNet.uav[12] utilizationCountMissions 341
scalar OsgEarthNet.uav[12] utilizationCountManeuversMission 5629
scalar OsgEarthNet.uav[12] utilizationCountManeuversMaintenance 682
scalar OsgEarthNet.uav[12] utilizationCountChargeState 341
scalar OsgEarthNet.uav[12] utilizationCountOverdrawnAfterMission 0
scalar OsgEarthNet.uav[12] utilizationCountIdleState 1
scalar OsgEarthNet.uav[12] utilizationFail 0
scalar OsgEarthNet.uav[12] simulationTime 1209600
scalar OsgEarthNet.uav[13] utilizationSecMission 186313.73822316
scalar OsgEarthNet.uav[13] utilizationSecMaintenance 105525.31252118
scalar OsgEarthNet.uav[13] utilizationSecCharge 915220
scalar OsgEarthNet.uav[13] utilizationSecIdle 2540.9482556647
scalar OsgEarthNet.uav[13] utilizationEnergyMission 892524.93097173
scalar OsgEarthNet.uav[13] utilizationEnergyMaintenance 499917.18615341
scalar OsgEarthNet.uav[13] utilizationEnergyCharge 1394830.6787109
scalar OsgEarthNet.uav[13] utilizationEnergyOverdrawMission 0
scalar OsgEarthNet.uav[13] utilizationEnergyOverdrawMaintenance 0
scalar OsgEarthNet.uav[13] utilizationCountMissions 338
scalar OsgEarthNet.uav[13] utilizationCountManeuversMission 5307
scalar OsgEarthNet.uav[13] utilizationCountManeuversMaintenance 677
scalar OsgEarthNet.uav[13] utilizationCountChargeState 338
scalar OsgEarthNet.uav[13] utilizationCountOverdrawnAfterMission 0
scalar OsgEarthNet.uav[13] utilizationCountIdleState 1
scalar OsgEarthNet.uav[13] utilizationFail 0
scalar OsgEarthNet.uav[13] simulationTime 1209600
scalar OsgEarthNet.uav[14] utilizationSecMission 186657.68125674
scalar OsgEarthNet.uav[14] utilizationSecMaintenance 110212.00149383
scalar OsgEarthNet.uav[14] utilizationSecCharge 910588.31224943
scalar OsgEarthNet.uav[14] utilizationSecIdle 2142.004
scalar OsgEarthNet.uav[14] utilizationEnergyMission 909436.68235779
scalar OsgEarthNet.uav[14] utilizationEnergyMaintenance 519130.15866852
scalar OsgEarthNet.uav[14] utilizationEnergyCharge 1425545.3000488
scalar OsgEarthNet.uav[14] utilizationEnergyOverdrawMission 0
scalar OsgEarthNet.uav[14] utilizationEnergyOverdrawMaintenance 0
scalar OsgEarthNet.uav[14] utilizationCountMissions 340
scalar OsgEarthNet.uav[14] utilizationCountManeuversMission 5808
scalar OsgEarthNet.uav[14] utilizationCountManeuversMaintenance 680
scalar OsgEarthNet.uav[14] utilizationCountChargeState 340
scalar OsgEarthNet.uav[14] utilizationCountOverdrawnAfterMission 0
scalar OsgEarthNet.uav[14] utilizationCountIdleState 1
scalar OsgEarthNet.uav[14] utilizationFail 0
scalar OsgEarthNet.uav[14] simulationTime 1209600
scalar OsgEarthNet.uav[15] utilizationSecMission 190597.36424416
scalar OsgEarthNet.uav[15] utilizationSecMaintenance 110972.34582645
scalar OsgEarthNet.uav[15] utilizationSecCharge 906708.28692939
scalar OsgEarthNet.uav[15] utilizationSecIdle 1322.002
scalar OsgEarthNet.uav[15] utilizationEnergyMission 928822.80382919
scalar OsgEarthNet.uav[15] utilizationEnergyMaintenance 524099.85602951
scalar OsgEarthNet.uav[15] utilizationEnergyCharge 1453085.8608398
scalar OsgEarthNet.uav[15] utilizationEnergyOverdrawMission 0
scalar OsgEarthNet.uav[15] utilizationEnergyOverdrawMaintenance 0
scalar OsgEarthNet.uav[15] utilizationCountMissions 336
scalar OsgEarthNet.uav[15] utilizationCountManeuversMission 6478
scalar OsgEarthNet.uav[15] utilizationCountManeuversMaintenance 672
scalar OsgEarthNet.uav[15] utilizationCountChargeState 336
scalar OsgEarthNet.uav[15] utilizationCountOverdrawnAfterMission 0
scalar OsgEarthNet.uav[15] utilizationCountIdleState 1
scalar OsgEarthNet.uav[15] utilizationFail 0
scalar OsgEarthNet.uav[15] simulationTime 1209600
scalar OsgEarthNet.uav[16] utilizationSecMission 201258.29246396
scalar OsgEarthNet.uav[16] utilizationSecMaintenance 97000.791583516
scalar OsgEarthNet.uav[16] utilizationSecCharge 908209.96569686
scalar OsgEarthNet.uav[16] utilizationSecIdle 3130.9492556647
scalar OsgEarthNet.uav[16] utilizationEnergyMission 974337.8936615
scalar OsgEarthNet.uav[16] utilizationEnergyMaintenance 451000.45082474
scalar OsgEarthNet.uav[16] utilizationEnergyCharge 1423314.6379395
scalar OsgEarthNet.uav[16] utilizationEnergyOverdrawMission 0
scalar OsgEarthNet.uav[16] utilizationEnergyOverdrawMaintenance 0
scalar OsgEarthNet.uav[16] utilizationCountMissions 327
scalar OsgEarthNet.uav[16] utilizationCountManeuversMission 6434
scalar OsgEarthNet.uav[16] utilizationCountManeuversMaintenance 654
scalar OsgEarthNet.uav[16] utilizationCountChargeState 327
scalar OsgEarthNet.uav[16] utilizationCountOverdrawnAfterMission 0
scalar OsgEarthNet.uav[16] utilizationCountIdleState 4
scalar OsgEarthNet.uav[16] utilizationFail 0
scalar OsgEarthNet.uav[16] simulationTime 1209600
scalar OsgEarthNet.uav[17] utilizationSecMission 181900.58790375
scalar OsgEarthNet.uav[17] utilizationSecMaintenance 115417.41009625
scalar OsgEarthNet.uav[17] utilizationSecCharge 911760
scalar OsgEarthNet.uav[17] utilizationSecIdle 522.001
scalar OsgEarthNet.uav[17] utilizationEnergyMission 883617.7061927
scalar OsgEarthNet.uav[17] utilizationEnergyMaintenance 546512.89318085
scalar OsgEarthNet.uav[17] utilizationEnergyCharge 1424718.0158691
scalar OsgEarthNet.uav[17] utilizationEnergyOverdrawMission 0
scalar OsgEarthNet.uav[17] utilizationEnergyOverdrawMaintenance 0
scalar OsgEarthNet.uav[17] utilizationCountMissions 344
scalar OsgEarthNet.uav[17] utilizationCountManeuversMission 5723
scalar OsgEarthNet.uav[17] utilizationCountManeuversMaintenance 689
scalar OsgEarthNet.uav[17] utilizationCountChargeState 344
scalar OsgEarthNet.uav[17] utilizationCountOverdrawnAfterMission 0
scalar OsgEarthNet.uav[17] utilizationCountIdleState 1
scalar OsgEarthNet.uav[17] utilizationFail 0
scalar OsgEarthNet.uav[17] simulationTime 1209600
scalar OsgEarthNet.uav[18] utilizationSecMission 191684.99853538
scalar OsgEarthNet.uav[18] utilizationSecMaintenance 104098.6502438
scalar OsgEarthNet.uav[18] utilizationSecCharge 911980
scalar OsgEarthNet.uav[18] utilizationSecIdle 1836.3502208215
scalar OsgEarthNet.uav[18] utilizationEnergyMission 930024.42272672
scalar OsgEarthNet.uav[18] utilizationEnergyMaintenance 489416.77283096
scalar OsgEarthNet.uav[18] utilizationEnergyCharge 1416522.3508301
scalar OsgEarthNet.uav[18] utilizationEnergyOverdrawMission 0
scalar OsgEarthNet.uav[18] utilizationEnergyOverdrawMaintenance 0
scalar OsgEarthNet.uav[18] utilizationCountMissions 335
scalar OsgEarthNet.uav[18] utilizationCountManeuversMission 5736
scalar OsgEarthNet.uav[18] utilizationCountManeuversMaintenance 671
scalar OsgEarthNet.uav[18] utilizationCountChargeState 335
scalar OsgEarthNet.uav[18] utilizationCountOverdrawnAfterMission 0
scalar OsgEarthNet.uav[18] utilizationCountIdleState 2
scalar OsgEarthNet.uav[18] utilizationFail 0
scalar OsgEarthNet.uav[18] simulationTime 1209600
scalar OsgEarthNet.uav[19] utilizationSecMission 187458.19866964
scalar OsgEarthNet.uav[19] utilizationSecMaintenance 113049.79933036
scalar OsgEarthNet.uav[19] utilizationSecCharge 908610
scalar OsgEarthNet.uav[19] utilizationSecIdle 482.001
scalar OsgEarthNet.uav[19] utilizationEnergyMission 919626.14484961
scalar OsgEarthNet.uav[19] utilizationEnergyMaintenance 528409.9103775
scalar OsgEarthNet.uav[19] utilizationEnergyCharge 1446169.8220215
scalar OsgEarthNet.uav[19] utilizationEnergyOverdrawMission 0
scalar OsgEarthNet.uav[19] utilizationEnergyOverdrawMaintenance 0
scalar OsgEarthNet.uav[19] utilizationCountMissions 339
scalar OsgEarthNet.uav[19] utilizationCountManeuversMission 6356
scalar OsgEarthNet.uav[19] utilizationCountManeuversMaintenance 679
scalar OsgEarthNet.uav[19] utilizationCountChargeState 339
scalar OsgEarthNet.uav[19] utilizationCountOverdrawnAfterMission 0
scalar OsgEarthNet.uav[19] utilizationCountIdleState 1
scalar OsgEarthNet.uav[19] utilizationFail 0
scalar OsgEarthNet.uav[19] simulationTime 1209600
scalar OsgEarthNet.uav[20] utilizationSecMission 192534.58912786
scalar OsgEarthNet.uav[20] utilizationSecMaintenance 103578.12390813
scalar OsgEarthNet.uav[20] utilizationSecCharge 912545.28396401
scalar OsgEarthNet.uav[20] utilizationSecIdle 942.002
scalar OsgEarthNet.uav[20] utilizationEnergyMission 935195.93880844
scalar OsgEarthNet.uav[20] utilizationEnergyMaintenance 488570.35062408
scalar OsgEarthNet.uav[20] utilizationEnergyCharge 1422914.3723145
scalar OsgEarthNet.uav[20] utilizationEnergyOverdrawMission 0
scalar OsgEarthNet.uav[20] utilizationEnergyOverdrawMaintenance 0
scalar OsgEarthNet.uav[20] utilizationCountMissions 333
scalar OsgEarthNet.uav[20] utilizationCountManeuversMission 6206
scalar OsgEarthNet.uav[20] utilizationCountManeuversMaintenance 666
scalar OsgEarthNet.uav[20] utilizationCountChargeState 333
scalar OsgEarthNet.uav[20] utilizationCountOverdrawnAfterMission 0
scalar OsgEarthNet.uav[20] utilizationCountIdleState 1
scalar OsgEarthNet.uav[20] utilizationFail 0
scalar OsgEarthNet.uav[20] simulationTime 1209600
scalar OsgEarthNet.uav[21] utilizationSecMission 188727.73846622
scalar OsgEarthNet.uav[21] utilizationSecMaintenance 108499.61760399
scalar OsgEarthNet.uav[21] utilizationSecCharge 909852.84271105
scalar OsgEarthNet.uav[21] utilizationSecIdle 2519.8002187448
scalar OsgEarthNet.uav[21] utilizationEnergyMission 915582.54068375
scalar OsgEarthNet.uav[21] utilizationEnergyMaintenance 510780.63700485
scalar OsgEarthNet.uav[21] utilizationEnergyCharge 1423708.737793
scalar OsgEarthNet.uav[21] utilizationEnergyOverdrawMission 0
scalar OsgEarthNet.uav[21] utilizationEnergyOverdrawMaintenance 0
scalar OsgEarthNet.uav[21] utilizationCountMissions 334
scalar OsgEarthNet.uav[21] utilizationCountManeuversMission 5761
scalar OsgEarthNet.uav[21] utilizationCountManeuversMaintenance 668
scalar OsgEarthNet.uav[21] utilizationCountChargeState 334
scalar OsgEarthNet.uav[21] utilizationCountOverdrawnAfterMission 0
scalar OsgEarthNet.uav[21] utilizationCountIdleState 1
scalar OsgEarthNet.uav[21] utilizationFail 0
scalar OsgEarthNet.uav[21] simulationTime 1209600
scalar OsgEarthNet.uav[22] utilizationSecMission 203398.95961735
scalar OsgEarthNet.uav[22] utilizationSecMaintenance 96395.514306426
scalar OsgEarthNet.uav[22] utilizationSecCharge 909803.52507622
scalar OsgEarthNet.uav[22] utilizationSecIdle 2
scalar OsgEarthNet.uav[22] utilizationEnergyMission 989048.40688983
scalar OsgEarthNet.uav[22] utilizationEnergyMaintenance 448082.03918076
scalar OsgEarthNet.uav[22] utilizationEnergyCharge 1434640.7749023
scalar OsgEarthNet.uav[22] utilizationEnergyOverdrawMission 0
scalar OsgEarthNet.uav[22] utilizationEnergyOverdrawMaintenance 0
scalar OsgEarthNet.uav[22] utilizationCountMissions 327
scalar OsgEarthNet.uav[22] utilizationCountManeuversMission 6669
scalar OsgEarthNet.uav[22] utilizationCountManeuversMaintenance 653
scalar OsgEarthNet.uav[22] utilizationCountChargeState 327
scalar OsgEarthNet.uav[22] utilizationCountOverdrawnAfterMission 0
scalar OsgEarthNet.uav[22] utilizationCountIdleState 1
scalar OsgEarthNet.uav[22] utilizationFail 0
scalar OsgEarthNet.uav[22] simulationTime 1209600
scalar OsgEarthNet.uav[23] utilizationSecMission 192382.84640675
scalar OsgEarthNet.uav[23] utilizationSecMaintenance 106835.79401364
scalar OsgEarthNet.uav[23] utilizationSecCharge 910319.35857962
scalar OsgEarthNet.uav[23] utilizationSecIdle 62
scalar OsgEarthNet.uav[23] utilizationEnergyMission 942027.15839005
scalar OsgEarthNet.uav[23] utilizationEnergyMaintenance 499943.44145966
scalar OsgEarthNet.uav[23] utilizationEnergyCharge 1440705.3349609
scalar OsgEarthNet.uav[23] utilizationEnergyOverdrawMission 0
scalar OsgEarthNet.uav[23] utilizationEnergyOverdrawMaintenance 0
scalar OsgEarthNet.uav[23] utilizationCountMissions 334
scalar OsgEarthNet.uav[23] utilizationCountManeuversMission 6333
scalar OsgEarthNet.uav[23] utilizationCountManeuversMaintenance 668
scalar OsgEarthNet.uav[23] utilizationCountChargeState 334
scalar OsgEarthNet.uav[23] utilizationCountOverdrawnAfterMission 0
scalar OsgEarthNet.uav[23] utilizationCountIdleState 2
scalar OsgEarthNet.uav[23] utilizationFail 0
scalar OsgEarthNet.uav[23] simulationTime 1209600
scalar OsgEarthNet.uav[24] utilizationSecMission 196564.47991506
scalar OsgEarthNet.uav[24] utilizationSecMaintenance 102914.467394
scalar OsgEarthNet.uav[24] utilizationSecCharge 908195.61060225
scalar OsgEarthNet.uav[24] utilizationSecIdle 1925.4410886909
scalar OsgEarthNet.uav[24] utilizationEnergyMission 954610.65922928
scalar OsgEarthNet.uav[24] utilizationEnergyMaintenance 483278.55538177
scalar OsgEarthNet.uav[24] utilizationEnergyCharge 1428721.4316406
scalar OsgEarthNet.uav[24] utilizationEnergyOverdrawMission 0
scalar OsgEarthNet.uav[24] utilizationEnergyOverdrawMaintenance 0
scalar OsgEarthNet.uav[24] utilizationCountMissions 334
scalar OsgEarthNet.uav[24] utilizationCountManeuversMission 6100
scalar OsgEarthNet.uav[24] utilizationCountManeuversMaintenance 668
scalar OsgEarthNet.uav[24] utilizationCountChargeState 334
scalar OsgEarthNet.uav[24] utilizationCountOverdrawnAfterMission 0
scalar OsgEarthNet.uav[24] utilizationCountIdleState 2
scalar OsgEarthNet.uav[24] utilizationFail 0
scalar OsgEarthNet.uav[24] simulationTime 1209600
scalar OsgEarthNet.uav[25] utilizationSecMission 191993.12843023
scalar OsgEarthNet.uav[25] utilizationSecMaintenance 104511.24539003
scalar OsgEarthNet.uav[25] utilizationSecCharge 912206.45006932
scalar OsgEarthNet.uav[25] utilizationSecIdle 889.17511041073
scalar OsgEarthNet.uav[25] utilizationEnergyMission 926570.62969208
scalar OsgEarthNet.uav[25] utilizationEnergyMaintenance 491957.93544769
scalar OsgEarthNet.uav[25] utilizationEnergyCharge 1414339.7211914
scalar OsgEarthNet.uav[25] utilizationEnergyOverdrawMission 0
scalar OsgEarthNet.uav[25] utilizationEnergyOverdrawMaintenance 0
scalar OsgEarthNet.uav[25] utilizationCountMissions 337
scalar OsgEarthNet.uav[25] utilizationCountManeuversMission 5593
scalar OsgEarthNet.uav[25] utilizationCountManeuversMaintenance 674
scalar OsgEarthNet.uav[25] utilizationCountChargeState 337
scalar OsgEarthNet.uav[25] utilizationCountOverdrawnAfterMission 0
scalar OsgEarthNet.uav[25] utilizationCountIdleState 1
scalar OsgEarthNet.uav[25] utilizationFail 0
scalar OsgEarthNet.uav[25] simulationTime 1209600
scalar OsgEarthNet.uav[26] utilizationSecMission 189783.78573371
scalar OsgEarthNet.uav[26] utilizationSecMaintenance 108891.10080262
scalar OsgEarthNet.uav[26] utilizationSecCharge 908471.52180196
scalar OsgEarthNet.uav[26] utilizationSecIdle 2453.5906617084
scalar OsgEarthNet.uav[26] utilizationEnergyMission 924626.6978569
scalar OsgEarthNet.uav[26] utilizationEnergyMaintenance 512722.79584503
scalar OsgEarthNet.uav[26] utilizationEnergyCharge 1429980.6137695
scalar OsgEarthNet.uav[26] utilizationEnergyOverdrawMission 0
scalar OsgEarthNet.uav[26] utilizationEnergyOverdrawMaintenance 0
scalar OsgEarthNet.uav[26] utilizationCountMissions 337
scalar OsgEarthNet.uav[26] utilizationCountManeuversMission 6147
scalar OsgEarthNet.uav[26] utilizationCountManeuversMaintenance 674
scalar OsgEarthNet.uav[26] utilizationCountChargeState 337
scalar OsgEarthNet.uav[26] utilizationCountOverdrawnAfterMission 0
scalar OsgEarthNet.uav[26] utilizationCountIdleState 2
scalar OsgEarthNet.uav[26] utilizationFail 0
scalar OsgEarthNet.uav[26] simulationTime 1209600
scalar OsgEarthNet.uav[27] utilizationSecMission 188679.24593955
scalar OsgEarthNet.uav[27] utilizationSecMaintenance 103906.95486235
scalar OsgEarthNet.uav[27] utilizationSecCharge 916041.79669137
scalar OsgEarthNet.uav[27] utilizationSecIdle 972.00150672213
scalar OsgEarthNet.uav[27] utilizationEnergyMission 914264.79223633
scalar OsgEarthNet.uav[27] utilizationEnergyMaintenance 488994.47333527
scalar OsgEarthNet.uav[27] utilizationEnergyCharge 1399564.4863281
scalar OsgEarthNet.uav[27] utilizationEnergyOverdrawMission 0
scalar OsgEarthNet.uav[27] utilizationEnergyOverdrawMaintenance 0
scalar OsgEarthNet.uav[27] utilizationCountMissions 337
scalar OsgEarthNet.uav[27] utilizationCountManeuversMission 5649
scalar OsgEarthNet.uav[27] utilizationCountManeuversMaintenance 674
scalar OsgEarthNet.uav[27] utilizationCountChargeState 337
scalar OsgEarthNet.uav[27] utilizationCountOverdrawnAfterMission 0
scalar OsgEarthNet.uav[27] utilizationCountIdleState 3
scalar OsgEarthNet.uav[27] utilizationFail 0
scalar OsgEarthNet.uav[27] simulationTime 1209600
scalar OsgEarthNet.uav[28] utilizationSecMission 202792.64526799
scalar OsgEarthNet.uav[28] utilizationSecMaintenance 94436.953787332
scalar OsgEarthNet.uav[28] utilizationSecCharge 909868.39694467
scalar OsgEarthNet.uav[28] utilizationSecIdle 2502.003
scalar OsgEarthNet.uav[28] utilizationEnergyMission 974966.33634949
scalar OsgEarthNet.uav[28] utilizationEnergyMaintenance 441956.30828094
scalar OsgEarthNet.uav[28] utilizationEnergyCharge 1416095.914978
scalar OsgEarthNet.uav[28] utilizationEnergyOverdrawMission 0
scalar OsgEarthNet.uav[28] utilizationEnergyOverdrawMaintenance 0
scalar OsgEarthNet.uav[28] utilizationCountMissions 328
scalar OsgEarthNet.uav[28] utilizationCountManeuversMission 6027
scalar OsgEarthNet.uav[28] utilizationCountManeuversMaintenance 656
scalar OsgEarthNet.uav[28] utilizationCountChargeState 328
scalar OsgEarthNet.uav[28] utilizationCountOverdrawnAfterMission 0
scalar OsgEarthNet.uav[28] utilizationCountIdleState 5
scalar OsgEarthNet.uav[28] utilizationFail 0
scalar OsgEarthNet.uav[28] simulationTime 1209600
scalar OsgEarthNet.uav[29] utilizationSecMission 202017.10006278
scalar OsgEarthNet.uav[29] utilizationSecMaintenance 99266.727372563
scalar OsgEarthNet.uav[29] utilizationSecCharge 905873.40559932
scalar OsgEarthNet.uav[29] utilizationSecIdle 2442.765965339
scalar OsgEarthNet.uav[29] utilizationEnergyMission 979800.32107544
scalar OsgEarthNet.uav[29] utilizationEnergyMaintenance 462073.73151779
scalar OsgEarthNet.uav[29] utilizationEnergyCharge 1438350.1821289
scalar OsgEarthNet.uav[29] utilizationEnergyOverdrawMission 0
scalar OsgEarthNet.uav[29] utilizationEnergyOverdrawMaintenance 0
scalar OsgEarthNet.uav[29] utilizationCountMissions 329
scalar OsgEarthNet.uav[29] utilizationCountManeuversMission 6382
scalar OsgEarthNet.uav[29] utilizationCountManeuversMaintenance 658
scalar OsgEarthNet.uav[29] utilizationCountChargeState 329
scalar OsgEarthNet.uav[29] utilizationCountOverdrawnAfterMission 0
scalar OsgEarthNet.uav[29] utilizationCountIdleState 1
scalar OsgEarthNet.uav[29] utilizationFail 0
scalar OsgEarthNet.uav[29] simulationTime 1209600
scalar OsgEarthNet.uav[30] utilizationSecMission 184140.40915147
scalar OsgEarthNet.uav[30] utilizationSecMaintenance 113648.07173346
scalar OsgEarthNet.uav[30] utilizationSecCharge 908519.51111507
scalar OsgEarthNet.uav[30] utilizationSecIdle 3292.007
scalar OsgEarthNet.uav[30] utilizationEnergyMission 897561.35588455
scalar OsgEarthNet.uav[30] utilizationEnergyMaintenance 538040.03643799
scalar OsgEarthNet.uav[30] utilizationEnergyCharge 1426955.8000488
scalar OsgEarthNet.uav[30] utilizationEnergyOverdrawMission 0
scalar OsgEarthNet.uav[30] utilizationEnergyOverdrawMaintenance 0
scalar OsgEarthNet.uav[30] utilizationCountMissions 339
scalar OsgEarthNet.uav[30] utilizationCountManeuversMission 5994
scalar OsgEarthNet.uav[30] utilizationCountManeuversMaintenance 678
scalar OsgEarthNet.uav[30] utilizationCountChargeState 339
scalar OsgEarthNet.uav[30] utilizationCountOverdrawnAfterMission 0
scalar OsgEarthNet.uav[30] utilizationCountIdleState 2
scalar OsgEarthNet.uav[30] utilizationFail 0
scalar OsgEarthNet.uav[30] simulationTime 1209600
scalar OsgEarthNet.uav[31] utilizationSecMission 189952.0615888
scalar OsgEarthNet.uav[31] utilizationSecMaintenance 105882.04812366
scalar OsgEarthNet.uav[31] utilizationSecCharge 912264.92530187
scalar OsgEarthNet.uav[31] utilizationSecIdle 1500.9639856735
scalar OsgEarthNet.uav[31] utilizationEnergyMission 917739.78900909
scalar OsgEarthNet.uav[31] utilizationEnergyMaintenance 497946.41222763
scalar OsgEarthNet.uav[31] utilizationEnergyCharge 1415829.2412109
scalar OsgEarthNet.uav[31] utilizationEnergyOverdrawMission 0
scalar OsgEarthNet.uav[31] utilizationEnergyOverdrawMaintenance 0
scalar OsgEarthNet.uav[31] utilizationCountMissions 336
scalar OsgEarthNet.uav[31] utilizationCountManeuversMission 5910
scalar OsgEarthNet.uav[31] utilizationCountManeuversMaintenance 672
scalar OsgEarthNet.uav[31] utilizationCountChargeState 336
scalar OsgEarthNet.uav[31] utilizationCountOverdrawnAfterMission 0
scalar OsgEarthNet.uav[31] utilizationCountIdleState 1
scalar OsgEarthNet.uav[31] utilizationFail 0
scalar OsgEarthNet.uav[31] simulationTime 1209600
scalar OsgEarthNet.uav[32] utilizationSecMission 205643.85416511
scalar OsgEarthNet.uav[32] utilizationSecMaintenance 95127.974203219
scalar OsgEarthNet.uav[32] utilizationSecCharge 907388.74528438
scalar OsgEarthNet.uav[32] utilizationSecIdle 1439.4253472904
scalar OsgEarthNet.uav[32] utilizationEnergyMission 999345.68354034
scalar OsgEarthNet.uav[32] utilizationEnergyMaintenance 442130.75279999
scalar OsgEarthNet.uav[32] utilizationEnergyCharge 1439224.1525879
scalar OsgEarthNet.uav[32] utilizationEnergyOverdrawMission 0
scalar OsgEarthNet.uav[32] utilizationEnergyOverdrawMaintenance 0
scalar OsgEarthNet.uav[32] utilizationCountMissions 326
scalar OsgEarthNet.uav[32] utilizationCountManeuversMission 6335
scalar OsgEarthNet.uav[32] utilizationCountManeuversMaintenance 652
scalar OsgEarthNet.uav[32] utilizationCountChargeState 326
scalar OsgEarthNet.uav[32] utilizationCountOverdrawnAfterMission 0
scalar OsgEarthNet.uav[32] utilizationCountIdleState 1
scalar OsgEarthNet.uav[32] utilizationFail 0
scalar OsgEarthNet.uav[32] simulationTime 1209600
scalar OsgEarthNet.uav[33] utilizationSecMission 181447.1924272
scalar OsgEarthNet.uav[33] utilizationSecMaintenance 113824.86024421
scalar OsgEarthNet.uav[33] utilizationSecCharge 912965.94332859
scalar OsgEarthNet.uav[33] utilizationSecIdle 1362.003
scalar OsgEarthNet.uav[33] utilizationEnergyMission 883205.55588531
scalar OsgEarthNet.uav[33] utilizationEnergyMaintenance 539090.96254349
scalar OsgEarthNet.uav[33] utilizationEnergyCharge 1418738.6936035
scalar OsgEarthNet.uav[33] utilizationEnergyOverdrawMission 0
scalar OsgEarthNet.uav[33] utilizationEnergyOverdrawMaintenance 0
scalar OsgEarthNet.uav[33] utilizationCountMissions 343
scalar OsgEarthNet.uav[33] utilizationCountManeuversMission 5804
scalar OsgEarthNet.uav[33] utilizationCountManeuversMaintenance 686
scalar OsgEarthNet.uav[33] utilizationCountChargeState 343
scalar OsgEarthNet.uav[33] utilizationCountOverdrawnAfterMission 0
scalar OsgEarthNet.uav[33] utilizationCountIdleState 1
scalar OsgEarthNet.uav[33] utilizationFail 0
scalar OsgEarthNet.uav[33] simulationTime 1209600
scalar OsgEarthNet.uav[34] utilizationSecMission 184141.0470865
scalar OsgEarthNet.uav[34] utilizationSecMaintenance 111100.2998443
scalar OsgEarthNet.uav[34] utilizationSecCharge 913584.04017969
scalar OsgEarthNet.uav[34] utilizationSecIdle 774.61188951643
scalar OsgEarthNet.uav[34] utilizationEnergyMission 891951.49821091
scalar OsgEarthNet.uav[34] utilizationEnergyMaintenance 524977.87397003
scalar OsgEarthNet.uav[34] utilizationEnergyCharge 1411480.6013184
scalar OsgEarthNet.uav[34] utilizationEnergyOverdrawMission 0
scalar OsgEarthNet.uav[34] utilizationEnergyOverdrawMaintenance 0
scalar OsgEarthNet.uav[34] utilizationCountMissions 338
scalar OsgEarthNet.uav[34] utilizationCountManeuversMission 5687
scalar OsgEarthNet.uav[34] utilizationCountManeuversMaintenance 676
scalar OsgEarthNet.uav[34] utilizationCountChargeState 338
scalar OsgEarthNet.uav[34] utilizationCountOverdrawnAfterMission 0
scalar OsgEarthNet.uav[34] utilizationCountIdleState 4
scalar OsgEarthNet.uav[34] utilizationFail 0
scalar OsgEarthNet.uav[34] simulationTime 1209600
scalar OsgEarthNet.uav[35] utilizationSecMission 201238.89965167
scalar OsgEarthNet.uav[35] utilizationSecMaintenance 99908.869279061
scalar OsgEarthNet.uav[35] utilizationSecCharge 907870.22906927
scalar OsgEarthNet.uav[35] utilizationSecIdle 582.001
scalar OsgEarthNet.uav[35] utilizationEnergyMission 976642.9429245
scalar OsgEarthNet.uav[35] utilizationEnergyMaintenance 466724.39606094
scalar OsgEarthNet.uav[35] utilizationEnergyCharge 1437519.3997803
scalar OsgEarthNet.uav[35] utilizationEnergyOverdrawMission 0
scalar OsgEarthNet.uav[35] utilizationEnergyOverdrawMaintenance 0
scalar OsgEarthNet.uav[35] utilizationCountMissions 330
scalar OsgEarthNet.uav[35] utilizationCountManeuversMission 6376
scalar OsgEarthNet.uav[35] utilizationCountManeuversMaintenance 660
scalar OsgEarthNet.uav[35] utilizationCountChargeState 330
scalar OsgEarthNet.uav[35] utilizationCountOverdrawnAfterMission 0
scalar OsgEarthNet.uav[35] utilizationCountIdleState 1
scalar OsgEarthNet.uav[35] utilizationFail 0
scalar OsgEarthNet.uav[35] simulationTime 1209600
scalar OsgEarthNet.uav[36] utilizationSecMission 204105.984009
scalar OsgEarthNet.uav[36] utilizationSecMaintenance 93511.432960338
scalar OsgEarthNet.uav[36] utilizationSecCharge 908814.49905087
scalar OsgEarthNet.uav[36] utilizationSecIdle 3168.0829797894
scalar OsgEarthNet.uav[36] utilizationEnergyMission 983200.76862335
scalar OsgEarthNet.uav[36] utilizationEnergyMaintenance 435477.23950577
scalar OsgEarthNet.uav[36] utilizationEnergyCharge 1415377.7116699
scalar OsgEarthNet.uav[36] utilizationEnergyOverdrawMission 0
scalar OsgEarthNet.uav[36] utilizationEnergyOverdrawMaintenance 0
scalar OsgEarthNet.uav[36] utilizationCountMissions 325
scalar OsgEarthNet.uav[36] utilizationCountManeuversMission 6460
scalar OsgEarthNet.uav[36] utilizationCountManeuversMaintenance 650
scalar OsgEarthNet.uav[36] utilizationCountChargeState 325
scalar OsgEarthNet.uav[36] utilizationCountOverdrawnAfterMission 0
scalar OsgEarthNet.uav[36] utilizationCountIdleState 3
scalar OsgEarthNet.uav[36] utilizationFail 0
scalar OsgEarthNet.uav[36] simulationTime 1209600
scalar OsgEarthNet.uav[37] utilizationSecMission 191475.50724006
scalar OsgEarthNet.uav[37] utilizationSecMaintenance 106346.49810891
scalar OsgEarthNet.uav[37] utilizationSecCharge 909899.64004815
scalar OsgEarthNet.uav[37] utilizationSecIdle 1878.3536028792
scalar OsgEarthNet.uav[37] utilizationEnergyMission 927013.29293823
scalar OsgEarthNet.uav[37] utilizationEnergyMaintenance 499908.39861298
scalar OsgEarthNet.uav[37] utilizationEnergyCharge 1420533.4822388
scalar OsgEarthNet.uav[37] utilizationEnergyOverdrawMission 0
scalar OsgEarthNet.uav[37] utilizationEnergyOverdrawMaintenance 0
scalar OsgEarthNet.uav[37] utilizationCountMissions 337
scalar OsgEarthNet.uav[37] utilizationCountManeuversMission 5984
scalar OsgEarthNet.uav[37] utilizationCountManeuversMaintenance 674
scalar OsgEarthNet.uav[37] utilizationCountChargeState 337
scalar OsgEarthNet.uav[37] utilizationCountOverdrawnAfterMission 0
scalar OsgEarthNet.uav[37] utilizationCountIdleState 3
scalar OsgEarthNet.uav[37] utilizationFail 0
scalar OsgEarthNet.uav[37] simulationTime 1209600
scalar OsgEarthNet.uav[38] utilizationSecMission 205960.42563695
scalar OsgEarthNet.uav[38] utilizationSecMaintenance 95347.57336305
scalar OsgEarthNet.uav[38] utilizationSecCharge 908270
scalar OsgEarthNet.uav[38] utilizationSecIdle 22
scalar OsgEarthNet.uav[38] utilizationEnergyMission 1000403.0685141
scalar OsgEarthNet.uav[38] utilizationEnergyMaintenance 439850.24767303
scalar OsgEarthNet.uav[38] utilizationEnergyCharge 1437876.8928223
scalar OsgEarthNet.uav[38] utilizationEnergyOverdrawMission 0
scalar OsgEarthNet.uav[38] utilizationEnergyOverdrawMaintenance 0
scalar OsgEarthNet.uav[38] utilizationCountMissions 325
scalar OsgEarthNet.uav[38] utilizationCountManeuversMission 6553
scalar OsgEarthNet.uav[38] utilizationCountManeuversMaintenance 650
scalar OsgEarthNet.uav[38] utilizationCountChargeState 325
scalar OsgEarthNet.uav[38] utilizationCountOverdrawnAfterMission 0
scalar OsgEarthNet.uav[38] utilizationCountIdleState 2
scalar OsgEarthNet.uav[38] utilizationFail 0
scalar OsgEarthNet.uav[38] simulationTime 1209600
scalar OsgEarthNet.uav[39] utilizationSecMission 203088.05055797
scalar OsgEarthNet.uav[39] utilizationSecMaintenance 96329.4866421
scalar OsgEarthNet.uav[39] utilizationSecCharge 906784.2796844
scalar OsgEarthNet.uav[39] utilizationSecIdle 3398.1821155351
scalar OsgEarthNet.uav[39] utilizationEnergyMission 987242.24018478
scalar OsgEarthNet.uav[39] utilizationEnergyMaintenance 448972.9042778
scalar OsgEarthNet.uav[39] utilizationEnergyCharge 1431181.8918457
scalar OsgEarthNet.uav[39] utilizationEnergyOverdrawMission 0
scalar OsgEarthNet.uav[39] utilizationEnergyOverdrawMaintenance 0
scalar OsgEarthNet.uav[39] utilizationCountMissions 326
scalar OsgEarthNet.uav[39] utilizationCountManeuversMission 6481
scalar OsgEarthNet.uav[39] utilizationCountManeuversMaintenance 652
scalar OsgEarthNet.uav[39] utilizationCountChargeState 326
scalar OsgEarthNet.uav[39] utilizationCountOverdrawnAfterMission 0
scalar OsgEarthNet.uav[39] utilizationCountIdleState 2
scalar OsgEarthNet.uav[39] utilizationFail 0
scalar OsgEarthNet.uav[39] simulationTime 1209600
scalar OsgEarthNet.uav[40] utilizationSecMission 182417.83353192
scalar OsgEarthNet.uav[40] utilizationSecMaintenance 119875.22474743
scalar OsgEarthNet.uav[40] utilizationSecCharge 905424.93672065
scalar OsgEarthNet.uav[40] utilizationSecIdle 1882.004
scalar OsgEarthNet.uav[40] utilizationEnergyMission 881646.621418
scalar OsgEarthNet.uav[40] utilizationEnergyMaintenance 570487.14693832
scalar OsgEarthNet.uav[40] utilizationEnergyCharge 1449909.958252
scalar OsgEarthNet.uav[40] utilizationEnergyOverdrawMission 0
scalar OsgEarthNet.uav[40] utilizationEnergyOverdrawMaintenance 0
scalar OsgEarthNet.uav[40] utilizationCountMissions 342
scalar OsgEarthNet.uav[40] utilizationCountManeuversMission 5759
scalar OsgEarthNet.uav[40] utilizationCountManeuversMaintenance 684
scalar OsgEarthNet.uav[40] utilizationCountChargeState 342
scalar OsgEarthNet.uav[40] utilizationCountOverdrawnAfterMission 0
scalar OsgEarthNet.uav[40] utilizationCountIdleState 3
scalar OsgEarthNet.uav[40] utilizationFail 0
scalar OsgEarthNet.uav[40] simulationTime 1209600
scalar OsgEarthNet.uav[41] utilizationSecMission 185923.99486535
scalar OsgEarthNet.uav[41] utilizationSecMaintenance 116433.20784931
scalar OsgEarthNet.uav[41] utilizationSecCharge 904400.79128534
scalar OsgEarthNet.uav[41] utilizationSecIdle 2842.005
scalar OsgEarthNet.uav[41] utilizationEnergyMission 901007.07582855
scalar OsgEarthNet.uav[41] utilizationEnergyMaintenance 549020.78087997
scalar OsgEarthNet.uav[41] utilizationEnergyCharge 1451648.137207
scalar OsgEarthNet.uav[41] utilizationEnergyOverdrawMission 0
scalar OsgEarthNet.uav[41] utilizationEnergyOverdrawMaintenance 0
scalar OsgEarthNet.uav[41] utilizationCountMissions 341
scalar OsgEarthNet.uav[41] utilizationCountManeuversMission 5921
scalar OsgEarthNet.uav[41] utilizationCountManeuversMaintenance 682
scalar OsgEarthNet.uav[41] utilizationCountChargeState 341
scalar OsgEarthNet.uav[41] utilizationCountOverdrawnAfterMission 0
scalar OsgEarthNet.uav[41] utilizationCountIdleState 2
scalar OsgEarthNet.uav[41] utilizationFail 0
scalar OsgEarthNet.uav[41] simulationTime 1209600
scalar OsgEarthNet.uav[42] utilizationSecMission 187690.45690653
scalar OsgEarthNet.uav[42] utilizationSecMaintenance 106763.90178919
scalar OsgEarthNet.uav[42] utilizationSecCharge 914483.63930428
scalar OsgEarthNet.uav[42] utilizationSecIdle 662.001
scalar OsgEarthNet.uav[42] utilizationEnergyMission 903123.97622299
scalar OsgEarthNet.uav[42] utilizationEnergyMaintenance 504381.47214889
scalar OsgEarthNet.uav[42] utilizationEnergyCharge 1405009.2954102
scalar OsgEarthNet.uav[42] utilizationEnergyOverdrawMission 0
scalar OsgEarthNet.uav[42] utilizationEnergyOverdrawMaintenance 0
scalar OsgEarthNet.uav[42] utilizationCountMissions 341
scalar OsgEarthNet.uav[42] utilizationCountManeuversMission 5438
scalar OsgEarthNet.uav[42] utilizationCountManeuversMaintenance 682
scalar OsgEarthNet.uav[42] utilizationCountChargeState 341
scalar OsgEarthNet.uav[42] utilizationCountOverdrawnAfterMission 0
scalar OsgEarthNet.uav[42] utilizationCountIdleState 1
scalar OsgEarthNet.uav[42] utilizationFail 0
scalar OsgEarthNet.uav[42] simulationTime 1209600
scalar OsgEarthNet.uav[43] utilizationSecMission 186283.82544273
scalar OsgEarthNet.uav[43] utilizationSecMaintenance 109754.16755727
scalar OsgEarthNet.uav[43] utilizationSecCharge 910680
scalar OsgEarthNet.uav[43] utilizationSecIdle 2882.006
scalar OsgEarthNet.uav[43] utilizationEnergyMission 903655.66245651
scalar OsgEarthNet.uav[43] utilizationEnergyMaintenance 518630.74874053
scalar OsgEarthNet.uav[43] utilizationEnergyCharge 1419170.9819336
scalar OsgEarthNet.uav[43] utilizationEnergyOverdrawMission 0
scalar OsgEarthNet.uav[43] utilizationEnergyOverdrawMaintenance 0
scalar OsgEarthNet.uav[43] utilizationCountMissions 338
scalar OsgEarthNet.uav[43] utilizationCountManeuversMission 5849
scalar OsgEarthNet.uav[43] utilizationCountManeuversMaintenance 676
scalar OsgEarthNet.uav[43] utilizationCountChargeState 337
scalar OsgEarthNet.uav[43] utilizationCountOverdrawnAfterMission 0
scalar OsgEarthNet.uav[43] utilizationCountIdleState 2
scalar OsgEarthNet.uav[43] utilizationFail 0
scalar OsgEarthNet.uav[43] simulationTime 1209600
scalar OsgEarthNet.uav[44] utilizationSecMission 190658.52524777
scalar OsgEarthNet.uav[44] utilizationSecMaintenance 108986.03066354
scalar OsgEarthNet.uav[44] utilizationSecCharge 907350
scalar OsgEarthNet.uav[44] utilizationSecIdle 2605.443088691
scalar OsgEarthNet.uav[44] utilizationEnergyMission 919569.65467991
scalar OsgEarthNet.uav[44] utilizationEnergyMaintenance 512250.38222885
scalar OsgEarthNet.uav[44] utilizationEnergyCharge 1428822.2397461
scalar OsgEarthNet.uav[44] utilizationEnergyOverdrawMission 0
scalar OsgEarthNet.uav[44] utilizationEnergyOverdrawMaintenance 0
scalar OsgEarthNet.uav[44] utilizationCountMissions 337
scalar OsgEarthNet.uav[44] utilizationCountManeuversMission 5899
scalar OsgEarthNet.uav[44] utilizationCountManeuversMaintenance 675
scalar OsgEarthNet.uav[44] utilizationCountChargeState 337
scalar OsgEarthNet.uav[44] utilizationCountOverdrawnAfterMission 0
scalar OsgEarthNet.uav[44] utilizationCountIdleState 1
scalar OsgEarthNet.uav[44] utilizationFail 0
scalar OsgEarthNet.uav[44] simulationTime 1209600
scalar OsgEarthNet.uav[45] utilizationSecMission 200101.35185852
scalar OsgEarthNet.uav[45] utilizationSecMaintenance 102117.69327535
scalar OsgEarthNet.uav[45] utilizationSecCharge 905191.32278547
scalar OsgEarthNet.uav[45] utilizationSecIdle 2189.6310806652
scalar OsgEarthNet.uav[45] utilizationEnergyMission 977624.68170547
scalar OsgEarthNet.uav[45] utilizationEnergyMaintenance 477086.38754654
scalar OsgEarthNet.uav[45] utilizationEnergyCharge 1450313.673584
scalar OsgEarthNet.uav[45] utilizationEnergyOverdrawMission 0
scalar OsgEarthNet.uav[45] utilizationEnergyOverdrawMaintenance 0
scalar OsgEarthNet.uav[45] utilizationCountMissions 331
scalar OsgEarthNet.uav[45] utilizationCountManeuversMission 6673
scalar OsgEarthNet.uav[45] utilizationCountManeuversMaintenance 662
scalar OsgEarthNet.uav[45] utilizationCountChargeState 331
scalar OsgEarthNet.uav[45] utilizationCountOverdrawnAfterMission 0
scalar OsgEarthNet.uav[45] utilizationCountIdleState 1
scalar OsgEarthNet.uav[45] utilizationFail 0
scalar OsgEarthNet.uav[45] simulationTime 1209600
scalar OsgEarthNet.uav[46] utilizationSecMission 183924.30874361
scalar OsgEarthNet.uav[46] utilizationSecMaintenance 109010.93629189
scalar OsgEarthNet.uav[46] utilizationSecCharge 916662.7539645
scalar OsgEarthNet.uav[46] utilizationSecIdle 2
scalar OsgEarthNet.uav[46] utilizationEnergyMission 889671.22106171
scalar OsgEarthNet.uav[46] utilizationEnergyMaintenance 512204.68214035
scalar OsgEarthNet.uav[46] utilizationEnergyCharge 1404964.4255371
scalar OsgEarthNet.uav[46] utilizationEnergyOverdrawMission 0
scalar OsgEarthNet.uav[46] utilizationEnergyOverdrawMaintenance 0
scalar OsgEarthNet.uav[46] utilizationCountMissions 341
scalar OsgEarthNet.uav[46] utilizationCountManeuversMission 5811
scalar OsgEarthNet.uav[46] utilizationCountManeuversMaintenance 681
scalar OsgEarthNet.uav[46] utilizationCountChargeState 341
scalar OsgEarthNet.uav[46] utilizationCountOverdrawnAfterMission 0
scalar OsgEarthNet.uav[46] utilizationCountIdleState 1
scalar OsgEarthNet.uav[46] utilizationFail 0
scalar OsgEarthNet.uav[46] simulationTime 1209600
scalar OsgEarthNet.uav[47] utilizationSecMission 197817.33967068
scalar OsgEarthNet.uav[47] utilizationSecMaintenance 100324.61602361
scalar OsgEarthNet.uav[47] utilizationSecCharge 911456.04330571
scalar OsgEarthNet.uav[47] utilizationSecIdle 2
scalar OsgEarthNet.uav[47] utilizationEnergyMission 961728.40509033
scalar OsgEarthNet.uav[47] utilizationEnergyMaintenance 470678.95965576
scalar OsgEarthNet.uav[47] utilizationEnergyCharge 1423299.9772949
scalar OsgEarthNet.uav[47] utilizationEnergyOverdrawMission 0
scalar OsgEarthNet.uav[47] utilizationEnergyOverdrawMaintenance 0
scalar OsgEarthNet.uav[47] utilizationCountMissions 329
scalar OsgEarthNet.uav[47] utilizationCountManeuversMission 5824
scalar OsgEarthNet.uav[47] utilizationCountManeuversMaintenance 658
scalar OsgEarthNet.uav[47] utilizationCountChargeState 329
scalar OsgEarthNet.uav[47] utilizationCountOverdrawnAfterMission 0
scalar OsgEarthNet.uav[47] utilizationCountIdleState 1
scalar OsgEarthNet.uav[47] utilizationFail 0
scalar OsgEarthNet.uav[47] simulationTime 1209600
scalar OsgEarthNet.uav[48] utilizationSecMission 199212.73625208
scalar OsgEarthNet.uav[48] utilizationSecMaintenance 100327.7253802
scalar OsgEarthNet.uav[48] utilizationSecCharge 908477.53436771
scalar OsgEarthNet.uav[48] utilizationSecIdle 1582.003
scalar OsgEarthNet.uav[48] utilizationEnergyMission 965383.48970795
scalar OsgEarthNet.uav[48] utilizationEnergyMaintenance 469428.92671204
scalar OsgEarthNet.uav[48] utilizationEnergyCharge 1429622.4702148
scalar OsgEarthNet.uav[48] utilizationEnergyOverdrawMission 0
scalar OsgEarthNet.uav[48] utilizationEnergyOverdrawMaintenance 0
scalar OsgEarthNet.uav[48] utilizationCountMissions 329
scalar OsgEarthNet.uav[48] utilizationCountManeuversMission 6258
scalar OsgEarthNet.uav[48] utilizationCountManeuversMaintenance 658
scalar OsgEarthNet.uav[48] utilizationCountChargeState 329
scalar OsgEarthNet.uav[48] utilizationCountOverdrawnAfterMission 0
scalar OsgEarthNet.uav[48] utilizationCountIdleState 1
scalar OsgEarthNet.uav[48] utilizationFail 0
scalar OsgEarthNet.uav[48] simulationTime 1209600
scalar OsgEarthNet.uav[49] utilizationSecMission 192950.82557774
scalar OsgEarthNet.uav[49] utilizationSecMaintenance 107416.94789949
scalar OsgEarthNet.uav[49] utilizationSecCharge 907510.08570963
scalar OsgEarthNet.uav[49] utilizationSecIdle 1722.1398131443
scalar OsgEarthNet.uav[49] utilizationEnergyMission 949318.88052368
scalar OsgEarthNet.uav[49] utilizationEnergyMaintenance 500926.12645721
scalar OsgEarthNet.uav[49] utilizationEnergyCharge 1442029.612793
scalar OsgEarthNet.uav[49] utilizationEnergyOverdrawMission 0
scalar OsgEarthNet.uav[49] utilizationEnergyOverdrawMaintenance 0
scalar OsgEarthNet.uav[49] utilizationCountMissions 336
scalar OsgEarthNet.uav[49] utilizationCountManeuversMission 6602
scalar OsgEarthNet.uav[49] utilizationCountManeuversMaintenance 672
scalar OsgEarthNet.uav[49] utilizationCountChargeState 336
scalar OsgEarthNet.uav[49] utilizationCountOverdrawnAfterMission 0
scalar OsgEarthNet.uav[49] utilizationCountIdleState 2
scalar OsgEarthNet.uav[49] utilizationFail 0
scalar OsgEarthNet.uav[49] simulationTime 1209600
scalar OsgEarthNet.uav[50] utilizationSecMission 192481.8722153
scalar OsgEarthNet.uav[50] utilizationSecMaintenance 106936.61312375
scalar OsgEarthNet.uav[50] utilizationSecCharge 909210
scalar OsgEarthNet.uav[50] utilizationSecIdle 971.51366094966
scalar OsgEarthNet.uav[50] utilizationEnergyMission 932358.4233017
scalar OsgEarthNet.uav[50] utilizationEnergyMaintenance 504999.58479376
scalar OsgEarthNet.uav[50] utilizationEnergyCharge 1434242.0563965
scalar OsgEarthNet.uav[50] utilizationEnergyOverdrawMission 0
scalar OsgEarthNet.uav[50] utilizationEnergyOverdrawMaintenance 0
scalar OsgEarthNet.uav[50] utilizationCountMissions 336
scalar OsgEarthNet.uav[50] utilizationCountManeuversMission 5767
scalar OsgEarthNet.uav[50] utilizationCountManeuversMaintenance 673
scalar OsgEarthNet.uav[50] utilizationCountChargeState 336
scalar OsgEarthNet.uav[50] utilizationCountOverdrawnAfterMission 0
scalar OsgEarthNet.uav[50] utilizationCountIdleState 2
scalar OsgEarthNet.uav[50] utilizationFail 0
scalar OsgEarthNet.uav[50] simulationTime 1209600
scalar OsgEarthNet.uav[51] utilizationSecMission 186114.87971247
scalar OsgEarthNet.uav[51] utilizationSecMaintenance 108619.47576714
scalar OsgEarthNet.uav[51] utilizationSecCharge 913783.64152039
scalar OsgEarthNet.uav[51] utilizationSecIdle 1082.002
scalar OsgEarthNet.uav[51] utilizationEnergyMission 894205.06017685
scalar OsgEarthNet.uav[51] utilizationEnergyMaintenance 514494.44605255
scalar OsgEarthNet.uav[51] utilizationEnergyCharge 1405615.4179688
scalar OsgEarthNet.uav[51] utilizationEnergyOverdrawMission 0
scalar OsgEarthNet.uav[51] utilizationEnergyOverdrawMaintenance 0
scalar OsgEarthNet.uav[51] utilizationCountMissions 342
scalar OsgEarthNet.uav[51] utilizationCountManeuversMission 5563
scalar OsgEarthNet.uav[51] utilizationCountManeuversMaintenance 684
scalar OsgEarthNet.uav[51] utilizationCountChargeState 342
scalar OsgEarthNet.uav[51] utilizationCountOverdrawnAfterMission 0
scalar OsgEarthNet.uav[51] utilizationCountIdleState 1
scalar OsgEarthNet.uav[51] utilizationFail 0
scalar OsgEarthNet.uav[51] simulationTime 1209600
scalar OsgEarthNet.uav[52] utilizationSecMission 204958.70011371
scalar OsgEarthNet.uav[52] utilizationSecMaintenance 94414.522351295
scalar OsgEarthNet.uav[52] utilizationSecCharge 909104.77453499
scalar OsgEarthNet.uav[52] utilizationSecIdle 1122.002
scalar OsgEarthNet.uav[52] utilizationEnergyMission 985684.60168839
scalar OsgEarthNet.uav[52] utilizationEnergyMaintenance 437034.75343323
scalar OsgEarthNet.uav[52] utilizationEnergyCharge 1422061.6765137
scalar OsgEarthNet.uav[52] utilizationEnergyOverdrawMission 0
scalar OsgEarthNet.uav[52] utilizationEnergyOverdrawMaintenance 0
scalar OsgEarthNet.uav[52] utilizationCountMissions 326
scalar OsgEarthNet.uav[52] utilizationCountManeuversMission 6109
scalar OsgEarthNet.uav[52] utilizationCountManeuversMaintenance 652
scalar OsgEarthNet.uav[52] utilizationCountChargeState 326
scalar OsgEarthNet.uav[52] utilizationCountOverdrawnAfterMission 0
scalar OsgEarthNet.uav[52] utilizationCountIdleState 2
scalar OsgEarthNet.uav[52] utilizationFail 0
scalar OsgEarthNet.uav[52] simulationTime 1209600
scalar OsgEarthNet.uav[53] utilizationSecMission 184827.10173586
scalar OsgEarthNet.uav[53] utilizationSecMaintenance 116731.74914047
scalar OsgEarthNet.uav[53] utilizationSecCharge 905629.14312367
scalar OsgEarthNet.uav[53] utilizationSecIdle 2412.005
scalar OsgEarthNet.uav[53] utilizationEnergyMission 901301.83174896
scalar OsgEarthNet.uav[53] utilizationEnergyMaintenance 552546.99884033
scalar OsgEarthNet.uav[53] utilizationEnergyCharge 1449604.5539551
scalar OsgEarthNet.uav[53] utilizationEnergyOverdrawMission 0
scalar OsgEarthNet.uav[53] utilizationEnergyOverdrawMaintenance 0
scalar OsgEarthNet.uav[53] utilizationCountMissions 341
scalar OsgEarthNet.uav[53] utilizationCountManeuversMission 6115
scalar OsgEarthNet.uav[53] utilizationCountManeuversMaintenance 682
scalar OsgEarthNet.uav[53] utilizationCountChargeState 341
scalar OsgEarthNet.uav[53] utilizationCountOverdrawnAfterMission 0
scalar OsgEarthNet.uav[53] utilizationCountIdleState 2
scalar OsgEarthNet.uav[53] utilizationFail 0
scalar OsgEarthNet.uav[53] simulationTime 1209600
scalar OsgEarthNet.uav[54] utilizationSecMission 190457.50537421
scalar OsgEarthNet.uav[54] utilizationSecMaintenance 108478.33651177
scalar OsgEarthNet.uav[54] utilizationSecCharge 909042.15411402
scalar OsgEarthNet.uav[54] utilizationSecIdle 1622.003
scalar OsgEarthNet.uav[54] utilizationEnergyMission 923655.5250206
scalar OsgEarthNet.uav[54] utilizationEnergyMaintenance 511216.29260635
scalar OsgEarthNet.uav[54] utilizationEnergyCharge 1434565.7911377
scalar OsgEarthNet.uav[54] utilizationEnergyOverdrawMission 0
scalar OsgEarthNet.uav[54] utilizationEnergyOverdrawMaintenance 0
scalar OsgEarthNet.uav[54] utilizationCountMissions 338
scalar OsgEarthNet.uav[54] utilizationCountManeuversMission 6070
scalar OsgEarthNet.uav[54] utilizationCountManeuversMaintenance 676
scalar OsgEarthNet.uav[54] utilizationCountChargeState 338
scalar OsgEarthNet.uav[54] utilizationCountOverdrawnAfterMission 0
scalar OsgEarthNet.uav[54] utilizationCountIdleState 1
scalar OsgEarthNet.uav[54] utilizationFail 0
scalar OsgEarthNet.uav[54] simulationTime 1209600
scalar OsgEarthNet.uav[55] utilizationSecMission 195346.00729618
scalar OsgEarthNet.uav[55] utilizationSecMaintenance 103981.2890361
scalar OsgEarthNet.uav[55] utilizationSecCharge 908730
scalar OsgEarthNet.uav[55] utilizationSecIdle 1542.7026677176
scalar OsgEarthNet.uav[55] utilizationEnergyMission 942953.71979083
scalar OsgEarthNet.uav[55] utilizationEnergyMaintenance 487231.31150818
scalar OsgEarthNet.uav[55] utilizationEnergyCharge 1430191.8051758
scalar OsgEarthNet.uav[55] utilizationEnergyOverdrawMission 0
scalar OsgEarthNet.uav[55] utilizationEnergyOverdrawMaintenance 0
scalar OsgEarthNet.uav[55] utilizationCountMissions 332
scalar OsgEarthNet.uav[55] utilizationCountManeuversMission 5971
scalar OsgEarthNet.uav[55] utilizationCountManeuversMaintenance 665
scalar OsgEarthNet.uav[55] utilizationCountChargeState 332
scalar OsgEarthNet.uav[55] utilizationCountOverdrawnAfterMission 0
scalar OsgEarthNet.uav[55] utilizationCountIdleState 2
scalar OsgEarthNet.uav[55] utilizationFail 0
scalar OsgEarthNet.uav[55] simulationTime 1209600
scalar OsgEarthNet.cs[0] usedPower 19836410.473173
scalar OsgEarthNet.cs[0] chargedPower 19836410.473173
scalar OsgEarthNet.cs[0] chargedMobileNodes 5
scalar OsgEarthNet.cs[0] reservations 4648
scalar OsgEarthNet.cs[1] usedPower 25859694.198302
scalar OsgEarthNet.cs[1] chargedPower 25859694.198302
scalar OsgEarthNet.cs[1] chargedMobileNodes 24
scalar OsgEarthNet.cs[1] reservations 6416
scalar OsgEarthNet.cs[2] usedPower 34243726.013633
scalar OsgEarthNet.cs[2] chargedPower 34243726.013633
scalar OsgEarthNet.cs[2] chargedMobileNodes 13
scalar OsgEarthNet.cs[2] reservations 7692

