version 2
run Szenario_Hotel_Gabelbach-87-20180719-00:32:18-7392
attr configname Szenario_Hotel_Gabelbach
attr datetime 20180719-00:32:18
attr experiment Szenario_Hotel_Gabelbach
attr inifile omnetpp.ini
attr iterationvars "$replM=2, $biWeight=0.35, $replSearchM=1, $numUAVs=56"
attr iterationvarsf replM=2,biWeight=0.35,replSearchM=1,numUAVs=56-
attr measurement "$replM=2, $biWeight=0.35, $replSearchM=1, $numUAVs=56"
attr network OsgEarthNet
attr processid 7392
attr repetition 39
attr replication #39
attr resultdir results
attr runnumber 87
attr seedset 87
itervar biWeight 0.35
itervar numUAVs 56
itervar replM 2
itervar replSearchM 1
param *.osgEarthScene.scene "\"Szenario_Hotel_Gabelbach.earth\""
param *.playgroundLatitude 50.6830269
param *.playgroundLongitude 10.8538055
param *.playgroundWidth 3500m
param *.playgroundHeight 3500m
param *.cs[0].posX 3537m
param *.cs[0].posY 965m
param *.cs[0].posZ 538m
param *.cs[1].posX 312m
param *.cs[1].posY 1262m
param *.cs[1].posZ 539m
param *.cs[2].posX 2185m
param *.cs[2].posY 3026m
param *.cs[2].posZ 777m
param *.cs[3].posX 10m
param *.cs[3].posY 2200m
param *.cs[3].posZ 560m
param *.cs[4].posX 750m
param *.cs[4].posY 200m
param *.cs[4].posZ 540m
param *.cs[5].posX 2450m
param *.cs[5].posY 180m
param *.cs[5].posZ 524m
param *.cs[6].posX 3140m
param *.cs[6].posY 1790m
param *.cs[6].posZ 606m
param *.numCSs 3
param *.uav[*].replacementMethod 2
param *.uav[*].weightedSumWeight 0.35
param *.missionControl.replacementSearchMethod 1
param *.numUAVs 56
param *.*.timeStep 10s
param *.uav[*].commandPreviewCommandCount 20
param *.missionControl.missionFiles "\"missions\\\\Szenario_WB_Hotel_Gabelbach_Mission_Hotel.waypoints,missions\\\\Szenario_WB_Hotel_Gabelbach_Mission_Kickelhahn.waypoints,missions\\\\Szenario_WB_Hotel_Gabelbach_Mission_Ilmenau_Sportplatz.waypoints,missions\\\\Szenario_WB_Hotel_Gabelbach_Mission_Manebach_Mitte.waypoints,missions\\\\Szenario_WB_Hotel_Gabelbach_Mission_Manebach_Sued.waypoints,missions\\\\Szenario_WB_Hotel_Gabelbach_Hover_HoheSchlaufe.waypoints,missions\\\\Szenario_WB_Hotel_Gabelbach_Hover_Kickelhahn.waypoints,missions\\\\Szenario_WB_Hotel_Gabelbach_Hover_Gabelbachskopf.waypoints,missions\\\\Szenario_WB_Hotel_Gabelbach_Hover_Dachskopf.waypoints\""
param *.uav[0].startX 3537m
param *.uav[0].startY 965m
param *.uav[0].startZ 539m
param *.uav[1].startX 312m
param *.uav[1].startY 1262m
param *.uav[1].startZ 540m
param *.uav[2].startX 2185m
param *.uav[2].startY 3026m
param *.uav[2].startZ 778m
param *.uav[3].startX 3537m
param *.uav[3].startY 965m
param *.uav[3].startZ 539m
param *.uav[4].startX 312m
param *.uav[4].startY 1262m
param *.uav[4].startZ 540m
param *.uav[5].startX 2185m
param *.uav[5].startY 3026m
param *.uav[5].startZ 778m
param *.uav[6].startX 3537m
param *.uav[6].startY 965m
param *.uav[6].startZ 539m
param *.uav[7].startX 312m
param *.uav[7].startY 1262m
param *.uav[7].startZ 540m
param *.uav[8].startX 2185m
param *.uav[8].startY 3026m
param *.uav[8].startZ 778m
param *.uav[9].startX 3537m
param *.uav[9].startY 965m
param *.uav[9].startZ 539m
param *.uav[10].startX 3537m
param *.uav[10].startY 965m
param *.uav[10].startZ 539m
param *.uav[11].startX 312m
param *.uav[11].startY 1262m
param *.uav[11].startZ 540m
param *.uav[12].startX 2185m
param *.uav[12].startY 3026m
param *.uav[12].startZ 778m
param *.uav[13].startX 3537m
param *.uav[13].startY 965m
param *.uav[13].startZ 539m
param *.uav[14].startX 312m
param *.uav[14].startY 1262m
param *.uav[14].startZ 540m
param *.uav[15].startX 2185m
param *.uav[15].startY 3026m
param *.uav[15].startZ 778m
param *.uav[16].startX 3537m
param *.uav[16].startY 965m
param *.uav[16].startZ 539m
param *.uav[17].startX 312m
param *.uav[17].startY 1262m
param *.uav[17].startZ 540m
param *.uav[18].startX 2185m
param *.uav[18].startY 3026m
param *.uav[18].startZ 778m
param *.uav[19].startX 3537m
param *.uav[19].startY 965m
param *.uav[19].startZ 539m
param *.uav[20].startX 3537m
param *.uav[20].startY 965m
param *.uav[20].startZ 539m
param *.uav[21].startX 312m
param *.uav[21].startY 1262m
param *.uav[21].startZ 540m
param *.uav[22].startX 2185m
param *.uav[22].startY 3026m
param *.uav[22].startZ 778m
param *.uav[23].startX 3537m
param *.uav[23].startY 965m
param *.uav[23].startZ 539m
param *.uav[24].startX 312m
param *.uav[24].startY 1262m
param *.uav[24].startZ 540m
param *.uav[25].startX 2185m
param *.uav[25].startY 3026m
param *.uav[25].startZ 778m
param *.uav[26].startX 3537m
param *.uav[26].startY 965m
param *.uav[26].startZ 539m
param *.uav[27].startX 312m
param *.uav[27].startY 1262m
param *.uav[27].startZ 540m
param *.uav[28].startX 2185m
param *.uav[28].startY 3026m
param *.uav[28].startZ 778m
param *.uav[29].startX 3537m
param *.uav[29].startY 965m
param *.uav[29].startZ 539m
param *.uav[30].startX 3537m
param *.uav[30].startY 965m
param *.uav[30].startZ 539m
param *.uav[31].startX 312m
param *.uav[31].startY 1262m
param *.uav[31].startZ 540m
param *.uav[32].startX 2185m
param *.uav[32].startY 3026m
param *.uav[32].startZ 778m
param *.uav[33].startX 3537m
param *.uav[33].startY 965m
param *.uav[33].startZ 539m
param *.uav[34].startX 312m
param *.uav[34].startY 1262m
param *.uav[34].startZ 540m
param *.uav[35].startX 2185m
param *.uav[35].startY 3026m
param *.uav[35].startZ 778m
param *.uav[36].startX 3537m
param *.uav[36].startY 965m
param *.uav[36].startZ 539m
param *.uav[37].startX 312m
param *.uav[37].startY 1262m
param *.uav[37].startZ 540m
param *.uav[38].startX 2185m
param *.uav[38].startY 3026m
param *.uav[38].startZ 778m
param *.uav[39].startX 3537m
param *.uav[39].startY 965m
param *.uav[39].startZ 539m
param *.uav[40].startX 3537m
param *.uav[40].startY 965m
param *.uav[40].startZ 539m
param *.uav[41].startX 312m
param *.uav[41].startY 1262m
param *.uav[41].startZ 540m
param *.uav[42].startX 2185m
param *.uav[42].startY 3026m
param *.uav[42].startZ 778m
param *.uav[43].startX 3537m
param *.uav[43].startY 965m
param *.uav[43].startZ 539m
param *.uav[44].startX 312m
param *.uav[44].startY 1262m
param *.uav[44].startZ 540m
param *.uav[45].startX 2185m
param *.uav[45].startY 3026m
param *.uav[45].startZ 778m
param *.uav[46].startX 3537m
param *.uav[46].startY 965m
param *.uav[46].startZ 539m
param *.uav[47].startX 312m
param *.uav[47].startY 1262m
param *.uav[47].startZ 540m
param *.uav[48].startX 2185m
param *.uav[48].startY 3026m
param *.uav[48].startZ 778m
param *.uav[49].startX 3537m
param *.uav[49].startY 965m
param *.uav[49].startZ 539m
param *.uav[50].startX 3537m
param *.uav[50].startY 965m
param *.uav[50].startZ 539m
param *.uav[51].startX 312m
param *.uav[51].startY 1262m
param *.uav[51].startZ 540m
param *.uav[52].startX 2185m
param *.uav[52].startY 3026m
param *.uav[52].startZ 778m
param *.uav[53].startX 3537m
param *.uav[53].startY 965m
param *.uav[53].startZ 539m
param *.uav[54].startX 312m
param *.uav[54].startY 1262m
param *.uav[54].startZ 540m
param *.uav[55].startX 2185m
param *.uav[55].startY 3026m
param *.uav[55].startZ 778m
param *.uav[56].startX 3537m
param *.uav[56].startY 965m
param *.uav[56].startZ 539m
param *.uav[57].startX 312m
param *.uav[57].startY 1262m
param *.uav[57].startZ 540m
param *.uav[58].startX 2185m
param *.uav[58].startY 3026m
param *.uav[58].startZ 778m
param *.uav[59].startX 3537m
param *.uav[59].startY 965m
param *.uav[59].startZ 539m
param *.uav[60].startX 3537m
param *.uav[60].startY 965m
param *.uav[60].startZ 539m
param *.uav[61].startX 312m
param *.uav[61].startY 1262m
param *.uav[61].startZ 540m
param *.uav[62].startX 2185m
param *.uav[62].startY 3026m
param *.uav[62].startZ 778m
param *.uav[63].startX 3537m
param *.uav[63].startY 965m
param *.uav[63].startZ 539m
param *.uav[64].startX 312m
param *.uav[64].startY 1262m
param *.uav[64].startZ 540m
param *.uav[65].startX 2185m
param *.uav[65].startY 3026m
param *.uav[65].startZ 778m
param *.uav[66].startX 3537m
param *.uav[66].startY 965m
param *.uav[66].startZ 539m
param *.uav[67].startX 312m
param *.uav[67].startY 1262m
param *.uav[67].startZ 540m
param *.uav[68].startX 2185m
param *.uav[68].startY 3026m
param *.uav[68].startZ 778m
param *.uav[69].startX 3537m
param *.uav[69].startY 965m
param *.uav[69].startZ 539m
param *.uav[70].startX 3537m
param *.uav[70].startY 965m
param *.uav[70].startZ 539m
param *.uav[71].startX 312m
param *.uav[71].startY 1262m
param *.uav[71].startZ 540m
param *.uav[72].startX 2185m
param *.uav[72].startY 3026m
param *.uav[72].startZ 778m
param *.uav[73].startX 3537m
param *.uav[73].startY 965m
param *.uav[73].startZ 539m
param *.uav[74].startX 312m
param *.uav[74].startY 1262m
param *.uav[74].startZ 540m
param *.uav[75].startX 2185m
param *.uav[75].startY 3026m
param *.uav[75].startZ 778m
param *.uav[76].startX 3537m
param *.uav[76].startY 965m
param *.uav[76].startZ 539m
param *.uav[77].startX 312m
param *.uav[77].startY 1262m
param *.uav[77].startZ 540m
param *.uav[78].startX 2185m
param *.uav[78].startY 3026m
param *.uav[78].startZ 778m
param *.uav[79].startX 3537m
param *.uav[79].startY 965m
param *.uav[79].startZ 539m
param *.uav[80].startX 3537m
param *.uav[80].startY 965m
param *.uav[80].startZ 539m
param *.uav[81].startX 312m
param *.uav[81].startY 1262m
param *.uav[81].startZ 540m
param *.uav[82].startX 2185m
param *.uav[82].startY 3026m
param *.uav[82].startZ 778m
param *.uav[83].startX 3537m
param *.uav[83].startY 965m
param *.uav[83].startZ 539m
param *.uav[84].startX 312m
param *.uav[84].startY 1262m
param *.uav[84].startZ 540m
param *.uav[85].startX 2185m
param *.uav[85].startY 3026m
param *.uav[85].startZ 778m
param *.uav[86].startX 3537m
param *.uav[86].startY 965m
param *.uav[86].startZ 539m
param *.uav[87].startX 312m
param *.uav[87].startY 1262m
param *.uav[87].startZ 540m
param *.uav[88].startX 2185m
param *.uav[88].startY 3026m
param *.uav[88].startZ 778m
param *.uav[89].startX 3537m
param *.uav[89].startY 965m
param *.uav[89].startZ 539m
param *.uav[90].startX 3537m
param *.uav[90].startY 965m
param *.uav[90].startZ 539m
param *.uav[91].startX 312m
param *.uav[91].startY 1262m
param *.uav[91].startZ 540m
param *.uav[92].startX 2185m
param *.uav[92].startY 3026m
param *.uav[92].startZ 778m
param *.uav[93].startX 3537m
param *.uav[93].startY 965m
param *.uav[93].startZ 539m
param *.uav[94].startX 312m
param *.uav[94].startY 1262m
param *.uav[94].startZ 540m
param *.uav[95].startX 2185m
param *.uav[95].startY 3026m
param *.uav[95].startZ 778m
param *.uav[96].startX 3537m
param *.uav[96].startY 965m
param *.uav[96].startZ 539m
param *.uav[97].startX 312m
param *.uav[97].startY 1262m
param *.uav[97].startZ 540m
param *.uav[98].startX 2185m
param *.uav[98].startY 3026m
param *.uav[98].startZ 778m
param *.uav[99].startX 3537m
param *.uav[99].startY 965m
param *.uav[99].startZ 539m
param *.osgEarthScene.scene "\"boston.earth\""
param *.playgroundLatitude 42.3558
param *.playgroundLongitude -71.0677
param *.playgroundWidth 400m
param *.playgroundHeight 200m
param *.channelController.connectionColor "\"#0000FF40\""
param *.channelController.showConnections false
param *.uav[*].modelURL "\"quadrocopter.small.obj.15.scale.0,0,90.rot\""
param *.uav[*].labelColor "\"#FF7C00CC\""
param *.uav[*].label2Color "\"#FF7C00EE\""
param *.uav[*].batteryCapacity 5200mAh
param *.uav[*].batteryRemaining uav[index].batteryCapacity
param *.uav[*].predictionQuantile 0.95
param *.uav[*].replacementMethod 2
param *.uav[*].weightedSumWeight 0.5
param *.cs[*].modelURL "\"chargingstation_v1.osgt.2.scale.0,0,0.rot.0,0,-15e-1.trans\""
param *.cs[*].spotsWaiting 999
param *.cs[*].spotsCharging 999
param *.cs[*].chargeEffectivenessPercentage 100
param *.cs[*].nonLinearPhaseStartPercentage 85
param *.cs[*].chargeCurrent 6.0A
param *.cs[*].prioritizeFastCharge true
param *.missionControl.replacementSearchMethod 0
param *.*.timeStep 9s

scalar OsgEarthNet.uav[0] utilizationSecMission 195606.40785278
scalar OsgEarthNet.uav[0] utilizationSecMaintenance 104088.72518843
scalar OsgEarthNet.uav[0] utilizationSecCharge 906973.91670312
scalar OsgEarthNet.uav[0] utilizationSecIdle 2930.9492556647
scalar OsgEarthNet.uav[0] utilizationEnergyMission 950596.75849533
scalar OsgEarthNet.uav[0] utilizationEnergyMaintenance 488648.68019867
scalar OsgEarthNet.uav[0] utilizationEnergyCharge 1433221.6987305
scalar OsgEarthNet.uav[0] utilizationEnergyOverdrawMission 0
scalar OsgEarthNet.uav[0] utilizationEnergyOverdrawMaintenance 0
scalar OsgEarthNet.uav[0] utilizationCountMissions 334
scalar OsgEarthNet.uav[0] utilizationCountManeuversMission 6063
scalar OsgEarthNet.uav[0] utilizationCountManeuversMaintenance 668
scalar OsgEarthNet.uav[0] utilizationCountChargeState 334
scalar OsgEarthNet.uav[0] utilizationCountOverdrawnAfterMission 0
scalar OsgEarthNet.uav[0] utilizationCountIdleState 2
scalar OsgEarthNet.uav[0] utilizationFail 0
scalar OsgEarthNet.uav[0] simulationTime 1209600
scalar OsgEarthNet.uav[1] utilizationSecMission 182920.12890262
scalar OsgEarthNet.uav[1] utilizationSecMaintenance 111934.42800868
scalar OsgEarthNet.uav[1] utilizationSecCharge 912540
scalar OsgEarthNet.uav[1] utilizationSecIdle 2205.4420886909
scalar OsgEarthNet.uav[1] utilizationEnergyMission 880863.33792653
scalar OsgEarthNet.uav[1] utilizationEnergyMaintenance 530696.32973099
scalar OsgEarthNet.uav[1] utilizationEnergyCharge 1409970.9196777
scalar OsgEarthNet.uav[1] utilizationEnergyOverdrawMission 0
scalar OsgEarthNet.uav[1] utilizationEnergyOverdrawMaintenance 0
scalar OsgEarthNet.uav[1] utilizationCountMissions 343
scalar OsgEarthNet.uav[1] utilizationCountManeuversMission 5432
scalar OsgEarthNet.uav[1] utilizationCountManeuversMaintenance 687
scalar OsgEarthNet.uav[1] utilizationCountChargeState 343
scalar OsgEarthNet.uav[1] utilizationCountOverdrawnAfterMission 0
scalar OsgEarthNet.uav[1] utilizationCountIdleState 3
scalar OsgEarthNet.uav[1] utilizationFail 0
scalar OsgEarthNet.uav[1] simulationTime 1209600
scalar OsgEarthNet.uav[2] utilizationSecMission 191409.35822013
scalar OsgEarthNet.uav[2] utilizationSecMaintenance 103094.26702379
scalar OsgEarthNet.uav[2] utilizationSecCharge 914524.37275608
scalar OsgEarthNet.uav[2] utilizationSecIdle 572.001
scalar OsgEarthNet.uav[2] utilizationEnergyMission 926221.08190536
scalar OsgEarthNet.uav[2] utilizationEnergyMaintenance 486117.93871307
scalar OsgEarthNet.uav[2] utilizationEnergyCharge 1406217.1036377
scalar OsgEarthNet.uav[2] utilizationEnergyOverdrawMission 0
scalar OsgEarthNet.uav[2] utilizationEnergyOverdrawMaintenance 0
scalar OsgEarthNet.uav[2] utilizationCountMissions 334
scalar OsgEarthNet.uav[2] utilizationCountManeuversMission 5836
scalar OsgEarthNet.uav[2] utilizationCountManeuversMaintenance 668
scalar OsgEarthNet.uav[2] utilizationCountChargeState 334
scalar OsgEarthNet.uav[2] utilizationCountOverdrawnAfterMission 0
scalar OsgEarthNet.uav[2] utilizationCountIdleState 2
scalar OsgEarthNet.uav[2] utilizationFail 0
scalar OsgEarthNet.uav[2] simulationTime 1209600
scalar OsgEarthNet.uav[3] utilizationSecMission 190416.52109486
scalar OsgEarthNet.uav[3] utilizationSecMaintenance 103358.68625007
scalar OsgEarthNet.uav[3] utilizationSecCharge 915322.79065507
scalar OsgEarthNet.uav[3] utilizationSecIdle 502.001
scalar OsgEarthNet.uav[3] utilizationEnergyMission 920818.49399948
scalar OsgEarthNet.uav[3] utilizationEnergyMaintenance 487187.33435822
scalar OsgEarthNet.uav[3] utilizationEnergyCharge 1403535.2753906
scalar OsgEarthNet.uav[3] utilizationEnergyOverdrawMission 0
scalar OsgEarthNet.uav[3] utilizationEnergyOverdrawMaintenance 0
scalar OsgEarthNet.uav[3] utilizationCountMissions 336
scalar OsgEarthNet.uav[3] utilizationCountManeuversMission 5638
scalar OsgEarthNet.uav[3] utilizationCountManeuversMaintenance 672
scalar OsgEarthNet.uav[3] utilizationCountChargeState 336
scalar OsgEarthNet.uav[3] utilizationCountOverdrawnAfterMission 0
scalar OsgEarthNet.uav[3] utilizationCountIdleState 2
scalar OsgEarthNet.uav[3] utilizationFail 0
scalar OsgEarthNet.uav[3] simulationTime 1209600
scalar OsgEarthNet.uav[4] utilizationSecMission 203161.84256645
scalar OsgEarthNet.uav[4] utilizationSecMaintenance 97055.928163159
scalar OsgEarthNet.uav[4] utilizationSecCharge 906916.7851817
scalar OsgEarthNet.uav[4] utilizationSecIdle 2465.443088691
scalar OsgEarthNet.uav[4] utilizationEnergyMission 983111.28910828
scalar OsgEarthNet.uav[4] utilizationEnergyMaintenance 448474.56518555
scalar OsgEarthNet.uav[4] utilizationEnergyCharge 1430918.7984009
scalar OsgEarthNet.uav[4] utilizationEnergyOverdrawMission 0
scalar OsgEarthNet.uav[4] utilizationEnergyOverdrawMaintenance 0
scalar OsgEarthNet.uav[4] utilizationCountMissions 327
scalar OsgEarthNet.uav[4] utilizationCountManeuversMission 6430
scalar OsgEarthNet.uav[4] utilizationCountManeuversMaintenance 654
scalar OsgEarthNet.uav[4] utilizationCountChargeState 327
scalar OsgEarthNet.uav[4] utilizationCountOverdrawnAfterMission 0
scalar OsgEarthNet.uav[4] utilizationCountIdleState 1
scalar OsgEarthNet.uav[4] utilizationFail 0
scalar OsgEarthNet.uav[4] simulationTime 1209600
scalar OsgEarthNet.uav[5] utilizationSecMission 208204.60978871
scalar OsgEarthNet.uav[5] utilizationSecMaintenance 90319.950055722
scalar OsgEarthNet.uav[5] utilizationSecCharge 909603.98619363
scalar OsgEarthNet.uav[5] utilizationSecIdle 1471.4529619338
scalar OsgEarthNet.uav[5] utilizationEnergyMission 1018415.910408
scalar OsgEarthNet.uav[5] utilizationEnergyMaintenance 417579.98957443
scalar OsgEarthNet.uav[5] utilizationEnergyCharge 1436369.4047852
scalar OsgEarthNet.uav[5] utilizationEnergyOverdrawMission 0
scalar OsgEarthNet.uav[5] utilizationEnergyOverdrawMaintenance 0
scalar OsgEarthNet.uav[5] utilizationCountMissions 321
scalar OsgEarthNet.uav[5] utilizationCountManeuversMission 6802
scalar OsgEarthNet.uav[5] utilizationCountManeuversMaintenance 642
scalar OsgEarthNet.uav[5] utilizationCountChargeState 321
scalar OsgEarthNet.uav[5] utilizationCountOverdrawnAfterMission 0
scalar OsgEarthNet.uav[5] utilizationCountIdleState 2
scalar OsgEarthNet.uav[5] utilizationFail 0
scalar OsgEarthNet.uav[5] simulationTime 1209600
scalar OsgEarthNet.uav[6] utilizationSecMission 191203.13632227
scalar OsgEarthNet.uav[6] utilizationSecMaintenance 105943.56642617
scalar OsgEarthNet.uav[6] utilizationSecCharge 909990.53028622
scalar OsgEarthNet.uav[6] utilizationSecIdle 2462.765965339
scalar OsgEarthNet.uav[6] utilizationEnergyMission 927839.29243851
scalar OsgEarthNet.uav[6] utilizationEnergyMaintenance 497941.39944458
scalar OsgEarthNet.uav[6] utilizationEnergyCharge 1426309.7452393
scalar OsgEarthNet.uav[6] utilizationEnergyOverdrawMission 0
scalar OsgEarthNet.uav[6] utilizationEnergyOverdrawMaintenance 0
scalar OsgEarthNet.uav[6] utilizationCountMissions 335
scalar OsgEarthNet.uav[6] utilizationCountManeuversMission 6037
scalar OsgEarthNet.uav[6] utilizationCountManeuversMaintenance 670
scalar OsgEarthNet.uav[6] utilizationCountChargeState 335
scalar OsgEarthNet.uav[6] utilizationCountOverdrawnAfterMission 0
scalar OsgEarthNet.uav[6] utilizationCountIdleState 2
scalar OsgEarthNet.uav[6] utilizationFail 0
scalar OsgEarthNet.uav[6] simulationTime 1209600
scalar OsgEarthNet.uav[7] utilizationSecMission 191683.5687582
scalar OsgEarthNet.uav[7] utilizationSecMaintenance 108641.38744406
scalar OsgEarthNet.uav[7] utilizationSecCharge 908753.04179774
scalar OsgEarthNet.uav[7] utilizationSecIdle 522.001
scalar OsgEarthNet.uav[7] utilizationEnergyMission 926329.43920135
scalar OsgEarthNet.uav[7] utilizationEnergyMaintenance 512372.08357239
scalar OsgEarthNet.uav[7] utilizationEnergyCharge 1442629.7243652
scalar OsgEarthNet.uav[7] utilizationEnergyOverdrawMission 0
scalar OsgEarthNet.uav[7] utilizationEnergyOverdrawMaintenance 0
scalar OsgEarthNet.uav[7] utilizationCountMissions 337
scalar OsgEarthNet.uav[7] utilizationCountManeuversMission 5986
scalar OsgEarthNet.uav[7] utilizationCountManeuversMaintenance 674
scalar OsgEarthNet.uav[7] utilizationCountChargeState 337
scalar OsgEarthNet.uav[7] utilizationCountOverdrawnAfterMission 0
scalar OsgEarthNet.uav[7] utilizationCountIdleState 1
scalar OsgEarthNet.uav[7] utilizationFail 0
scalar OsgEarthNet.uav[7] simulationTime 1209600
scalar OsgEarthNet.uav[8] utilizationSecMission 187284.80039327
scalar OsgEarthNet.uav[8] utilizationSecMaintenance 113237.81359992
scalar OsgEarthNet.uav[8] utilizationSecCharge 908348.16539289
scalar OsgEarthNet.uav[8] utilizationSecIdle 729.21961391566
scalar OsgEarthNet.uav[8] utilizationEnergyMission 909752.31726837
scalar OsgEarthNet.uav[8] utilizationEnergyMaintenance 533506.68854523
scalar OsgEarthNet.uav[8] utilizationEnergyCharge 1441708.0908203
scalar OsgEarthNet.uav[8] utilizationEnergyOverdrawMission 0
scalar OsgEarthNet.uav[8] utilizationEnergyOverdrawMaintenance 0
scalar OsgEarthNet.uav[8] utilizationCountMissions 340
scalar OsgEarthNet.uav[8] utilizationCountManeuversMission 5911
scalar OsgEarthNet.uav[8] utilizationCountManeuversMaintenance 680
scalar OsgEarthNet.uav[8] utilizationCountChargeState 340
scalar OsgEarthNet.uav[8] utilizationCountOverdrawnAfterMission 0
scalar OsgEarthNet.uav[8] utilizationCountIdleState 3
scalar OsgEarthNet.uav[8] utilizationFail 0
scalar OsgEarthNet.uav[8] simulationTime 1209600
scalar OsgEarthNet.uav[9] utilizationSecMission 188412.53047726
scalar OsgEarthNet.uav[9] utilizationSecMaintenance 104115.60962187
scalar OsgEarthNet.uav[9] utilizationSecCharge 914139.71416093
scalar OsgEarthNet.uav[9] utilizationSecIdle 2932.1447399488
scalar OsgEarthNet.uav[9] utilizationEnergyMission 912036.70940018
scalar OsgEarthNet.uav[9] utilizationEnergyMaintenance 491290.82387161
scalar OsgEarthNet.uav[9] utilizationEnergyCharge 1393601.289917
scalar OsgEarthNet.uav[9] utilizationEnergyOverdrawMission 0
scalar OsgEarthNet.uav[9] utilizationEnergyOverdrawMaintenance 0
scalar OsgEarthNet.uav[9] utilizationCountMissions 334
scalar OsgEarthNet.uav[9] utilizationCountManeuversMission 5685
scalar OsgEarthNet.uav[9] utilizationCountManeuversMaintenance 668
scalar OsgEarthNet.uav[9] utilizationCountChargeState 334
scalar OsgEarthNet.uav[9] utilizationCountOverdrawnAfterMission 0
scalar OsgEarthNet.uav[9] utilizationCountIdleState 5
scalar OsgEarthNet.uav[9] utilizationFail 0
scalar OsgEarthNet.uav[9] simulationTime 1209600
scalar OsgEarthNet.uav[10] utilizationSecMission 195202.71781535
scalar OsgEarthNet.uav[10] utilizationSecMaintenance 102188.70052778
scalar OsgEarthNet.uav[10] utilizationSecCharge 909300
scalar OsgEarthNet.uav[10] utilizationSecIdle 2908.5806568717
scalar OsgEarthNet.uav[10] utilizationEnergyMission 948125.93333054
scalar OsgEarthNet.uav[10] utilizationEnergyMaintenance 480096.84517242
scalar OsgEarthNet.uav[10] utilizationEnergyCharge 1427356.3366699
scalar OsgEarthNet.uav[10] utilizationEnergyOverdrawMission 0
scalar OsgEarthNet.uav[10] utilizationEnergyOverdrawMaintenance 0
scalar OsgEarthNet.uav[10] utilizationCountMissions 332
scalar OsgEarthNet.uav[10] utilizationCountManeuversMission 6171
scalar OsgEarthNet.uav[10] utilizationCountManeuversMaintenance 665
scalar OsgEarthNet.uav[10] utilizationCountChargeState 332
scalar OsgEarthNet.uav[10] utilizationCountOverdrawnAfterMission 0
scalar OsgEarthNet.uav[10] utilizationCountIdleState 5
scalar OsgEarthNet.uav[10] utilizationFail 0
scalar OsgEarthNet.uav[10] simulationTime 1209600
scalar OsgEarthNet.uav[11] utilizationSecMission 191972.67408661
scalar OsgEarthNet.uav[11] utilizationSecMaintenance 102682.09270962
scalar OsgEarthNet.uav[11] utilizationSecCharge 912773.22820377
scalar OsgEarthNet.uav[11] utilizationSecIdle 2172.004
scalar OsgEarthNet.uav[11] utilizationEnergyMission 931796.9106102
scalar OsgEarthNet.uav[11] utilizationEnergyMaintenance 481970.34190369
scalar OsgEarthNet.uav[11] utilizationEnergyCharge 1408329.3110352
scalar OsgEarthNet.uav[11] utilizationEnergyOverdrawMission 0
scalar OsgEarthNet.uav[11] utilizationEnergyOverdrawMaintenance 0
scalar OsgEarthNet.uav[11] utilizationCountMissions 332
scalar OsgEarthNet.uav[11] utilizationCountManeuversMission 5922
scalar OsgEarthNet.uav[11] utilizationCountManeuversMaintenance 664
scalar OsgEarthNet.uav[11] utilizationCountChargeState 332
scalar OsgEarthNet.uav[11] utilizationCountOverdrawnAfterMission 0
scalar OsgEarthNet.uav[11] utilizationCountIdleState 2
scalar OsgEarthNet.uav[11] utilizationFail 0
scalar OsgEarthNet.uav[11] simulationTime 1209600
scalar OsgEarthNet.uav[12] utilizationSecMission 187436.07124124
scalar OsgEarthNet.uav[12] utilizationSecMaintenance 112861.92575876
scalar OsgEarthNet.uav[12] utilizationSecCharge 907960
scalar OsgEarthNet.uav[12] utilizationSecIdle 1342.002
scalar OsgEarthNet.uav[12] utilizationEnergyMission 904718.65172165
scalar OsgEarthNet.uav[12] utilizationEnergyMaintenance 535722.75928116
scalar OsgEarthNet.uav[12] utilizationEnergyCharge 1436520.4375
scalar OsgEarthNet.uav[12] utilizationEnergyOverdrawMission 0
scalar OsgEarthNet.uav[12] utilizationEnergyOverdrawMaintenance 0
scalar OsgEarthNet.uav[12] utilizationCountMissions 340
scalar OsgEarthNet.uav[12] utilizationCountManeuversMission 5729
scalar OsgEarthNet.uav[12] utilizationCountManeuversMaintenance 681
scalar OsgEarthNet.uav[12] utilizationCountChargeState 340
scalar OsgEarthNet.uav[12] utilizationCountOverdrawnAfterMission 0
scalar OsgEarthNet.uav[12] utilizationCountIdleState 1
scalar OsgEarthNet.uav[12] utilizationFail 0
scalar OsgEarthNet.uav[12] simulationTime 1209600
scalar OsgEarthNet.uav[13] utilizationSecMission 181343.44832653
scalar OsgEarthNet.uav[13] utilizationSecMaintenance 114744.54567347
scalar OsgEarthNet.uav[13] utilizationSecCharge 911180
scalar OsgEarthNet.uav[13] utilizationSecIdle 2332.005
scalar OsgEarthNet.uav[13] utilizationEnergyMission 878016.77938343
scalar OsgEarthNet.uav[13] utilizationEnergyMaintenance 546818.31761932
scalar OsgEarthNet.uav[13] utilizationEnergyCharge 1416915.2229004
scalar OsgEarthNet.uav[13] utilizationEnergyOverdrawMission 0
scalar OsgEarthNet.uav[13] utilizationEnergyOverdrawMaintenance 0
scalar OsgEarthNet.uav[13] utilizationCountMissions 345
scalar OsgEarthNet.uav[13] utilizationCountManeuversMission 5441
scalar OsgEarthNet.uav[13] utilizationCountManeuversMaintenance 691
scalar OsgEarthNet.uav[13] utilizationCountChargeState 345
scalar OsgEarthNet.uav[13] utilizationCountOverdrawnAfterMission 0
scalar OsgEarthNet.uav[13] utilizationCountIdleState 3
scalar OsgEarthNet.uav[13] utilizationFail 0
scalar OsgEarthNet.uav[13] simulationTime 1209600
scalar OsgEarthNet.uav[14] utilizationSecMission 194344.37873602
scalar OsgEarthNet.uav[14] utilizationSecMaintenance 101110.75410419
scalar OsgEarthNet.uav[14] utilizationSecCharge 913252.86465306
scalar OsgEarthNet.uav[14] utilizationSecIdle 892.00150672213
scalar OsgEarthNet.uav[14] utilizationEnergyMission 945318.46977615
scalar OsgEarthNet.uav[14] utilizationEnergyMaintenance 472062.22747421
scalar OsgEarthNet.uav[14] utilizationEnergyCharge 1413592.9118042
scalar OsgEarthNet.uav[14] utilizationEnergyOverdrawMission 0
scalar OsgEarthNet.uav[14] utilizationEnergyOverdrawMaintenance 0
scalar OsgEarthNet.uav[14] utilizationCountMissions 335
scalar OsgEarthNet.uav[14] utilizationCountManeuversMission 6173
scalar OsgEarthNet.uav[14] utilizationCountManeuversMaintenance 670
scalar OsgEarthNet.uav[14] utilizationCountChargeState 335
scalar OsgEarthNet.uav[14] utilizationCountOverdrawnAfterMission 0
scalar OsgEarthNet.uav[14] utilizationCountIdleState 1
scalar OsgEarthNet.uav[14] utilizationFail 0
scalar OsgEarthNet.uav[14] simulationTime 1209600
scalar OsgEarthNet.uav[15] utilizationSecMission 191452.14607234
scalar OsgEarthNet.uav[15] utilizationSecMaintenance 107090.09288195
scalar OsgEarthNet.uav[15] utilizationSecCharge 908868.12896505
scalar OsgEarthNet.uav[15] utilizationSecIdle 2189.6310806652
scalar OsgEarthNet.uav[15] utilizationEnergyMission 924535.54034042
scalar OsgEarthNet.uav[15] utilizationEnergyMaintenance 506028.27419662
scalar OsgEarthNet.uav[15] utilizationEnergyCharge 1434650.3974609
scalar OsgEarthNet.uav[15] utilizationEnergyOverdrawMission 0
scalar OsgEarthNet.uav[15] utilizationEnergyOverdrawMaintenance 0
scalar OsgEarthNet.uav[15] utilizationCountMissions 335
scalar OsgEarthNet.uav[15] utilizationCountManeuversMission 5872
scalar OsgEarthNet.uav[15] utilizationCountManeuversMaintenance 670
scalar OsgEarthNet.uav[15] utilizationCountChargeState 335
scalar OsgEarthNet.uav[15] utilizationCountOverdrawnAfterMission 0
scalar OsgEarthNet.uav[15] utilizationCountIdleState 1
scalar OsgEarthNet.uav[15] utilizationFail 0
scalar OsgEarthNet.uav[15] simulationTime 1209600
scalar OsgEarthNet.uav[16] utilizationSecMission 186087.41505266
scalar OsgEarthNet.uav[16] utilizationSecMaintenance 115847.14244454
scalar OsgEarthNet.uav[16] utilizationSecCharge 906763.4395028
scalar OsgEarthNet.uav[16] utilizationSecIdle 902.002
scalar OsgEarthNet.uav[16] utilizationEnergyMission 913579.4752121
scalar OsgEarthNet.uav[16] utilizationEnergyMaintenance 542409.71260071
scalar OsgEarthNet.uav[16] utilizationEnergyCharge 1451946.3527832
scalar OsgEarthNet.uav[16] utilizationEnergyOverdrawMission 0
scalar OsgEarthNet.uav[16] utilizationEnergyOverdrawMaintenance 0
scalar OsgEarthNet.uav[16] utilizationCountMissions 340
scalar OsgEarthNet.uav[16] utilizationCountManeuversMission 6682
scalar OsgEarthNet.uav[16] utilizationCountManeuversMaintenance 680
scalar OsgEarthNet.uav[16] utilizationCountChargeState 340
scalar OsgEarthNet.uav[16] utilizationCountOverdrawnAfterMission 0
scalar OsgEarthNet.uav[16] utilizationCountIdleState 1
scalar OsgEarthNet.uav[16] utilizationFail 0
scalar OsgEarthNet.uav[16] simulationTime 1209600
scalar OsgEarthNet.uav[17] utilizationSecMission 201756.68811217
scalar OsgEarthNet.uav[17] utilizationSecMaintenance 93741.868211609
scalar OsgEarthNet.uav[17] utilizationSecCharge 911571.64245439
scalar OsgEarthNet.uav[17] utilizationSecIdle 2529.8002218232
scalar OsgEarthNet.uav[17] utilizationEnergyMission 987384.29380417
scalar OsgEarthNet.uav[17] utilizationEnergyMaintenance 436210.92331696
scalar OsgEarthNet.uav[17] utilizationEnergyCharge 1420906.7739258
scalar OsgEarthNet.uav[17] utilizationEnergyOverdrawMission 0
scalar OsgEarthNet.uav[17] utilizationEnergyOverdrawMaintenance 0
scalar OsgEarthNet.uav[17] utilizationCountMissions 324
scalar OsgEarthNet.uav[17] utilizationCountManeuversMission 6592
scalar OsgEarthNet.uav[17] utilizationCountManeuversMaintenance 648
scalar OsgEarthNet.uav[17] utilizationCountChargeState 324
scalar OsgEarthNet.uav[17] utilizationCountOverdrawnAfterMission 0
scalar OsgEarthNet.uav[17] utilizationCountIdleState 2
scalar OsgEarthNet.uav[17] utilizationFail 0
scalar OsgEarthNet.uav[17] simulationTime 1209600
scalar OsgEarthNet.uav[18] utilizationSecMission 194767.68225999
scalar OsgEarthNet.uav[18] utilizationSecMaintenance 101474.0148799
scalar OsgEarthNet.uav[18] utilizationSecCharge 912336.2998601
scalar OsgEarthNet.uav[18] utilizationSecIdle 1022.002
scalar OsgEarthNet.uav[18] utilizationEnergyMission 949496.05324173
scalar OsgEarthNet.uav[18] utilizationEnergyMaintenance 476197.21586227
scalar OsgEarthNet.uav[18] utilizationEnergyCharge 1423171.3134766
scalar OsgEarthNet.uav[18] utilizationEnergyOverdrawMission 0
scalar OsgEarthNet.uav[18] utilizationEnergyOverdrawMaintenance 0
scalar OsgEarthNet.uav[18] utilizationCountMissions 335
scalar OsgEarthNet.uav[18] utilizationCountManeuversMission 6118
scalar OsgEarthNet.uav[18] utilizationCountManeuversMaintenance 670
scalar OsgEarthNet.uav[18] utilizationCountChargeState 335
scalar OsgEarthNet.uav[18] utilizationCountOverdrawnAfterMission 0
scalar OsgEarthNet.uav[18] utilizationCountIdleState 1
scalar OsgEarthNet.uav[18] utilizationFail 0
scalar OsgEarthNet.uav[18] simulationTime 1209600
scalar OsgEarthNet.uav[19] utilizationSecMission 186650.32112805
scalar OsgEarthNet.uav[19] utilizationSecMaintenance 114346.28575441
scalar OsgEarthNet.uav[19] utilizationSecCharge 905390
scalar OsgEarthNet.uav[19] utilizationSecIdle 3213.3921175336
scalar OsgEarthNet.uav[19] utilizationEnergyMission 902390.47995689
scalar OsgEarthNet.uav[19] utilizationEnergyMaintenance 542450.39219284
scalar OsgEarthNet.uav[19] utilizationEnergyCharge 1448481.6774902
scalar OsgEarthNet.uav[19] utilizationEnergyOverdrawMission 0
scalar OsgEarthNet.uav[19] utilizationEnergyOverdrawMaintenance 0
scalar OsgEarthNet.uav[19] utilizationCountMissions 341
scalar OsgEarthNet.uav[19] utilizationCountManeuversMission 5713
scalar OsgEarthNet.uav[19] utilizationCountManeuversMaintenance 683
scalar OsgEarthNet.uav[19] utilizationCountChargeState 341
scalar OsgEarthNet.uav[19] utilizationCountOverdrawnAfterMission 0
scalar OsgEarthNet.uav[19] utilizationCountIdleState 1
scalar OsgEarthNet.uav[19] utilizationFail 0
scalar OsgEarthNet.uav[19] simulationTime 1209600
scalar OsgEarthNet.uav[20] utilizationSecMission 196146.75397876
scalar OsgEarthNet.uav[20] utilizationSecMaintenance 105019.23196519
scalar OsgEarthNet.uav[20] utilizationSecCharge 905142.00605605
scalar OsgEarthNet.uav[20] utilizationSecIdle 3292.007
scalar OsgEarthNet.uav[20] utilizationEnergyMission 954858.38117599
scalar OsgEarthNet.uav[20] utilizationEnergyMaintenance 493590.21378326
scalar OsgEarthNet.uav[20] utilizationEnergyCharge 1443556.8012695
scalar OsgEarthNet.uav[20] utilizationEnergyOverdrawMission 0
scalar OsgEarthNet.uav[20] utilizationEnergyOverdrawMaintenance 0
scalar OsgEarthNet.uav[20] utilizationCountMissions 333
scalar OsgEarthNet.uav[20] utilizationCountManeuversMission 6052
scalar OsgEarthNet.uav[20] utilizationCountManeuversMaintenance 666
scalar OsgEarthNet.uav[20] utilizationCountChargeState 333
scalar OsgEarthNet.uav[20] utilizationCountOverdrawnAfterMission 0
scalar OsgEarthNet.uav[20] utilizationCountIdleState 2
scalar OsgEarthNet.uav[20] utilizationFail 0
scalar OsgEarthNet.uav[20] simulationTime 1209600
scalar OsgEarthNet.uav[21] utilizationSecMission 184996.21119978
scalar OsgEarthNet.uav[21] utilizationSecMaintenance 113335.42534648
scalar OsgEarthNet.uav[21] utilizationSecCharge 908626.35745373
scalar OsgEarthNet.uav[21] utilizationSecIdle 2642.005
scalar OsgEarthNet.uav[21] utilizationEnergyMission 895710.84139633
scalar OsgEarthNet.uav[21] utilizationEnergyMaintenance 535183.58321381
scalar OsgEarthNet.uav[21] utilizationEnergyCharge 1429997.6461182
scalar OsgEarthNet.uav[21] utilizationEnergyOverdrawMission 0
scalar OsgEarthNet.uav[21] utilizationEnergyOverdrawMaintenance 0
scalar OsgEarthNet.uav[21] utilizationCountMissions 343
scalar OsgEarthNet.uav[21] utilizationCountManeuversMission 5908
scalar OsgEarthNet.uav[21] utilizationCountManeuversMaintenance 686
scalar OsgEarthNet.uav[21] utilizationCountChargeState 343
scalar OsgEarthNet.uav[21] utilizationCountOverdrawnAfterMission 0
scalar OsgEarthNet.uav[21] utilizationCountIdleState 1
scalar OsgEarthNet.uav[21] utilizationFail 0
scalar OsgEarthNet.uav[21] simulationTime 1209600
scalar OsgEarthNet.uav[22] utilizationSecMission 194965.88310602
scalar OsgEarthNet.uav[22] utilizationSecMaintenance 102191.87124015
scalar OsgEarthNet.uav[22] utilizationSecCharge 910620.57160224
scalar OsgEarthNet.uav[22] utilizationSecIdle 1821.6730515863
scalar OsgEarthNet.uav[22] utilizationEnergyMission 950345.26909637
scalar OsgEarthNet.uav[22] utilizationEnergyMaintenance 478436.56125641
scalar OsgEarthNet.uav[22] utilizationEnergyCharge 1424640.638916
scalar OsgEarthNet.uav[22] utilizationEnergyOverdrawMission 0
scalar OsgEarthNet.uav[22] utilizationEnergyOverdrawMaintenance 0
scalar OsgEarthNet.uav[22] utilizationCountMissions 331
scalar OsgEarthNet.uav[22] utilizationCountManeuversMission 6494
scalar OsgEarthNet.uav[22] utilizationCountManeuversMaintenance 662
scalar OsgEarthNet.uav[22] utilizationCountChargeState 331
scalar OsgEarthNet.uav[22] utilizationCountOverdrawnAfterMission 0
scalar OsgEarthNet.uav[22] utilizationCountIdleState 2
scalar OsgEarthNet.uav[22] utilizationFail 0
scalar OsgEarthNet.uav[22] simulationTime 1209600
scalar OsgEarthNet.uav[23] utilizationSecMission 188731.02947414
scalar OsgEarthNet.uav[23] utilizationSecMaintenance 110821.78507227
scalar OsgEarthNet.uav[23] utilizationSecCharge 908205.18045359
scalar OsgEarthNet.uav[23] utilizationSecIdle 1842.004
scalar OsgEarthNet.uav[23] utilizationEnergyMission 918774.75078964
scalar OsgEarthNet.uav[23] utilizationEnergyMaintenance 521750.12747955
scalar OsgEarthNet.uav[23] utilizationEnergyCharge 1443824.8210449
scalar OsgEarthNet.uav[23] utilizationEnergyOverdrawMission 0
scalar OsgEarthNet.uav[23] utilizationEnergyOverdrawMaintenance 0
scalar OsgEarthNet.uav[23] utilizationCountMissions 337
scalar OsgEarthNet.uav[23] utilizationCountManeuversMission 6388
scalar OsgEarthNet.uav[23] utilizationCountManeuversMaintenance 674
scalar OsgEarthNet.uav[23] utilizationCountChargeState 337
scalar OsgEarthNet.uav[23] utilizationCountOverdrawnAfterMission 0
scalar OsgEarthNet.uav[23] utilizationCountIdleState 1
scalar OsgEarthNet.uav[23] utilizationFail 0
scalar OsgEarthNet.uav[23] simulationTime 1209600
scalar OsgEarthNet.uav[24] utilizationSecMission 188835.7792176
scalar OsgEarthNet.uav[24] utilizationSecMaintenance 105850.02485
scalar OsgEarthNet.uav[24] utilizationSecCharge 913312.1919324
scalar OsgEarthNet.uav[24] utilizationSecIdle 1602.003
scalar OsgEarthNet.uav[24] utilizationEnergyMission 910286.48085403
scalar OsgEarthNet.uav[24] utilizationEnergyMaintenance 499108.57215881
scalar OsgEarthNet.uav[24] utilizationEnergyCharge 1406748.9443359
scalar OsgEarthNet.uav[24] utilizationEnergyOverdrawMission 0
scalar OsgEarthNet.uav[24] utilizationEnergyOverdrawMaintenance 0
scalar OsgEarthNet.uav[24] utilizationCountMissions 337
scalar OsgEarthNet.uav[24] utilizationCountManeuversMission 5701
scalar OsgEarthNet.uav[24] utilizationCountManeuversMaintenance 674
scalar OsgEarthNet.uav[24] utilizationCountChargeState 337
scalar OsgEarthNet.uav[24] utilizationCountOverdrawnAfterMission 0
scalar OsgEarthNet.uav[24] utilizationCountIdleState 2
scalar OsgEarthNet.uav[24] utilizationFail 0
scalar OsgEarthNet.uav[24] simulationTime 1209600
scalar OsgEarthNet.uav[25] utilizationSecMission 198581.80798211
scalar OsgEarthNet.uav[25] utilizationSecMaintenance 100010.2678089
scalar OsgEarthNet.uav[25] utilizationSecCharge 909015.92020899
scalar OsgEarthNet.uav[25] utilizationSecIdle 1992.003
scalar OsgEarthNet.uav[25] utilizationEnergyMission 958959.3659935
scalar OsgEarthNet.uav[25] utilizationEnergyMaintenance 465824.69313049
scalar OsgEarthNet.uav[25] utilizationEnergyCharge 1423653.6437988
scalar OsgEarthNet.uav[25] utilizationEnergyOverdrawMission 0
scalar OsgEarthNet.uav[25] utilizationEnergyOverdrawMaintenance 0
scalar OsgEarthNet.uav[25] utilizationCountMissions 332
scalar OsgEarthNet.uav[25] utilizationCountManeuversMission 6232
scalar OsgEarthNet.uav[25] utilizationCountManeuversMaintenance 664
scalar OsgEarthNet.uav[25] utilizationCountChargeState 332
scalar OsgEarthNet.uav[25] utilizationCountOverdrawnAfterMission 0
scalar OsgEarthNet.uav[25] utilizationCountIdleState 2
scalar OsgEarthNet.uav[25] utilizationFail 0
scalar OsgEarthNet.uav[25] simulationTime 1209600
scalar OsgEarthNet.uav[26] utilizationSecMission 187422.79234652
scalar OsgEarthNet.uav[26] utilizationSecMaintenance 110590.83840196
scalar OsgEarthNet.uav[26] utilizationSecCharge 908112.20447861
scalar OsgEarthNet.uav[26] utilizationSecIdle 3474.1637729077
scalar OsgEarthNet.uav[26] utilizationEnergyMission 907842.90349579
scalar OsgEarthNet.uav[26] utilizationEnergyMaintenance 521453.95324707
scalar OsgEarthNet.uav[26] utilizationEnergyCharge 1435328.3947754
scalar OsgEarthNet.uav[26] utilizationEnergyOverdrawMission 0
scalar OsgEarthNet.uav[26] utilizationEnergyOverdrawMaintenance 0
scalar OsgEarthNet.uav[26] utilizationCountMissions 338
scalar OsgEarthNet.uav[26] utilizationCountManeuversMission 5967
scalar OsgEarthNet.uav[26] utilizationCountManeuversMaintenance 676
scalar OsgEarthNet.uav[26] utilizationCountChargeState 338
scalar OsgEarthNet.uav[26] utilizationCountOverdrawnAfterMission 0
scalar OsgEarthNet.uav[26] utilizationCountIdleState 1
scalar OsgEarthNet.uav[26] utilizationFail 0
scalar OsgEarthNet.uav[26] simulationTime 1209600
scalar OsgEarthNet.uav[27] utilizationSecMission 199991.5239857
scalar OsgEarthNet.uav[27] utilizationSecMaintenance 99738.480557924
scalar OsgEarthNet.uav[27] utilizationSecCharge 909867.99445637
scalar OsgEarthNet.uav[27] utilizationSecIdle 2
scalar OsgEarthNet.uav[27] utilizationEnergyMission 970661.62628555
scalar OsgEarthNet.uav[27] utilizationEnergyMaintenance 465235.78491974
scalar OsgEarthNet.uav[27] utilizationEnergyCharge 1434855.5681152
scalar OsgEarthNet.uav[27] utilizationEnergyOverdrawMission 0
scalar OsgEarthNet.uav[27] utilizationEnergyOverdrawMaintenance 0
scalar OsgEarthNet.uav[27] utilizationCountMissions 331
scalar OsgEarthNet.uav[27] utilizationCountManeuversMission 6344
scalar OsgEarthNet.uav[27] utilizationCountManeuversMaintenance 662
scalar OsgEarthNet.uav[27] utilizationCountChargeState 331
scalar OsgEarthNet.uav[27] utilizationCountOverdrawnAfterMission 0
scalar OsgEarthNet.uav[27] utilizationCountIdleState 1
scalar OsgEarthNet.uav[27] utilizationFail 0
scalar OsgEarthNet.uav[27] simulationTime 1209600
scalar OsgEarthNet.uav[28] utilizationSecMission 193127.8841605
scalar OsgEarthNet.uav[28] utilizationSecMaintenance 102973.21846436
scalar OsgEarthNet.uav[28] utilizationSecCharge 912750
scalar OsgEarthNet.uav[28] utilizationSecIdle 748.89637514353
scalar OsgEarthNet.uav[28] utilizationEnergyMission 934121.90616534
scalar OsgEarthNet.uav[28] utilizationEnergyMaintenance 483264.04657745
scalar OsgEarthNet.uav[28] utilizationEnergyCharge 1416356.1403809
scalar OsgEarthNet.uav[28] utilizationEnergyOverdrawMission 0
scalar OsgEarthNet.uav[28] utilizationEnergyOverdrawMaintenance 0
scalar OsgEarthNet.uav[28] utilizationCountMissions 333
scalar OsgEarthNet.uav[28] utilizationCountManeuversMission 5981
scalar OsgEarthNet.uav[28] utilizationCountManeuversMaintenance 667
scalar OsgEarthNet.uav[28] utilizationCountChargeState 333
scalar OsgEarthNet.uav[28] utilizationCountOverdrawnAfterMission 0
scalar OsgEarthNet.uav[28] utilizationCountIdleState 2
scalar OsgEarthNet.uav[28] utilizationFail 0
scalar OsgEarthNet.uav[28] simulationTime 1209600
scalar OsgEarthNet.uav[29] utilizationSecMission 191334.63698519
scalar OsgEarthNet.uav[29] utilizationSecMaintenance 111250.69027114
scalar OsgEarthNet.uav[29] utilizationSecCharge 907012.67174367
scalar OsgEarthNet.uav[29] utilizationSecIdle 2
scalar OsgEarthNet.uav[29] utilizationEnergyMission 924608.51914597
scalar OsgEarthNet.uav[29] utilizationEnergyMaintenance 526897.89732361
scalar OsgEarthNet.uav[29] utilizationEnergyCharge 1444877.1643066
scalar OsgEarthNet.uav[29] utilizationEnergyOverdrawMission 0
scalar OsgEarthNet.uav[29] utilizationEnergyOverdrawMaintenance 0
scalar OsgEarthNet.uav[29] utilizationCountMissions 340
scalar OsgEarthNet.uav[29] utilizationCountManeuversMission 5663
scalar OsgEarthNet.uav[29] utilizationCountManeuversMaintenance 680
scalar OsgEarthNet.uav[29] utilizationCountChargeState 340
scalar OsgEarthNet.uav[29] utilizationCountOverdrawnAfterMission 0
scalar OsgEarthNet.uav[29] utilizationCountIdleState 1
scalar OsgEarthNet.uav[29] utilizationFail 0
scalar OsgEarthNet.uav[29] simulationTime 1209600
scalar OsgEarthNet.uav[30] utilizationSecMission 193308.46126191
scalar OsgEarthNet.uav[30] utilizationSecMaintenance 105149.53473809
scalar OsgEarthNet.uav[30] utilizationSecCharge 909780
scalar OsgEarthNet.uav[30] utilizationSecIdle 1362.003
scalar OsgEarthNet.uav[30] utilizationEnergyMission 937388.99096639
scalar OsgEarthNet.uav[30] utilizationEnergyMaintenance 491140.05191421
scalar OsgEarthNet.uav[30] utilizationEnergyCharge 1428628.6242676
scalar OsgEarthNet.uav[30] utilizationEnergyOverdrawMission 0
scalar OsgEarthNet.uav[30] utilizationEnergyOverdrawMaintenance 0
scalar OsgEarthNet.uav[30] utilizationCountMissions 334
scalar OsgEarthNet.uav[30] utilizationCountManeuversMission 6148
scalar OsgEarthNet.uav[30] utilizationCountManeuversMaintenance 669
scalar OsgEarthNet.uav[30] utilizationCountChargeState 334
scalar OsgEarthNet.uav[30] utilizationCountOverdrawnAfterMission 0
scalar OsgEarthNet.uav[30] utilizationCountIdleState 1
scalar OsgEarthNet.uav[30] utilizationFail 0
scalar OsgEarthNet.uav[30] simulationTime 1209600
scalar OsgEarthNet.uav[31] utilizationSecMission 198721.07790604
scalar OsgEarthNet.uav[31] utilizationSecMaintenance 99439.405313259
scalar OsgEarthNet.uav[31] utilizationSecCharge 910814.90389119
scalar OsgEarthNet.uav[31] utilizationSecIdle 624.61188951643
scalar OsgEarthNet.uav[31] utilizationEnergyMission 956082.50019455
scalar OsgEarthNet.uav[31] utilizationEnergyMaintenance 465583.12494659
scalar OsgEarthNet.uav[31] utilizationEnergyCharge 1422062.9279785
scalar OsgEarthNet.uav[31] utilizationEnergyOverdrawMission 0
scalar OsgEarthNet.uav[31] utilizationEnergyOverdrawMaintenance 0
scalar OsgEarthNet.uav[31] utilizationCountMissions 332
scalar OsgEarthNet.uav[31] utilizationCountManeuversMission 5736
scalar OsgEarthNet.uav[31] utilizationCountManeuversMaintenance 664
scalar OsgEarthNet.uav[31] utilizationCountChargeState 332
scalar OsgEarthNet.uav[31] utilizationCountOverdrawnAfterMission 0
scalar OsgEarthNet.uav[31] utilizationCountIdleState 3
scalar OsgEarthNet.uav[31] utilizationFail 0
scalar OsgEarthNet.uav[31] simulationTime 1209600
scalar OsgEarthNet.uav[32] utilizationSecMission 187811.01703277
scalar OsgEarthNet.uav[32] utilizationSecMaintenance 110809.00882845
scalar OsgEarthNet.uav[32] utilizationSecCharge 910977.97313878
scalar OsgEarthNet.uav[32] utilizationSecIdle 2
scalar OsgEarthNet.uav[32] utilizationEnergyMission 910452.1230278
scalar OsgEarthNet.uav[32] utilizationEnergyMaintenance 521355.17654419
scalar OsgEarthNet.uav[32] utilizationEnergyCharge 1430030.0910645
scalar OsgEarthNet.uav[32] utilizationEnergyOverdrawMission 0
scalar OsgEarthNet.uav[32] utilizationEnergyOverdrawMaintenance 0
scalar OsgEarthNet.uav[32] utilizationCountMissions 340
scalar OsgEarthNet.uav[32] utilizationCountManeuversMission 6038
scalar OsgEarthNet.uav[32] utilizationCountManeuversMaintenance 680
scalar OsgEarthNet.uav[32] utilizationCountChargeState 340
scalar OsgEarthNet.uav[32] utilizationCountOverdrawnAfterMission 0
scalar OsgEarthNet.uav[32] utilizationCountIdleState 1
scalar OsgEarthNet.uav[32] utilizationFail 0
scalar OsgEarthNet.uav[32] simulationTime 1209600
scalar OsgEarthNet.uav[33] utilizationSecMission 182634.38375403
scalar OsgEarthNet.uav[33] utilizationSecMaintenance 115422.8886791
scalar OsgEarthNet.uav[33] utilizationSecCharge 911410.72656688
scalar OsgEarthNet.uav[33] utilizationSecIdle 132
scalar OsgEarthNet.uav[33] utilizationEnergyMission 884835.85923386
scalar OsgEarthNet.uav[33] utilizationEnergyMaintenance 546439.55704498
scalar OsgEarthNet.uav[33] utilizationEnergyCharge 1426488.6213379
scalar OsgEarthNet.uav[33] utilizationEnergyOverdrawMission 0
scalar OsgEarthNet.uav[33] utilizationEnergyOverdrawMaintenance 0
scalar OsgEarthNet.uav[33] utilizationCountMissions 344
scalar OsgEarthNet.uav[33] utilizationCountManeuversMission 5511
scalar OsgEarthNet.uav[33] utilizationCountManeuversMaintenance 687
scalar OsgEarthNet.uav[33] utilizationCountChargeState 344
scalar OsgEarthNet.uav[33] utilizationCountOverdrawnAfterMission 0
scalar OsgEarthNet.uav[33] utilizationCountIdleState 3
scalar OsgEarthNet.uav[33] utilizationFail 0
scalar OsgEarthNet.uav[33] simulationTime 1209600
scalar OsgEarthNet.uav[34] utilizationSecMission 190864.48979905
scalar OsgEarthNet.uav[34] utilizationSecMaintenance 106368.19311912
scalar OsgEarthNet.uav[34] utilizationSecCharge 909910
scalar OsgEarthNet.uav[34] utilizationSecIdle 2457.3160818306
scalar OsgEarthNet.uav[34] utilizationEnergyMission 922794.25473022
scalar OsgEarthNet.uav[34] utilizationEnergyMaintenance 501696.80082434
scalar OsgEarthNet.uav[34] utilizationEnergyCharge 1421025.8835449
scalar OsgEarthNet.uav[34] utilizationEnergyOverdrawMission 0
scalar OsgEarthNet.uav[34] utilizationEnergyOverdrawMaintenance 0
scalar OsgEarthNet.uav[34] utilizationCountMissions 336
scalar OsgEarthNet.uav[34] utilizationCountManeuversMission 5824
scalar OsgEarthNet.uav[34] utilizationCountManeuversMaintenance 672
scalar OsgEarthNet.uav[34] utilizationCountChargeState 335
scalar OsgEarthNet.uav[34] utilizationCountOverdrawnAfterMission 0
scalar OsgEarthNet.uav[34] utilizationCountIdleState 2
scalar OsgEarthNet.uav[34] utilizationFail 0
scalar OsgEarthNet.uav[34] simulationTime 1209600
scalar OsgEarthNet.uav[35] utilizationSecMission 201712.05855687
scalar OsgEarthNet.uav[35] utilizationSecMaintenance 97288.363940608
scalar OsgEarthNet.uav[35] utilizationSecCharge 910597.57650252
scalar OsgEarthNet.uav[35] utilizationSecIdle 2
scalar OsgEarthNet.uav[35] utilizationEnergyMission 980565.71692834
scalar OsgEarthNet.uav[35] utilizationEnergyMaintenance 453054.63933945
scalar OsgEarthNet.uav[35] utilizationEnergyCharge 1431362.2589111
scalar OsgEarthNet.uav[35] utilizationEnergyOverdrawMission 0
scalar OsgEarthNet.uav[35] utilizationEnergyOverdrawMaintenance 0
scalar OsgEarthNet.uav[35] utilizationCountMissions 329
scalar OsgEarthNet.uav[35] utilizationCountManeuversMission 6428
scalar OsgEarthNet.uav[35] utilizationCountManeuversMaintenance 657
scalar OsgEarthNet.uav[35] utilizationCountChargeState 329
scalar OsgEarthNet.uav[35] utilizationCountOverdrawnAfterMission 0
scalar OsgEarthNet.uav[35] utilizationCountIdleState 1
scalar OsgEarthNet.uav[35] utilizationFail 0
scalar OsgEarthNet.uav[35] simulationTime 1209600
scalar OsgEarthNet.uav[36] utilizationSecMission 192720.79708873
scalar OsgEarthNet.uav[36] utilizationSecMaintenance 107622.86835155
scalar OsgEarthNet.uav[36] utilizationSecCharge 906325.43087735
scalar OsgEarthNet.uav[36] utilizationSecIdle 2930.9026823698
scalar OsgEarthNet.uav[36] utilizationEnergyMission 928969.25411606
scalar OsgEarthNet.uav[36] utilizationEnergyMaintenance 504863.44903183
scalar OsgEarthNet.uav[36] utilizationEnergyCharge 1438409.1025391
scalar OsgEarthNet.uav[36] utilizationEnergyOverdrawMission 0
scalar OsgEarthNet.uav[36] utilizationEnergyOverdrawMaintenance 0
scalar OsgEarthNet.uav[36] utilizationCountMissions 334
scalar OsgEarthNet.uav[36] utilizationCountManeuversMission 6064
scalar OsgEarthNet.uav[36] utilizationCountManeuversMaintenance 668
scalar OsgEarthNet.uav[36] utilizationCountChargeState 334
scalar OsgEarthNet.uav[36] utilizationCountOverdrawnAfterMission 0
scalar OsgEarthNet.uav[36] utilizationCountIdleState 1
scalar OsgEarthNet.uav[36] utilizationFail 0
scalar OsgEarthNet.uav[36] simulationTime 1209600
scalar OsgEarthNet.uav[37] utilizationSecMission 187951.07186644
scalar OsgEarthNet.uav[37] utilizationSecMaintenance 110511.28381827
scalar OsgEarthNet.uav[37] utilizationSecCharge 909269.2897124
scalar OsgEarthNet.uav[37] utilizationSecIdle 1868.3536028792
scalar OsgEarthNet.uav[37] utilizationEnergyMission 912478.86913681
scalar OsgEarthNet.uav[37] utilizationEnergyMaintenance 521906.43389511
scalar OsgEarthNet.uav[37] utilizationEnergyCharge 1430393.5749512
scalar OsgEarthNet.uav[37] utilizationEnergyOverdrawMission 0
scalar OsgEarthNet.uav[37] utilizationEnergyOverdrawMaintenance 0
scalar OsgEarthNet.uav[37] utilizationCountMissions 338
scalar OsgEarthNet.uav[37] utilizationCountManeuversMission 5690
scalar OsgEarthNet.uav[37] utilizationCountManeuversMaintenance 676
scalar OsgEarthNet.uav[37] utilizationCountChargeState 338
scalar OsgEarthNet.uav[37] utilizationCountOverdrawnAfterMission 0
scalar OsgEarthNet.uav[37] utilizationCountIdleState 3
scalar OsgEarthNet.uav[37] utilizationFail 0
scalar OsgEarthNet.uav[37] simulationTime 1209600
scalar OsgEarthNet.uav[38] utilizationSecMission 192395.11423142
scalar OsgEarthNet.uav[38] utilizationSecMaintenance 101778.4835137
scalar OsgEarthNet.uav[38] utilizationSecCharge 913904.39825488
scalar OsgEarthNet.uav[38] utilizationSecIdle 1522.003
scalar OsgEarthNet.uav[38] utilizationEnergyMission 932634.58335495
scalar OsgEarthNet.uav[38] utilizationEnergyMaintenance 478263.08496094
scalar OsgEarthNet.uav[38] utilizationEnergyCharge 1409309.6313477
scalar OsgEarthNet.uav[38] utilizationEnergyOverdrawMission 0
scalar OsgEarthNet.uav[38] utilizationEnergyOverdrawMaintenance 0
scalar OsgEarthNet.uav[38] utilizationCountMissions 334
scalar OsgEarthNet.uav[38] utilizationCountManeuversMission 5887
scalar OsgEarthNet.uav[38] utilizationCountManeuversMaintenance 668
scalar OsgEarthNet.uav[38] utilizationCountChargeState 334
scalar OsgEarthNet.uav[38] utilizationCountOverdrawnAfterMission 0
scalar OsgEarthNet.uav[38] utilizationCountIdleState 1
scalar OsgEarthNet.uav[38] utilizationFail 0
scalar OsgEarthNet.uav[38] simulationTime 1209600
scalar OsgEarthNet.uav[39] utilizationSecMission 202093.36387609
scalar OsgEarthNet.uav[39] utilizationSecMaintenance 95824.607388623
scalar OsgEarthNet.uav[39] utilizationSecCharge 909241.07947962
scalar OsgEarthNet.uav[39] utilizationSecIdle 2440.9482556647
scalar OsgEarthNet.uav[39] utilizationEnergyMission 983336.7571907
scalar OsgEarthNet.uav[39] utilizationEnergyMaintenance 448017.0692215
scalar OsgEarthNet.uav[39] utilizationEnergyCharge 1423026.7456055
scalar OsgEarthNet.uav[39] utilizationEnergyOverdrawMission 0
scalar OsgEarthNet.uav[39] utilizationEnergyOverdrawMaintenance 0
scalar OsgEarthNet.uav[39] utilizationCountMissions 325
scalar OsgEarthNet.uav[39] utilizationCountManeuversMission 6594
scalar OsgEarthNet.uav[39] utilizationCountManeuversMaintenance 650
scalar OsgEarthNet.uav[39] utilizationCountChargeState 325
scalar OsgEarthNet.uav[39] utilizationCountOverdrawnAfterMission 0
scalar OsgEarthNet.uav[39] utilizationCountIdleState 1
scalar OsgEarthNet.uav[39] utilizationFail 0
scalar OsgEarthNet.uav[39] simulationTime 1209600
scalar OsgEarthNet.uav[40] utilizationSecMission 207520.18833177
scalar OsgEarthNet.uav[40] utilizationSecMaintenance 91720.250304768
scalar OsgEarthNet.uav[40] utilizationSecCharge 907211.47738367
scalar OsgEarthNet.uav[40] utilizationSecIdle 3148.0829797894
scalar OsgEarthNet.uav[40] utilizationEnergyMission 1006894.7999802
scalar OsgEarthNet.uav[40] utilizationEnergyMaintenance 423276.81232834
scalar OsgEarthNet.uav[40] utilizationEnergyCharge 1429362.0871582
scalar OsgEarthNet.uav[40] utilizationEnergyOverdrawMission 0
scalar OsgEarthNet.uav[40] utilizationEnergyOverdrawMaintenance 0
scalar OsgEarthNet.uav[40] utilizationCountMissions 324
scalar OsgEarthNet.uav[40] utilizationCountManeuversMission 6601
scalar OsgEarthNet.uav[40] utilizationCountManeuversMaintenance 648
scalar OsgEarthNet.uav[40] utilizationCountChargeState 324
scalar OsgEarthNet.uav[40] utilizationCountOverdrawnAfterMission 0
scalar OsgEarthNet.uav[40] utilizationCountIdleState 1
scalar OsgEarthNet.uav[40] utilizationFail 0
scalar OsgEarthNet.uav[40] simulationTime 1209600
scalar OsgEarthNet.uav[41] utilizationSecMission 191797.83813678
scalar OsgEarthNet.uav[41] utilizationSecMaintenance 107320.16086322
scalar OsgEarthNet.uav[41] utilizationSecCharge 910420
scalar OsgEarthNet.uav[41] utilizationSecIdle 62
scalar OsgEarthNet.uav[41] utilizationEnergyMission 934372.35014349
scalar OsgEarthNet.uav[41] utilizationEnergyMaintenance 505294.98017883
scalar OsgEarthNet.uav[41] utilizationEnergyCharge 1433515.1936035
scalar OsgEarthNet.uav[41] utilizationEnergyOverdrawMission 0
scalar OsgEarthNet.uav[41] utilizationEnergyOverdrawMaintenance 0
scalar OsgEarthNet.uav[41] utilizationCountMissions 336
scalar OsgEarthNet.uav[41] utilizationCountManeuversMission 6225
scalar OsgEarthNet.uav[41] utilizationCountManeuversMaintenance 672
scalar OsgEarthNet.uav[41] utilizationCountChargeState 336
scalar OsgEarthNet.uav[41] utilizationCountOverdrawnAfterMission 0
scalar OsgEarthNet.uav[41] utilizationCountIdleState 2
scalar OsgEarthNet.uav[41] utilizationFail 0
scalar OsgEarthNet.uav[41] simulationTime 1209600
scalar OsgEarthNet.uav[42] utilizationSecMission 189102.40253683
scalar OsgEarthNet.uav[42] utilizationSecMaintenance 103158.42135276
scalar OsgEarthNet.uav[42] utilizationSecCharge 916310
scalar OsgEarthNet.uav[42] utilizationSecIdle 1029.1751104107
scalar OsgEarthNet.uav[42] utilizationEnergyMission 907559.34223938
scalar OsgEarthNet.uav[42] utilizationEnergyMaintenance 485625.51488663
scalar OsgEarthNet.uav[42] utilizationEnergyCharge 1386414.793457
scalar OsgEarthNet.uav[42] utilizationEnergyOverdrawMission 0
scalar OsgEarthNet.uav[42] utilizationEnergyOverdrawMaintenance 0
scalar OsgEarthNet.uav[42] utilizationCountMissions 338
scalar OsgEarthNet.uav[42] utilizationCountManeuversMission 5399
scalar OsgEarthNet.uav[42] utilizationCountManeuversMaintenance 676
scalar OsgEarthNet.uav[42] utilizationCountChargeState 337
scalar OsgEarthNet.uav[42] utilizationCountOverdrawnAfterMission 0
scalar OsgEarthNet.uav[42] utilizationCountIdleState 3
scalar OsgEarthNet.uav[42] utilizationFail 0
scalar OsgEarthNet.uav[42] simulationTime 1209600
scalar OsgEarthNet.uav[43] utilizationSecMission 191781.29309784
scalar OsgEarthNet.uav[43] utilizationSecMaintenance 111054.77187011
scalar OsgEarthNet.uav[43] utilizationSecCharge 905832.4203711
scalar OsgEarthNet.uav[43] utilizationSecIdle 931.51366094966
scalar OsgEarthNet.uav[43] utilizationEnergyMission 928197.88612366
scalar OsgEarthNet.uav[43] utilizationEnergyMaintenance 521642.00020218
scalar OsgEarthNet.uav[43] utilizationEnergyCharge 1438622.5802002
scalar OsgEarthNet.uav[43] utilizationEnergyOverdrawMission 0
scalar OsgEarthNet.uav[43] utilizationEnergyOverdrawMaintenance 0
scalar OsgEarthNet.uav[43] utilizationCountMissions 338
scalar OsgEarthNet.uav[43] utilizationCountManeuversMission 6001
scalar OsgEarthNet.uav[43] utilizationCountManeuversMaintenance 676
scalar OsgEarthNet.uav[43] utilizationCountChargeState 338
scalar OsgEarthNet.uav[43] utilizationCountOverdrawnAfterMission 0
scalar OsgEarthNet.uav[43] utilizationCountIdleState 2
scalar OsgEarthNet.uav[43] utilizationFail 0
scalar OsgEarthNet.uav[43] simulationTime 1209600
scalar OsgEarthNet.uav[44] utilizationSecMission 191980.54988979
scalar OsgEarthNet.uav[44] utilizationSecMaintenance 105891.44925647
scalar OsgEarthNet.uav[44] utilizationSecCharge 909720
scalar OsgEarthNet.uav[44] utilizationSecIdle 2007.9998537412
scalar OsgEarthNet.uav[44] utilizationEnergyMission 936601.25409317
scalar OsgEarthNet.uav[44] utilizationEnergyMaintenance 494803.93351891
scalar OsgEarthNet.uav[44] utilizationEnergyCharge 1424850.5410156
scalar OsgEarthNet.uav[44] utilizationEnergyOverdrawMission 0
scalar OsgEarthNet.uav[44] utilizationEnergyOverdrawMaintenance 0
scalar OsgEarthNet.uav[44] utilizationCountMissions 336
scalar OsgEarthNet.uav[44] utilizationCountManeuversMission 6463
scalar OsgEarthNet.uav[44] utilizationCountManeuversMaintenance 672
scalar OsgEarthNet.uav[44] utilizationCountChargeState 335
scalar OsgEarthNet.uav[44] utilizationCountOverdrawnAfterMission 0
scalar OsgEarthNet.uav[44] utilizationCountIdleState 2
scalar OsgEarthNet.uav[44] utilizationFail 0
scalar OsgEarthNet.uav[44] simulationTime 1209600
scalar OsgEarthNet.uav[45] utilizationSecMission 182603.46386419
scalar OsgEarthNet.uav[45] utilizationSecMaintenance 109864.59129282
scalar OsgEarthNet.uav[45] utilizationSecCharge 917129.943843
scalar OsgEarthNet.uav[45] utilizationSecIdle 2
scalar OsgEarthNet.uav[45] utilizationEnergyMission 881376.91358566
scalar OsgEarthNet.uav[45] utilizationEnergyMaintenance 520403.33241653
scalar OsgEarthNet.uav[45] utilizationEnergyCharge 1399568.4715576
scalar OsgEarthNet.uav[45] utilizationEnergyOverdrawMission 0
scalar OsgEarthNet.uav[45] utilizationEnergyOverdrawMaintenance 0
scalar OsgEarthNet.uav[45] utilizationCountMissions 342
scalar OsgEarthNet.uav[45] utilizationCountManeuversMission 5428
scalar OsgEarthNet.uav[45] utilizationCountManeuversMaintenance 684
scalar OsgEarthNet.uav[45] utilizationCountChargeState 342
scalar OsgEarthNet.uav[45] utilizationCountOverdrawnAfterMission 0
scalar OsgEarthNet.uav[45] utilizationCountIdleState 1
scalar OsgEarthNet.uav[45] utilizationFail 0
scalar OsgEarthNet.uav[45] simulationTime 1209600
scalar OsgEarthNet.uav[46] utilizationSecMission 189838.42481417
scalar OsgEarthNet.uav[46] utilizationSecMaintenance 107349.56818583
scalar OsgEarthNet.uav[46] utilizationSecCharge 909550
scalar OsgEarthNet.uav[46] utilizationSecIdle 2862.006
scalar OsgEarthNet.uav[46] utilizationEnergyMission 915563.3257391
scalar OsgEarthNet.uav[46] utilizationEnergyMaintenance 509838.08315659
scalar OsgEarthNet.uav[46] utilizationEnergyCharge 1421542.9902344
scalar OsgEarthNet.uav[46] utilizationEnergyOverdrawMission 0
scalar OsgEarthNet.uav[46] utilizationEnergyOverdrawMaintenance 0
scalar OsgEarthNet.uav[46] utilizationCountMissions 338
scalar OsgEarthNet.uav[46] utilizationCountManeuversMission 5518
scalar OsgEarthNet.uav[46] utilizationCountManeuversMaintenance 677
scalar OsgEarthNet.uav[46] utilizationCountChargeState 338
scalar OsgEarthNet.uav[46] utilizationCountOverdrawnAfterMission 0
scalar OsgEarthNet.uav[46] utilizationCountIdleState 2
scalar OsgEarthNet.uav[46] utilizationFail 0
scalar OsgEarthNet.uav[46] simulationTime 1209600
scalar OsgEarthNet.uav[47] utilizationSecMission 182575.34962244
scalar OsgEarthNet.uav[47] utilizationSecMaintenance 118862.64737756
scalar OsgEarthNet.uav[47] utilizationSecCharge 907140
scalar OsgEarthNet.uav[47] utilizationSecIdle 1022.002
scalar OsgEarthNet.uav[47] utilizationEnergyMission 888949.14556278
scalar OsgEarthNet.uav[47] utilizationEnergyMaintenance 560596.16110611
scalar OsgEarthNet.uav[47] utilizationEnergyCharge 1446166.098877
scalar OsgEarthNet.uav[47] utilizationEnergyOverdrawMission 0
scalar OsgEarthNet.uav[47] utilizationEnergyOverdrawMaintenance 0
scalar OsgEarthNet.uav[47] utilizationCountMissions 344
scalar OsgEarthNet.uav[47] utilizationCountManeuversMission 5892
scalar OsgEarthNet.uav[47] utilizationCountManeuversMaintenance 689
scalar OsgEarthNet.uav[47] utilizationCountChargeState 344
scalar OsgEarthNet.uav[47] utilizationCountOverdrawnAfterMission 0
scalar OsgEarthNet.uav[47] utilizationCountIdleState 1
scalar OsgEarthNet.uav[47] utilizationFail 0
scalar OsgEarthNet.uav[47] simulationTime 1209600
scalar OsgEarthNet.uav[48] utilizationSecMission 203073.66019024
scalar OsgEarthNet.uav[48] utilizationSecMaintenance 95007.22366035
scalar OsgEarthNet.uav[48] utilizationSecCharge 910817.11414941
scalar OsgEarthNet.uav[48] utilizationSecIdle 702.001
scalar OsgEarthNet.uav[48] utilizationEnergyMission 984672.34022903
scalar OsgEarthNet.uav[48] utilizationEnergyMaintenance 442176.63039398
scalar OsgEarthNet.uav[48] utilizationEnergyCharge 1426254.979248
scalar OsgEarthNet.uav[48] utilizationEnergyOverdrawMission 0
scalar OsgEarthNet.uav[48] utilizationEnergyOverdrawMaintenance 0
scalar OsgEarthNet.uav[48] utilizationCountMissions 325
scalar OsgEarthNet.uav[48] utilizationCountManeuversMission 6588
scalar OsgEarthNet.uav[48] utilizationCountManeuversMaintenance 650
scalar OsgEarthNet.uav[48] utilizationCountChargeState 325
scalar OsgEarthNet.uav[48] utilizationCountOverdrawnAfterMission 0
scalar OsgEarthNet.uav[48] utilizationCountIdleState 1
scalar OsgEarthNet.uav[48] utilizationFail 0
scalar OsgEarthNet.uav[48] simulationTime 1209600
scalar OsgEarthNet.uav[49] utilizationSecMission 201109.8915261
scalar OsgEarthNet.uav[49] utilizationSecMaintenance 98197.410091069
scalar OsgEarthNet.uav[49] utilizationSecCharge 910290.69738283
scalar OsgEarthNet.uav[49] utilizationSecIdle 2
scalar OsgEarthNet.uav[49] utilizationEnergyMission 983063.19700623
scalar OsgEarthNet.uav[49] utilizationEnergyMaintenance 458499.09365082
scalar OsgEarthNet.uav[49] utilizationEnergyCharge 1438652.4387207
scalar OsgEarthNet.uav[49] utilizationEnergyOverdrawMission 0
scalar OsgEarthNet.uav[49] utilizationEnergyOverdrawMaintenance 0
scalar OsgEarthNet.uav[49] utilizationCountMissions 329
scalar OsgEarthNet.uav[49] utilizationCountManeuversMission 6601
scalar OsgEarthNet.uav[49] utilizationCountManeuversMaintenance 657
scalar OsgEarthNet.uav[49] utilizationCountChargeState 329
scalar OsgEarthNet.uav[49] utilizationCountOverdrawnAfterMission 0
scalar OsgEarthNet.uav[49] utilizationCountIdleState 1
scalar OsgEarthNet.uav[49] utilizationFail 0
scalar OsgEarthNet.uav[49] simulationTime 1209600
scalar OsgEarthNet.uav[50] utilizationSecMission 200025.81315623
scalar OsgEarthNet.uav[50] utilizationSecMaintenance 98984.159798073
scalar OsgEarthNet.uav[50] utilizationSecCharge 908254.13136891
scalar OsgEarthNet.uav[50] utilizationSecIdle 2335.8946767885
scalar OsgEarthNet.uav[50] utilizationEnergyMission 962889.07789612
scalar OsgEarthNet.uav[50] utilizationEnergyMaintenance 461788.26488495
scalar OsgEarthNet.uav[50] utilizationEnergyCharge 1420207.8891602
scalar OsgEarthNet.uav[50] utilizationEnergyOverdrawMission 0
scalar OsgEarthNet.uav[50] utilizationEnergyOverdrawMaintenance 0
scalar OsgEarthNet.uav[50] utilizationCountMissions 329
scalar OsgEarthNet.uav[50] utilizationCountManeuversMission 5859
scalar OsgEarthNet.uav[50] utilizationCountManeuversMaintenance 658
scalar OsgEarthNet.uav[50] utilizationCountChargeState 329
scalar OsgEarthNet.uav[50] utilizationCountOverdrawnAfterMission 0
scalar OsgEarthNet.uav[50] utilizationCountIdleState 1
scalar OsgEarthNet.uav[50] utilizationFail 0
scalar OsgEarthNet.uav[50] simulationTime 1209600
scalar OsgEarthNet.uav[51] utilizationSecMission 197295.6181393
scalar OsgEarthNet.uav[51] utilizationSecMaintenance 101448.93977201
scalar OsgEarthNet.uav[51] utilizationSecCharge 909050
scalar OsgEarthNet.uav[51] utilizationSecIdle 1805.4410886909
scalar OsgEarthNet.uav[51] utilizationEnergyMission 956441.31298065
scalar OsgEarthNet.uav[51] utilizationEnergyMaintenance 472921.97229609
scalar OsgEarthNet.uav[51] utilizationEnergyCharge 1428035.8564453
scalar OsgEarthNet.uav[51] utilizationEnergyOverdrawMission 0
scalar OsgEarthNet.uav[51] utilizationEnergyOverdrawMaintenance 0
scalar OsgEarthNet.uav[51] utilizationCountMissions 330
scalar OsgEarthNet.uav[51] utilizationCountManeuversMission 6104
scalar OsgEarthNet.uav[51] utilizationCountManeuversMaintenance 661
scalar OsgEarthNet.uav[51] utilizationCountChargeState 330
scalar OsgEarthNet.uav[51] utilizationCountOverdrawnAfterMission 0
scalar OsgEarthNet.uav[51] utilizationCountIdleState 1
scalar OsgEarthNet.uav[51] utilizationFail 0
scalar OsgEarthNet.uav[51] simulationTime 1209600
scalar OsgEarthNet.uav[52] utilizationSecMission 187278.86626754
scalar OsgEarthNet.uav[52] utilizationSecMaintenance 107726.31463081
scalar OsgEarthNet.uav[52] utilizationSecCharge 914512.81810165
scalar OsgEarthNet.uav[52] utilizationSecIdle 82
scalar OsgEarthNet.uav[52] utilizationEnergyMission 906117.23770528
scalar OsgEarthNet.uav[52] utilizationEnergyMaintenance 505910.24232864
scalar OsgEarthNet.uav[52] utilizationEnergyCharge 1408728.2719727
scalar OsgEarthNet.uav[52] utilizationEnergyOverdrawMission 0
scalar OsgEarthNet.uav[52] utilizationEnergyOverdrawMaintenance 0
scalar OsgEarthNet.uav[52] utilizationCountMissions 340
scalar OsgEarthNet.uav[52] utilizationCountManeuversMission 5519
scalar OsgEarthNet.uav[52] utilizationCountManeuversMaintenance 679
scalar OsgEarthNet.uav[52] utilizationCountChargeState 340
scalar OsgEarthNet.uav[52] utilizationCountOverdrawnAfterMission 0
scalar OsgEarthNet.uav[52] utilizationCountIdleState 3
scalar OsgEarthNet.uav[52] utilizationFail 0
scalar OsgEarthNet.uav[52] simulationTime 1209600
scalar OsgEarthNet.uav[53] utilizationSecMission 191738.01167004
scalar OsgEarthNet.uav[53] utilizationSecMaintenance 103591.11026722
scalar OsgEarthNet.uav[53] utilizationSecCharge 912598.7372496
scalar OsgEarthNet.uav[53] utilizationSecIdle 1672.1398131443
scalar OsgEarthNet.uav[53] utilizationEnergyMission 932311.07581711
scalar OsgEarthNet.uav[53] utilizationEnergyMaintenance 486790.75335693
scalar OsgEarthNet.uav[53] utilizationEnergyCharge 1412860.369873
scalar OsgEarthNet.uav[53] utilizationEnergyOverdrawMission 0
scalar OsgEarthNet.uav[53] utilizationEnergyOverdrawMaintenance 0
scalar OsgEarthNet.uav[53] utilizationCountMissions 335
scalar OsgEarthNet.uav[53] utilizationCountManeuversMission 5838
scalar OsgEarthNet.uav[53] utilizationCountManeuversMaintenance 670
scalar OsgEarthNet.uav[53] utilizationCountChargeState 335
scalar OsgEarthNet.uav[53] utilizationCountOverdrawnAfterMission 0
scalar OsgEarthNet.uav[53] utilizationCountIdleState 1
scalar OsgEarthNet.uav[53] utilizationFail 0
scalar OsgEarthNet.uav[53] simulationTime 1209600
scalar OsgEarthNet.uav[54] utilizationSecMission 187332.76419376
scalar OsgEarthNet.uav[54] utilizationSecMaintenance 112757.89090858
scalar OsgEarthNet.uav[54] utilizationSecCharge 907978.37991198
scalar OsgEarthNet.uav[54] utilizationSecIdle 1530.9639856735
scalar OsgEarthNet.uav[54] utilizationEnergyMission 913468.33713913
scalar OsgEarthNet.uav[54] utilizationEnergyMaintenance 528447.84855652
scalar OsgEarthNet.uav[54] utilizationEnergyCharge 1439684.8374634
scalar OsgEarthNet.uav[54] utilizationEnergyOverdrawMission 0
scalar OsgEarthNet.uav[54] utilizationEnergyOverdrawMaintenance 0
scalar OsgEarthNet.uav[54] utilizationCountMissions 339
scalar OsgEarthNet.uav[54] utilizationCountManeuversMission 6170
scalar OsgEarthNet.uav[54] utilizationCountManeuversMaintenance 678
scalar OsgEarthNet.uav[54] utilizationCountChargeState 339
scalar OsgEarthNet.uav[54] utilizationCountOverdrawnAfterMission 0
scalar OsgEarthNet.uav[54] utilizationCountIdleState 2
scalar OsgEarthNet.uav[54] utilizationFail 0
scalar OsgEarthNet.uav[54] simulationTime 1209600
scalar OsgEarthNet.uav[55] utilizationSecMission 200011.93477195
scalar OsgEarthNet.uav[55] utilizationSecMaintenance 99210.863710577
scalar OsgEarthNet.uav[55] utilizationSecCharge 908937.77517019
scalar OsgEarthNet.uav[55] utilizationSecIdle 1439.4253472904
scalar OsgEarthNet.uav[55] utilizationEnergyMission 973037.69842148
scalar OsgEarthNet.uav[55] utilizationEnergyMaintenance 459263.09972382
scalar OsgEarthNet.uav[55] utilizationEnergyCharge 1431419.1202393
scalar OsgEarthNet.uav[55] utilizationEnergyOverdrawMission 0
scalar OsgEarthNet.uav[55] utilizationEnergyOverdrawMaintenance 0
scalar OsgEarthNet.uav[55] utilizationCountMissions 328
scalar OsgEarthNet.uav[55] utilizationCountManeuversMission 6348
scalar OsgEarthNet.uav[55] utilizationCountManeuversMaintenance 656
scalar OsgEarthNet.uav[55] utilizationCountChargeState 328
scalar OsgEarthNet.uav[55] utilizationCountOverdrawnAfterMission 0
scalar OsgEarthNet.uav[55] utilizationCountIdleState 1
scalar OsgEarthNet.uav[55] utilizationFail 0
scalar OsgEarthNet.uav[55] simulationTime 1209600
scalar OsgEarthNet.cs[0] usedPower 19764186.474935
scalar OsgEarthNet.cs[0] chargedPower 19764186.474935
scalar OsgEarthNet.cs[0] chargedMobileNodes 1
scalar OsgEarthNet.cs[0] reservations 4633
scalar OsgEarthNet.cs[1] usedPower 26776744.576874
scalar OsgEarthNet.cs[1] chargedPower 26776744.576874
scalar OsgEarthNet.cs[1] chargedMobileNodes 44
scalar OsgEarthNet.cs[1] reservations 6632
scalar OsgEarthNet.cs[2] usedPower 33315824.407253
scalar OsgEarthNet.cs[2] chargedPower 33315824.407253
scalar OsgEarthNet.cs[2] chargedMobileNodes 5
scalar OsgEarthNet.cs[2] reservations 7487

