version 2
run Szenario_Hotel_Gabelbach-78-20180718-23:21:19-28012
attr configname Szenario_Hotel_Gabelbach
attr datetime 20180718-23:21:19
attr experiment Szenario_Hotel_Gabelbach
attr inifile omnetpp.ini
attr iterationvars "$replM=2, $biWeight=0.35, $replSearchM=1, $numUAVs=56"
attr iterationvarsf replM=2,biWeight=0.35,replSearchM=1,numUAVs=56-
attr measurement "$replM=2, $biWeight=0.35, $replSearchM=1, $numUAVs=56"
attr network OsgEarthNet
attr processid 28012
attr repetition 30
attr replication #30
attr resultdir results
attr runnumber 78
attr seedset 78
itervar biWeight 0.35
itervar numUAVs 56
itervar replM 2
itervar replSearchM 1
param *.osgEarthScene.scene "\"Szenario_Hotel_Gabelbach.earth\""
param *.playgroundLatitude 50.6830269
param *.playgroundLongitude 10.8538055
param *.playgroundWidth 3500m
param *.playgroundHeight 3500m
param *.cs[0].posX 3537m
param *.cs[0].posY 965m
param *.cs[0].posZ 538m
param *.cs[1].posX 312m
param *.cs[1].posY 1262m
param *.cs[1].posZ 539m
param *.cs[2].posX 2185m
param *.cs[2].posY 3026m
param *.cs[2].posZ 777m
param *.cs[3].posX 10m
param *.cs[3].posY 2200m
param *.cs[3].posZ 560m
param *.cs[4].posX 750m
param *.cs[4].posY 200m
param *.cs[4].posZ 540m
param *.cs[5].posX 2450m
param *.cs[5].posY 180m
param *.cs[5].posZ 524m
param *.cs[6].posX 3140m
param *.cs[6].posY 1790m
param *.cs[6].posZ 606m
param *.numCSs 3
param *.uav[*].replacementMethod 2
param *.uav[*].weightedSumWeight 0.35
param *.missionControl.replacementSearchMethod 1
param *.numUAVs 56
param *.*.timeStep 10s
param *.uav[*].commandPreviewCommandCount 20
param *.missionControl.missionFiles "\"missions\\\\Szenario_WB_Hotel_Gabelbach_Mission_Hotel.waypoints,missions\\\\Szenario_WB_Hotel_Gabelbach_Mission_Kickelhahn.waypoints,missions\\\\Szenario_WB_Hotel_Gabelbach_Mission_Ilmenau_Sportplatz.waypoints,missions\\\\Szenario_WB_Hotel_Gabelbach_Mission_Manebach_Mitte.waypoints,missions\\\\Szenario_WB_Hotel_Gabelbach_Mission_Manebach_Sued.waypoints,missions\\\\Szenario_WB_Hotel_Gabelbach_Hover_HoheSchlaufe.waypoints,missions\\\\Szenario_WB_Hotel_Gabelbach_Hover_Kickelhahn.waypoints,missions\\\\Szenario_WB_Hotel_Gabelbach_Hover_Gabelbachskopf.waypoints,missions\\\\Szenario_WB_Hotel_Gabelbach_Hover_Dachskopf.waypoints\""
param *.uav[0].startX 3537m
param *.uav[0].startY 965m
param *.uav[0].startZ 539m
param *.uav[1].startX 312m
param *.uav[1].startY 1262m
param *.uav[1].startZ 540m
param *.uav[2].startX 2185m
param *.uav[2].startY 3026m
param *.uav[2].startZ 778m
param *.uav[3].startX 3537m
param *.uav[3].startY 965m
param *.uav[3].startZ 539m
param *.uav[4].startX 312m
param *.uav[4].startY 1262m
param *.uav[4].startZ 540m
param *.uav[5].startX 2185m
param *.uav[5].startY 3026m
param *.uav[5].startZ 778m
param *.uav[6].startX 3537m
param *.uav[6].startY 965m
param *.uav[6].startZ 539m
param *.uav[7].startX 312m
param *.uav[7].startY 1262m
param *.uav[7].startZ 540m
param *.uav[8].startX 2185m
param *.uav[8].startY 3026m
param *.uav[8].startZ 778m
param *.uav[9].startX 3537m
param *.uav[9].startY 965m
param *.uav[9].startZ 539m
param *.uav[10].startX 3537m
param *.uav[10].startY 965m
param *.uav[10].startZ 539m
param *.uav[11].startX 312m
param *.uav[11].startY 1262m
param *.uav[11].startZ 540m
param *.uav[12].startX 2185m
param *.uav[12].startY 3026m
param *.uav[12].startZ 778m
param *.uav[13].startX 3537m
param *.uav[13].startY 965m
param *.uav[13].startZ 539m
param *.uav[14].startX 312m
param *.uav[14].startY 1262m
param *.uav[14].startZ 540m
param *.uav[15].startX 2185m
param *.uav[15].startY 3026m
param *.uav[15].startZ 778m
param *.uav[16].startX 3537m
param *.uav[16].startY 965m
param *.uav[16].startZ 539m
param *.uav[17].startX 312m
param *.uav[17].startY 1262m
param *.uav[17].startZ 540m
param *.uav[18].startX 2185m
param *.uav[18].startY 3026m
param *.uav[18].startZ 778m
param *.uav[19].startX 3537m
param *.uav[19].startY 965m
param *.uav[19].startZ 539m
param *.uav[20].startX 3537m
param *.uav[20].startY 965m
param *.uav[20].startZ 539m
param *.uav[21].startX 312m
param *.uav[21].startY 1262m
param *.uav[21].startZ 540m
param *.uav[22].startX 2185m
param *.uav[22].startY 3026m
param *.uav[22].startZ 778m
param *.uav[23].startX 3537m
param *.uav[23].startY 965m
param *.uav[23].startZ 539m
param *.uav[24].startX 312m
param *.uav[24].startY 1262m
param *.uav[24].startZ 540m
param *.uav[25].startX 2185m
param *.uav[25].startY 3026m
param *.uav[25].startZ 778m
param *.uav[26].startX 3537m
param *.uav[26].startY 965m
param *.uav[26].startZ 539m
param *.uav[27].startX 312m
param *.uav[27].startY 1262m
param *.uav[27].startZ 540m
param *.uav[28].startX 2185m
param *.uav[28].startY 3026m
param *.uav[28].startZ 778m
param *.uav[29].startX 3537m
param *.uav[29].startY 965m
param *.uav[29].startZ 539m
param *.uav[30].startX 3537m
param *.uav[30].startY 965m
param *.uav[30].startZ 539m
param *.uav[31].startX 312m
param *.uav[31].startY 1262m
param *.uav[31].startZ 540m
param *.uav[32].startX 2185m
param *.uav[32].startY 3026m
param *.uav[32].startZ 778m
param *.uav[33].startX 3537m
param *.uav[33].startY 965m
param *.uav[33].startZ 539m
param *.uav[34].startX 312m
param *.uav[34].startY 1262m
param *.uav[34].startZ 540m
param *.uav[35].startX 2185m
param *.uav[35].startY 3026m
param *.uav[35].startZ 778m
param *.uav[36].startX 3537m
param *.uav[36].startY 965m
param *.uav[36].startZ 539m
param *.uav[37].startX 312m
param *.uav[37].startY 1262m
param *.uav[37].startZ 540m
param *.uav[38].startX 2185m
param *.uav[38].startY 3026m
param *.uav[38].startZ 778m
param *.uav[39].startX 3537m
param *.uav[39].startY 965m
param *.uav[39].startZ 539m
param *.uav[40].startX 3537m
param *.uav[40].startY 965m
param *.uav[40].startZ 539m
param *.uav[41].startX 312m
param *.uav[41].startY 1262m
param *.uav[41].startZ 540m
param *.uav[42].startX 2185m
param *.uav[42].startY 3026m
param *.uav[42].startZ 778m
param *.uav[43].startX 3537m
param *.uav[43].startY 965m
param *.uav[43].startZ 539m
param *.uav[44].startX 312m
param *.uav[44].startY 1262m
param *.uav[44].startZ 540m
param *.uav[45].startX 2185m
param *.uav[45].startY 3026m
param *.uav[45].startZ 778m
param *.uav[46].startX 3537m
param *.uav[46].startY 965m
param *.uav[46].startZ 539m
param *.uav[47].startX 312m
param *.uav[47].startY 1262m
param *.uav[47].startZ 540m
param *.uav[48].startX 2185m
param *.uav[48].startY 3026m
param *.uav[48].startZ 778m
param *.uav[49].startX 3537m
param *.uav[49].startY 965m
param *.uav[49].startZ 539m
param *.uav[50].startX 3537m
param *.uav[50].startY 965m
param *.uav[50].startZ 539m
param *.uav[51].startX 312m
param *.uav[51].startY 1262m
param *.uav[51].startZ 540m
param *.uav[52].startX 2185m
param *.uav[52].startY 3026m
param *.uav[52].startZ 778m
param *.uav[53].startX 3537m
param *.uav[53].startY 965m
param *.uav[53].startZ 539m
param *.uav[54].startX 312m
param *.uav[54].startY 1262m
param *.uav[54].startZ 540m
param *.uav[55].startX 2185m
param *.uav[55].startY 3026m
param *.uav[55].startZ 778m
param *.uav[56].startX 3537m
param *.uav[56].startY 965m
param *.uav[56].startZ 539m
param *.uav[57].startX 312m
param *.uav[57].startY 1262m
param *.uav[57].startZ 540m
param *.uav[58].startX 2185m
param *.uav[58].startY 3026m
param *.uav[58].startZ 778m
param *.uav[59].startX 3537m
param *.uav[59].startY 965m
param *.uav[59].startZ 539m
param *.uav[60].startX 3537m
param *.uav[60].startY 965m
param *.uav[60].startZ 539m
param *.uav[61].startX 312m
param *.uav[61].startY 1262m
param *.uav[61].startZ 540m
param *.uav[62].startX 2185m
param *.uav[62].startY 3026m
param *.uav[62].startZ 778m
param *.uav[63].startX 3537m
param *.uav[63].startY 965m
param *.uav[63].startZ 539m
param *.uav[64].startX 312m
param *.uav[64].startY 1262m
param *.uav[64].startZ 540m
param *.uav[65].startX 2185m
param *.uav[65].startY 3026m
param *.uav[65].startZ 778m
param *.uav[66].startX 3537m
param *.uav[66].startY 965m
param *.uav[66].startZ 539m
param *.uav[67].startX 312m
param *.uav[67].startY 1262m
param *.uav[67].startZ 540m
param *.uav[68].startX 2185m
param *.uav[68].startY 3026m
param *.uav[68].startZ 778m
param *.uav[69].startX 3537m
param *.uav[69].startY 965m
param *.uav[69].startZ 539m
param *.uav[70].startX 3537m
param *.uav[70].startY 965m
param *.uav[70].startZ 539m
param *.uav[71].startX 312m
param *.uav[71].startY 1262m
param *.uav[71].startZ 540m
param *.uav[72].startX 2185m
param *.uav[72].startY 3026m
param *.uav[72].startZ 778m
param *.uav[73].startX 3537m
param *.uav[73].startY 965m
param *.uav[73].startZ 539m
param *.uav[74].startX 312m
param *.uav[74].startY 1262m
param *.uav[74].startZ 540m
param *.uav[75].startX 2185m
param *.uav[75].startY 3026m
param *.uav[75].startZ 778m
param *.uav[76].startX 3537m
param *.uav[76].startY 965m
param *.uav[76].startZ 539m
param *.uav[77].startX 312m
param *.uav[77].startY 1262m
param *.uav[77].startZ 540m
param *.uav[78].startX 2185m
param *.uav[78].startY 3026m
param *.uav[78].startZ 778m
param *.uav[79].startX 3537m
param *.uav[79].startY 965m
param *.uav[79].startZ 539m
param *.uav[80].startX 3537m
param *.uav[80].startY 965m
param *.uav[80].startZ 539m
param *.uav[81].startX 312m
param *.uav[81].startY 1262m
param *.uav[81].startZ 540m
param *.uav[82].startX 2185m
param *.uav[82].startY 3026m
param *.uav[82].startZ 778m
param *.uav[83].startX 3537m
param *.uav[83].startY 965m
param *.uav[83].startZ 539m
param *.uav[84].startX 312m
param *.uav[84].startY 1262m
param *.uav[84].startZ 540m
param *.uav[85].startX 2185m
param *.uav[85].startY 3026m
param *.uav[85].startZ 778m
param *.uav[86].startX 3537m
param *.uav[86].startY 965m
param *.uav[86].startZ 539m
param *.uav[87].startX 312m
param *.uav[87].startY 1262m
param *.uav[87].startZ 540m
param *.uav[88].startX 2185m
param *.uav[88].startY 3026m
param *.uav[88].startZ 778m
param *.uav[89].startX 3537m
param *.uav[89].startY 965m
param *.uav[89].startZ 539m
param *.uav[90].startX 3537m
param *.uav[90].startY 965m
param *.uav[90].startZ 539m
param *.uav[91].startX 312m
param *.uav[91].startY 1262m
param *.uav[91].startZ 540m
param *.uav[92].startX 2185m
param *.uav[92].startY 3026m
param *.uav[92].startZ 778m
param *.uav[93].startX 3537m
param *.uav[93].startY 965m
param *.uav[93].startZ 539m
param *.uav[94].startX 312m
param *.uav[94].startY 1262m
param *.uav[94].startZ 540m
param *.uav[95].startX 2185m
param *.uav[95].startY 3026m
param *.uav[95].startZ 778m
param *.uav[96].startX 3537m
param *.uav[96].startY 965m
param *.uav[96].startZ 539m
param *.uav[97].startX 312m
param *.uav[97].startY 1262m
param *.uav[97].startZ 540m
param *.uav[98].startX 2185m
param *.uav[98].startY 3026m
param *.uav[98].startZ 778m
param *.uav[99].startX 3537m
param *.uav[99].startY 965m
param *.uav[99].startZ 539m
param *.osgEarthScene.scene "\"boston.earth\""
param *.playgroundLatitude 42.3558
param *.playgroundLongitude -71.0677
param *.playgroundWidth 400m
param *.playgroundHeight 200m
param *.channelController.connectionColor "\"#0000FF40\""
param *.channelController.showConnections false
param *.uav[*].modelURL "\"quadrocopter.small.obj.15.scale.0,0,90.rot\""
param *.uav[*].labelColor "\"#FF7C00CC\""
param *.uav[*].label2Color "\"#FF7C00EE\""
param *.uav[*].batteryCapacity 5200mAh
param *.uav[*].batteryRemaining uav[index].batteryCapacity
param *.uav[*].predictionQuantile 0.95
param *.uav[*].replacementMethod 2
param *.uav[*].weightedSumWeight 0.5
param *.cs[*].modelURL "\"chargingstation_v1.osgt.2.scale.0,0,0.rot.0,0,-15e-1.trans\""
param *.cs[*].spotsWaiting 999
param *.cs[*].spotsCharging 999
param *.cs[*].chargeEffectivenessPercentage 100
param *.cs[*].nonLinearPhaseStartPercentage 85
param *.cs[*].chargeCurrent 6.0A
param *.cs[*].prioritizeFastCharge true
param *.missionControl.replacementSearchMethod 0
param *.*.timeStep 9s

scalar OsgEarthNet.uav[0] utilizationSecMission 200527.16327254
scalar OsgEarthNet.uav[0] utilizationSecMaintenance 100479.84847397
scalar OsgEarthNet.uav[0] utilizationSecCharge 908560.98725349
scalar OsgEarthNet.uav[0] utilizationSecIdle 32
scalar OsgEarthNet.uav[0] utilizationEnergyMission 977330.38286972
scalar OsgEarthNet.uav[0] utilizationEnergyMaintenance 471467.33071518
scalar OsgEarthNet.uav[0] utilizationEnergyCharge 1440594.7683105
scalar OsgEarthNet.uav[0] utilizationEnergyOverdrawMission 0
scalar OsgEarthNet.uav[0] utilizationEnergyOverdrawMaintenance 0
scalar OsgEarthNet.uav[0] utilizationCountMissions 332
scalar OsgEarthNet.uav[0] utilizationCountManeuversMission 6306
scalar OsgEarthNet.uav[0] utilizationCountManeuversMaintenance 664
scalar OsgEarthNet.uav[0] utilizationCountChargeState 332
scalar OsgEarthNet.uav[0] utilizationCountOverdrawnAfterMission 0
scalar OsgEarthNet.uav[0] utilizationCountIdleState 2
scalar OsgEarthNet.uav[0] utilizationFail 0
scalar OsgEarthNet.uav[0] simulationTime 1209600
scalar OsgEarthNet.uav[1] utilizationSecMission 202733.44735948
scalar OsgEarthNet.uav[1] utilizationSecMaintenance 98788.529260987
scalar OsgEarthNet.uav[1] utilizationSecCharge 905942.58129084
scalar OsgEarthNet.uav[1] utilizationSecIdle 2135.4410886909
scalar OsgEarthNet.uav[1] utilizationEnergyMission 988539.46160507
scalar OsgEarthNet.uav[1] utilizationEnergyMaintenance 460470.45768356
scalar OsgEarthNet.uav[1] utilizationEnergyCharge 1439724.5019531
scalar OsgEarthNet.uav[1] utilizationEnergyOverdrawMission 0
scalar OsgEarthNet.uav[1] utilizationEnergyOverdrawMaintenance 0
scalar OsgEarthNet.uav[1] utilizationCountMissions 329
scalar OsgEarthNet.uav[1] utilizationCountManeuversMission 6558
scalar OsgEarthNet.uav[1] utilizationCountManeuversMaintenance 658
scalar OsgEarthNet.uav[1] utilizationCountChargeState 329
scalar OsgEarthNet.uav[1] utilizationCountOverdrawnAfterMission 0
scalar OsgEarthNet.uav[1] utilizationCountIdleState 2
scalar OsgEarthNet.uav[1] utilizationFail 0
scalar OsgEarthNet.uav[1] simulationTime 1209600
scalar OsgEarthNet.uav[2] utilizationSecMission 196686.56549726
scalar OsgEarthNet.uav[2] utilizationSecMaintenance 102091.34455416
scalar OsgEarthNet.uav[2] utilizationSecCharge 910102.86933467
scalar OsgEarthNet.uav[2] utilizationSecIdle 719.21961391566
scalar OsgEarthNet.uav[2] utilizationEnergyMission 951905.97639465
scalar OsgEarthNet.uav[2] utilizationEnergyMaintenance 476807.69285202
scalar OsgEarthNet.uav[2] utilizationEnergyCharge 1431132.2268677
scalar OsgEarthNet.uav[2] utilizationEnergyOverdrawMission 0
scalar OsgEarthNet.uav[2] utilizationEnergyOverdrawMaintenance 0
scalar OsgEarthNet.uav[2] utilizationCountMissions 333
scalar OsgEarthNet.uav[2] utilizationCountManeuversMission 6227
scalar OsgEarthNet.uav[2] utilizationCountManeuversMaintenance 666
scalar OsgEarthNet.uav[2] utilizationCountChargeState 333
scalar OsgEarthNet.uav[2] utilizationCountOverdrawnAfterMission 0
scalar OsgEarthNet.uav[2] utilizationCountIdleState 2
scalar OsgEarthNet.uav[2] utilizationFail 0
scalar OsgEarthNet.uav[2] simulationTime 1209600
scalar OsgEarthNet.uav[3] utilizationSecMission 187877.67398669
scalar OsgEarthNet.uav[3] utilizationSecMaintenance 110121.75458871
scalar OsgEarthNet.uav[3] utilizationSecCharge 908320
scalar OsgEarthNet.uav[3] utilizationSecIdle 3280.5704246031
scalar OsgEarthNet.uav[3] utilizationEnergyMission 909296.61049438
scalar OsgEarthNet.uav[3] utilizationEnergyMaintenance 519316.64077759
scalar OsgEarthNet.uav[3] utilizationEnergyCharge 1425323.4538574
scalar OsgEarthNet.uav[3] utilizationEnergyOverdrawMission 0
scalar OsgEarthNet.uav[3] utilizationEnergyOverdrawMaintenance 0
scalar OsgEarthNet.uav[3] utilizationCountMissions 340
scalar OsgEarthNet.uav[3] utilizationCountManeuversMission 5722
scalar OsgEarthNet.uav[3] utilizationCountManeuversMaintenance 681
scalar OsgEarthNet.uav[3] utilizationCountChargeState 340
scalar OsgEarthNet.uav[3] utilizationCountOverdrawnAfterMission 0
scalar OsgEarthNet.uav[3] utilizationCountIdleState 1
scalar OsgEarthNet.uav[3] utilizationFail 0
scalar OsgEarthNet.uav[3] simulationTime 1209600
scalar OsgEarthNet.uav[4] utilizationSecMission 189405.1473181
scalar OsgEarthNet.uav[4] utilizationSecMaintenance 107117.15928664
scalar OsgEarthNet.uav[4] utilizationSecCharge 911556.72840958
scalar OsgEarthNet.uav[4] utilizationSecIdle 1520.9639856735
scalar OsgEarthNet.uav[4] utilizationEnergyMission 927465.36732101
scalar OsgEarthNet.uav[4] utilizationEnergyMaintenance 503206.66762924
scalar OsgEarthNet.uav[4] utilizationEnergyCharge 1416894.6137695
scalar OsgEarthNet.uav[4] utilizationEnergyOverdrawMission 0
scalar OsgEarthNet.uav[4] utilizationEnergyOverdrawMaintenance 0
scalar OsgEarthNet.uav[4] utilizationCountMissions 339
scalar OsgEarthNet.uav[4] utilizationCountManeuversMission 6226
scalar OsgEarthNet.uav[4] utilizationCountManeuversMaintenance 678
scalar OsgEarthNet.uav[4] utilizationCountChargeState 339
scalar OsgEarthNet.uav[4] utilizationCountOverdrawnAfterMission 0
scalar OsgEarthNet.uav[4] utilizationCountIdleState 2
scalar OsgEarthNet.uav[4] utilizationFail 0
scalar OsgEarthNet.uav[4] simulationTime 1209600
scalar OsgEarthNet.uav[5] utilizationSecMission 199182.63485175
scalar OsgEarthNet.uav[5] utilizationSecMaintenance 100286.68989791
scalar OsgEarthNet.uav[5] utilizationSecCharge 910078.67425034
scalar OsgEarthNet.uav[5] utilizationSecIdle 52
scalar OsgEarthNet.uav[5] utilizationEnergyMission 977573.31713867
scalar OsgEarthNet.uav[5] utilizationEnergyMaintenance 469172.22873306
scalar OsgEarthNet.uav[5] utilizationEnergyCharge 1435428.4555664
scalar OsgEarthNet.uav[5] utilizationEnergyOverdrawMission 0
scalar OsgEarthNet.uav[5] utilizationEnergyOverdrawMaintenance 0
scalar OsgEarthNet.uav[5] utilizationCountMissions 333
scalar OsgEarthNet.uav[5] utilizationCountManeuversMission 6529
scalar OsgEarthNet.uav[5] utilizationCountManeuversMaintenance 666
scalar OsgEarthNet.uav[5] utilizationCountChargeState 333
scalar OsgEarthNet.uav[5] utilizationCountOverdrawnAfterMission 0
scalar OsgEarthNet.uav[5] utilizationCountIdleState 2
scalar OsgEarthNet.uav[5] utilizationFail 0
scalar OsgEarthNet.uav[5] simulationTime 1209600
scalar OsgEarthNet.uav[6] utilizationSecMission 186214.68855173
scalar OsgEarthNet.uav[6] utilizationSecMaintenance 111106.07114478
scalar OsgEarthNet.uav[6] utilizationSecCharge 910327.23530348
scalar OsgEarthNet.uav[6] utilizationSecIdle 1952.004
scalar OsgEarthNet.uav[6] utilizationEnergyMission 899234.57939529
scalar OsgEarthNet.uav[6] utilizationEnergyMaintenance 526089.36679077
scalar OsgEarthNet.uav[6] utilizationEnergyCharge 1418487.6192627
scalar OsgEarthNet.uav[6] utilizationEnergyOverdrawMission 0
scalar OsgEarthNet.uav[6] utilizationEnergyOverdrawMaintenance 0
scalar OsgEarthNet.uav[6] utilizationCountMissions 342
scalar OsgEarthNet.uav[6] utilizationCountManeuversMission 5681
scalar OsgEarthNet.uav[6] utilizationCountManeuversMaintenance 684
scalar OsgEarthNet.uav[6] utilizationCountChargeState 342
scalar OsgEarthNet.uav[6] utilizationCountOverdrawnAfterMission 0
scalar OsgEarthNet.uav[6] utilizationCountIdleState 2
scalar OsgEarthNet.uav[6] utilizationFail 0
scalar OsgEarthNet.uav[6] simulationTime 1209600
scalar OsgEarthNet.uav[7] utilizationSecMission 191416.18070893
scalar OsgEarthNet.uav[7] utilizationSecMaintenance 109788.59391632
scalar OsgEarthNet.uav[7] utilizationSecCharge 908393.22437475
scalar OsgEarthNet.uav[7] utilizationSecIdle 2
scalar OsgEarthNet.uav[7] utilizationEnergyMission 926324.31787109
scalar OsgEarthNet.uav[7] utilizationEnergyMaintenance 518004.86321259
scalar OsgEarthNet.uav[7] utilizationEnergyCharge 1443515.7148438
scalar OsgEarthNet.uav[7] utilizationEnergyOverdrawMission 0
scalar OsgEarthNet.uav[7] utilizationEnergyOverdrawMaintenance 0
scalar OsgEarthNet.uav[7] utilizationCountMissions 337
scalar OsgEarthNet.uav[7] utilizationCountManeuversMission 5988
scalar OsgEarthNet.uav[7] utilizationCountManeuversMaintenance 674
scalar OsgEarthNet.uav[7] utilizationCountChargeState 337
scalar OsgEarthNet.uav[7] utilizationCountOverdrawnAfterMission 0
scalar OsgEarthNet.uav[7] utilizationCountIdleState 1
scalar OsgEarthNet.uav[7] utilizationFail 0
scalar OsgEarthNet.uav[7] simulationTime 1209600
scalar OsgEarthNet.uav[8] utilizationSecMission 202889.83512533
scalar OsgEarthNet.uav[8] utilizationSecMaintenance 96483.743209423
scalar OsgEarthNet.uav[8] utilizationSecCharge 909684.41966524
scalar OsgEarthNet.uav[8] utilizationSecIdle 542.001
scalar OsgEarthNet.uav[8] utilizationEnergyMission 983207.50878143
scalar OsgEarthNet.uav[8] utilizationEnergyMaintenance 447906.52245712
scalar OsgEarthNet.uav[8] utilizationEnergyCharge 1429022.2907715
scalar OsgEarthNet.uav[8] utilizationEnergyOverdrawMission 0
scalar OsgEarthNet.uav[8] utilizationEnergyOverdrawMaintenance 0
scalar OsgEarthNet.uav[8] utilizationCountMissions 328
scalar OsgEarthNet.uav[8] utilizationCountManeuversMission 6566
scalar OsgEarthNet.uav[8] utilizationCountManeuversMaintenance 656
scalar OsgEarthNet.uav[8] utilizationCountChargeState 328
scalar OsgEarthNet.uav[8] utilizationCountOverdrawnAfterMission 0
scalar OsgEarthNet.uav[8] utilizationCountIdleState 1
scalar OsgEarthNet.uav[8] utilizationFail 0
scalar OsgEarthNet.uav[8] simulationTime 1209600
scalar OsgEarthNet.uav[9] utilizationSecMission 186231.98987383
scalar OsgEarthNet.uav[9] utilizationSecMaintenance 107108.23082674
scalar OsgEarthNet.uav[9] utilizationSecCharge 913883.88362043
scalar OsgEarthNet.uav[9] utilizationSecIdle 2375.8946789918
scalar OsgEarthNet.uav[9] utilizationEnergyMission 897918.6050148
scalar OsgEarthNet.uav[9] utilizationEnergyMaintenance 506226.49139404
scalar OsgEarthNet.uav[9] utilizationEnergyCharge 1405505.0791016
scalar OsgEarthNet.uav[9] utilizationEnergyOverdrawMission 0
scalar OsgEarthNet.uav[9] utilizationEnergyOverdrawMaintenance 0
scalar OsgEarthNet.uav[9] utilizationCountMissions 339
scalar OsgEarthNet.uav[9] utilizationCountManeuversMission 5557
scalar OsgEarthNet.uav[9] utilizationCountManeuversMaintenance 678
scalar OsgEarthNet.uav[9] utilizationCountChargeState 339
scalar OsgEarthNet.uav[9] utilizationCountOverdrawnAfterMission 0
scalar OsgEarthNet.uav[9] utilizationCountIdleState 2
scalar OsgEarthNet.uav[9] utilizationFail 0
scalar OsgEarthNet.uav[9] simulationTime 1209600
scalar OsgEarthNet.uav[10] utilizationSecMission 186854.18065296
scalar OsgEarthNet.uav[10] utilizationSecMaintenance 112104.3590275
scalar OsgEarthNet.uav[10] utilizationSecCharge 910179.45831954
scalar OsgEarthNet.uav[10] utilizationSecIdle 462.001
scalar OsgEarthNet.uav[10] utilizationEnergyMission 914820.01748276
scalar OsgEarthNet.uav[10] utilizationEnergyMaintenance 527151.00086975
scalar OsgEarthNet.uav[10] utilizationEnergyCharge 1437750.388916
scalar OsgEarthNet.uav[10] utilizationEnergyOverdrawMission 0
scalar OsgEarthNet.uav[10] utilizationEnergyOverdrawMaintenance 0
scalar OsgEarthNet.uav[10] utilizationCountMissions 342
scalar OsgEarthNet.uav[10] utilizationCountManeuversMission 6130
scalar OsgEarthNet.uav[10] utilizationCountManeuversMaintenance 684
scalar OsgEarthNet.uav[10] utilizationCountChargeState 342
scalar OsgEarthNet.uav[10] utilizationCountOverdrawnAfterMission 0
scalar OsgEarthNet.uav[10] utilizationCountIdleState 1
scalar OsgEarthNet.uav[10] utilizationFail 0
scalar OsgEarthNet.uav[10] simulationTime 1209600
scalar OsgEarthNet.uav[11] utilizationSecMission 187849.59548108
scalar OsgEarthNet.uav[11] utilizationSecMaintenance 110865.84464829
scalar OsgEarthNet.uav[11] utilizationSecCharge 909992.55736391
scalar OsgEarthNet.uav[11] utilizationSecIdle 892.00150672213
scalar OsgEarthNet.uav[11] utilizationEnergyMission 904722.51141357
scalar OsgEarthNet.uav[11] utilizationEnergyMaintenance 527156.75405884
scalar OsgEarthNet.uav[11] utilizationEnergyCharge 1429238.1247559
scalar OsgEarthNet.uav[11] utilizationEnergyOverdrawMission 0
scalar OsgEarthNet.uav[11] utilizationEnergyOverdrawMaintenance 0
scalar OsgEarthNet.uav[11] utilizationCountMissions 341
scalar OsgEarthNet.uav[11] utilizationCountManeuversMission 5502
scalar OsgEarthNet.uav[11] utilizationCountManeuversMaintenance 682
scalar OsgEarthNet.uav[11] utilizationCountChargeState 341
scalar OsgEarthNet.uav[11] utilizationCountOverdrawnAfterMission 0
scalar OsgEarthNet.uav[11] utilizationCountIdleState 1
scalar OsgEarthNet.uav[11] utilizationFail 0
scalar OsgEarthNet.uav[11] simulationTime 1209600
scalar OsgEarthNet.uav[12] utilizationSecMission 190489.71687745
scalar OsgEarthNet.uav[12] utilizationSecMaintenance 108128.78701057
scalar OsgEarthNet.uav[12] utilizationSecCharge 910124.04484795
scalar OsgEarthNet.uav[12] utilizationSecIdle 857.4502640309
scalar OsgEarthNet.uav[12] utilizationEnergyMission 918696.53751755
scalar OsgEarthNet.uav[12] utilizationEnergyMaintenance 511666.94933319
scalar OsgEarthNet.uav[12] utilizationEnergyCharge 1427393.8722534
scalar OsgEarthNet.uav[12] utilizationEnergyOverdrawMission 0
scalar OsgEarthNet.uav[12] utilizationEnergyOverdrawMaintenance 0
scalar OsgEarthNet.uav[12] utilizationCountMissions 339
scalar OsgEarthNet.uav[12] utilizationCountManeuversMission 5534
scalar OsgEarthNet.uav[12] utilizationCountManeuversMaintenance 678
scalar OsgEarthNet.uav[12] utilizationCountChargeState 339
scalar OsgEarthNet.uav[12] utilizationCountOverdrawnAfterMission 0
scalar OsgEarthNet.uav[12] utilizationCountIdleState 2
scalar OsgEarthNet.uav[12] utilizationFail 0
scalar OsgEarthNet.uav[12] simulationTime 1209600
scalar OsgEarthNet.uav[13] utilizationSecMission 190927.31373347
scalar OsgEarthNet.uav[13] utilizationSecMaintenance 106620.67826653
scalar OsgEarthNet.uav[13] utilizationSecCharge 908770
scalar OsgEarthNet.uav[13] utilizationSecIdle 3282.007
scalar OsgEarthNet.uav[13] utilizationEnergyMission 926950.28382606
scalar OsgEarthNet.uav[13] utilizationEnergyMaintenance 500867.41329193
scalar OsgEarthNet.uav[13] utilizationEnergyCharge 1428748.0957031
scalar OsgEarthNet.uav[13] utilizationEnergyOverdrawMission 0
scalar OsgEarthNet.uav[13] utilizationEnergyOverdrawMaintenance 0
scalar OsgEarthNet.uav[13] utilizationCountMissions 336
scalar OsgEarthNet.uav[13] utilizationCountManeuversMission 6100
scalar OsgEarthNet.uav[13] utilizationCountManeuversMaintenance 673
scalar OsgEarthNet.uav[13] utilizationCountChargeState 336
scalar OsgEarthNet.uav[13] utilizationCountOverdrawnAfterMission 0
scalar OsgEarthNet.uav[13] utilizationCountIdleState 1
scalar OsgEarthNet.uav[13] utilizationFail 0
scalar OsgEarthNet.uav[13] simulationTime 1209600
scalar OsgEarthNet.uav[14] utilizationSecMission 187657.07587439
scalar OsgEarthNet.uav[14] utilizationSecMaintenance 106776.50086439
scalar OsgEarthNet.uav[14] utilizationSecCharge 913540
scalar OsgEarthNet.uav[14] utilizationSecIdle 1626.4222612234
scalar OsgEarthNet.uav[14] utilizationEnergyMission 904798.70856857
scalar OsgEarthNet.uav[14] utilizationEnergyMaintenance 506164.59049435
scalar OsgEarthNet.uav[14] utilizationEnergyCharge 1403736.0578613
scalar OsgEarthNet.uav[14] utilizationEnergyOverdrawMission 0
scalar OsgEarthNet.uav[14] utilizationEnergyOverdrawMaintenance 0
scalar OsgEarthNet.uav[14] utilizationCountMissions 337
scalar OsgEarthNet.uav[14] utilizationCountManeuversMission 5586
scalar OsgEarthNet.uav[14] utilizationCountManeuversMaintenance 674
scalar OsgEarthNet.uav[14] utilizationCountChargeState 336
scalar OsgEarthNet.uav[14] utilizationCountOverdrawnAfterMission 0
scalar OsgEarthNet.uav[14] utilizationCountIdleState 1
scalar OsgEarthNet.uav[14] utilizationFail 0
scalar OsgEarthNet.uav[14] simulationTime 1209600
scalar OsgEarthNet.uav[15] utilizationSecMission 195524.50146057
scalar OsgEarthNet.uav[15] utilizationSecMaintenance 102139.17316
scalar OsgEarthNet.uav[15] utilizationSecCharge 911210
scalar OsgEarthNet.uav[15] utilizationSecIdle 726.32437943275
scalar OsgEarthNet.uav[15] utilizationEnergyMission 951062.85554504
scalar OsgEarthNet.uav[15] utilizationEnergyMaintenance 478166.00232694
scalar OsgEarthNet.uav[15] utilizationEnergyCharge 1423667.7990723
scalar OsgEarthNet.uav[15] utilizationEnergyOverdrawMission 0
scalar OsgEarthNet.uav[15] utilizationEnergyOverdrawMaintenance 0
scalar OsgEarthNet.uav[15] utilizationCountMissions 336
scalar OsgEarthNet.uav[15] utilizationCountManeuversMission 6344
scalar OsgEarthNet.uav[15] utilizationCountManeuversMaintenance 672
scalar OsgEarthNet.uav[15] utilizationCountChargeState 335
scalar OsgEarthNet.uav[15] utilizationCountOverdrawnAfterMission 0
scalar OsgEarthNet.uav[15] utilizationCountIdleState 2
scalar OsgEarthNet.uav[15] utilizationFail 0
scalar OsgEarthNet.uav[15] simulationTime 1209600
scalar OsgEarthNet.uav[16] utilizationSecMission 197057.05533802
scalar OsgEarthNet.uav[16] utilizationSecMaintenance 101957.52228905
scalar OsgEarthNet.uav[16] utilizationSecCharge 909643.41937293
scalar OsgEarthNet.uav[16] utilizationSecIdle 942.002
scalar OsgEarthNet.uav[16] utilizationEnergyMission 952660.74715805
scalar OsgEarthNet.uav[16] utilizationEnergyMaintenance 479002.54101181
scalar OsgEarthNet.uav[16] utilizationEnergyCharge 1424918.4720459
scalar OsgEarthNet.uav[16] utilizationEnergyOverdrawMission 0
scalar OsgEarthNet.uav[16] utilizationEnergyOverdrawMaintenance 0
scalar OsgEarthNet.uav[16] utilizationCountMissions 333
scalar OsgEarthNet.uav[16] utilizationCountManeuversMission 5854
scalar OsgEarthNet.uav[16] utilizationCountManeuversMaintenance 666
scalar OsgEarthNet.uav[16] utilizationCountChargeState 333
scalar OsgEarthNet.uav[16] utilizationCountOverdrawnAfterMission 0
scalar OsgEarthNet.uav[16] utilizationCountIdleState 1
scalar OsgEarthNet.uav[16] utilizationFail 0
scalar OsgEarthNet.uav[16] simulationTime 1209600
scalar OsgEarthNet.uav[17] utilizationSecMission 194109.06275088
scalar OsgEarthNet.uav[17] utilizationSecMaintenance 101297.88898903
scalar OsgEarthNet.uav[17] utilizationSecCharge 913646.62699887
scalar OsgEarthNet.uav[17] utilizationSecIdle 546.42026122339
scalar OsgEarthNet.uav[17] utilizationEnergyMission 938960.09196472
scalar OsgEarthNet.uav[17] utilizationEnergyMaintenance 474414.11608505
scalar OsgEarthNet.uav[17] utilizationEnergyCharge 1415511.8847656
scalar OsgEarthNet.uav[17] utilizationEnergyOverdrawMission 0
scalar OsgEarthNet.uav[17] utilizationEnergyOverdrawMaintenance 0
scalar OsgEarthNet.uav[17] utilizationCountMissions 333
scalar OsgEarthNet.uav[17] utilizationCountManeuversMission 6108
scalar OsgEarthNet.uav[17] utilizationCountManeuversMaintenance 666
scalar OsgEarthNet.uav[17] utilizationCountChargeState 333
scalar OsgEarthNet.uav[17] utilizationCountOverdrawnAfterMission 0
scalar OsgEarthNet.uav[17] utilizationCountIdleState 1
scalar OsgEarthNet.uav[17] utilizationFail 0
scalar OsgEarthNet.uav[17] simulationTime 1209600
scalar OsgEarthNet.uav[18] utilizationSecMission 192763.89585231
scalar OsgEarthNet.uav[18] utilizationSecMaintenance 109181.63988816
scalar OsgEarthNet.uav[18] utilizationSecCharge 905648.1368801
scalar OsgEarthNet.uav[18] utilizationSecIdle 2006.3263794327
scalar OsgEarthNet.uav[18] utilizationEnergyMission 946836.88180161
scalar OsgEarthNet.uav[18] utilizationEnergyMaintenance 510975.5724678
scalar OsgEarthNet.uav[18] utilizationEnergyCharge 1456902.4375
scalar OsgEarthNet.uav[18] utilizationEnergyOverdrawMission 0
scalar OsgEarthNet.uav[18] utilizationEnergyOverdrawMaintenance 0
scalar OsgEarthNet.uav[18] utilizationCountMissions 335
scalar OsgEarthNet.uav[18] utilizationCountManeuversMission 6744
scalar OsgEarthNet.uav[18] utilizationCountManeuversMaintenance 670
scalar OsgEarthNet.uav[18] utilizationCountChargeState 335
scalar OsgEarthNet.uav[18] utilizationCountOverdrawnAfterMission 0
scalar OsgEarthNet.uav[18] utilizationCountIdleState 1
scalar OsgEarthNet.uav[18] utilizationFail 0
scalar OsgEarthNet.uav[18] simulationTime 1209600
scalar OsgEarthNet.uav[19] utilizationSecMission 194558.76439687
scalar OsgEarthNet.uav[19] utilizationSecMaintenance 103459.23460313
scalar OsgEarthNet.uav[19] utilizationSecCharge 911550
scalar OsgEarthNet.uav[19] utilizationSecIdle 32
scalar OsgEarthNet.uav[19] utilizationEnergyMission 941367.70669226
scalar OsgEarthNet.uav[19] utilizationEnergyMaintenance 483748.75776291
scalar OsgEarthNet.uav[19] utilizationEnergyCharge 1422426.3532715
scalar OsgEarthNet.uav[19] utilizationEnergyOverdrawMission 0
scalar OsgEarthNet.uav[19] utilizationEnergyOverdrawMaintenance 0
scalar OsgEarthNet.uav[19] utilizationCountMissions 338
scalar OsgEarthNet.uav[19] utilizationCountManeuversMission 6052
scalar OsgEarthNet.uav[19] utilizationCountManeuversMaintenance 676
scalar OsgEarthNet.uav[19] utilizationCountChargeState 338
scalar OsgEarthNet.uav[19] utilizationCountOverdrawnAfterMission 0
scalar OsgEarthNet.uav[19] utilizationCountIdleState 2
scalar OsgEarthNet.uav[19] utilizationFail 0
scalar OsgEarthNet.uav[19] simulationTime 1209600
scalar OsgEarthNet.uav[20] utilizationSecMission 184289.66891725
scalar OsgEarthNet.uav[20] utilizationSecMaintenance 116468.32408275
scalar OsgEarthNet.uav[20] utilizationSecCharge 906060
scalar OsgEarthNet.uav[20] utilizationSecIdle 2782.006
scalar OsgEarthNet.uav[20] utilizationEnergyMission 891951.82888207
scalar OsgEarthNet.uav[20] utilizationEnergyMaintenance 553132.41388702
scalar OsgEarthNet.uav[20] utilizationEnergyCharge 1444345.5412598
scalar OsgEarthNet.uav[20] utilizationEnergyOverdrawMission 0
scalar OsgEarthNet.uav[20] utilizationEnergyOverdrawMaintenance 0
scalar OsgEarthNet.uav[20] utilizationCountMissions 342
scalar OsgEarthNet.uav[20] utilizationCountManeuversMission 5756
scalar OsgEarthNet.uav[20] utilizationCountManeuversMaintenance 685
scalar OsgEarthNet.uav[20] utilizationCountChargeState 342
scalar OsgEarthNet.uav[20] utilizationCountOverdrawnAfterMission 0
scalar OsgEarthNet.uav[20] utilizationCountIdleState 1
scalar OsgEarthNet.uav[20] utilizationFail 0
scalar OsgEarthNet.uav[20] simulationTime 1209600
scalar OsgEarthNet.uav[21] utilizationSecMission 190989.88748278
scalar OsgEarthNet.uav[21] utilizationSecMaintenance 105344.96256967
scalar OsgEarthNet.uav[21] utilizationSecCharge 911257.14909702
scalar OsgEarthNet.uav[21] utilizationSecIdle 2007.9998505245
scalar OsgEarthNet.uav[21] utilizationEnergyMission 915734.68140793
scalar OsgEarthNet.uav[21] utilizationEnergyMaintenance 497725.85885239
scalar OsgEarthNet.uav[21] utilizationEnergyCharge 1413230.0898132
scalar OsgEarthNet.uav[21] utilizationEnergyOverdrawMission 0
scalar OsgEarthNet.uav[21] utilizationEnergyOverdrawMaintenance 0
scalar OsgEarthNet.uav[21] utilizationCountMissions 338
scalar OsgEarthNet.uav[21] utilizationCountManeuversMission 5568
scalar OsgEarthNet.uav[21] utilizationCountManeuversMaintenance 676
scalar OsgEarthNet.uav[21] utilizationCountChargeState 338
scalar OsgEarthNet.uav[21] utilizationCountOverdrawnAfterMission 0
scalar OsgEarthNet.uav[21] utilizationCountIdleState 1
scalar OsgEarthNet.uav[21] utilizationFail 0
scalar OsgEarthNet.uav[21] simulationTime 1209600
scalar OsgEarthNet.uav[22] utilizationSecMission 192350.55138773
scalar OsgEarthNet.uav[22] utilizationSecMaintenance 107392.1139954
scalar OsgEarthNet.uav[22] utilizationSecCharge 909825.33361687
scalar OsgEarthNet.uav[22] utilizationSecIdle 32
scalar OsgEarthNet.uav[22] utilizationEnergyMission 928482.79768758
scalar OsgEarthNet.uav[22] utilizationEnergyMaintenance 506432.79558563
scalar OsgEarthNet.uav[22] utilizationEnergyCharge 1435423.503418
scalar OsgEarthNet.uav[22] utilizationEnergyOverdrawMission 0
scalar OsgEarthNet.uav[22] utilizationEnergyOverdrawMaintenance 0
scalar OsgEarthNet.uav[22] utilizationCountMissions 338
scalar OsgEarthNet.uav[22] utilizationCountManeuversMission 5797
scalar OsgEarthNet.uav[22] utilizationCountManeuversMaintenance 675
scalar OsgEarthNet.uav[22] utilizationCountChargeState 338
scalar OsgEarthNet.uav[22] utilizationCountOverdrawnAfterMission 0
scalar OsgEarthNet.uav[22] utilizationCountIdleState 2
scalar OsgEarthNet.uav[22] utilizationFail 0
scalar OsgEarthNet.uav[22] simulationTime 1209600
scalar OsgEarthNet.uav[23] utilizationSecMission 186220.17819425
scalar OsgEarthNet.uav[23] utilizationSecMaintenance 111008.7560734
scalar OsgEarthNet.uav[23] utilizationSecCharge 909851.12046295
scalar OsgEarthNet.uav[23] utilizationSecIdle 2519.9442693915
scalar OsgEarthNet.uav[23] utilizationEnergyMission 905108.11530304
scalar OsgEarthNet.uav[23] utilizationEnergyMaintenance 522644.55858231
scalar OsgEarthNet.uav[23] utilizationEnergyCharge 1428573.387207
scalar OsgEarthNet.uav[23] utilizationEnergyOverdrawMission 0
scalar OsgEarthNet.uav[23] utilizationEnergyOverdrawMaintenance 0
scalar OsgEarthNet.uav[23] utilizationCountMissions 340
scalar OsgEarthNet.uav[23] utilizationCountManeuversMission 5831
scalar OsgEarthNet.uav[23] utilizationCountManeuversMaintenance 680
scalar OsgEarthNet.uav[23] utilizationCountChargeState 340
scalar OsgEarthNet.uav[23] utilizationCountOverdrawnAfterMission 0
scalar OsgEarthNet.uav[23] utilizationCountIdleState 1
scalar OsgEarthNet.uav[23] utilizationFail 0
scalar OsgEarthNet.uav[23] simulationTime 1209600
scalar OsgEarthNet.uav[24] utilizationSecMission 187740.78991171
scalar OsgEarthNet.uav[24] utilizationSecMaintenance 110328.80335441
scalar OsgEarthNet.uav[24] utilizationSecCharge 909722.052131
scalar OsgEarthNet.uav[24] utilizationSecIdle 1808.3536028792
scalar OsgEarthNet.uav[24] utilizationEnergyMission 912438.89447021
scalar OsgEarthNet.uav[24] utilizationEnergyMaintenance 519992.08769226
scalar OsgEarthNet.uav[24] utilizationEnergyCharge 1432690.6518555
scalar OsgEarthNet.uav[24] utilizationEnergyOverdrawMission 0
scalar OsgEarthNet.uav[24] utilizationEnergyOverdrawMaintenance 0
scalar OsgEarthNet.uav[24] utilizationCountMissions 339
scalar OsgEarthNet.uav[24] utilizationCountManeuversMission 5957
scalar OsgEarthNet.uav[24] utilizationCountManeuversMaintenance 678
scalar OsgEarthNet.uav[24] utilizationCountChargeState 339
scalar OsgEarthNet.uav[24] utilizationCountOverdrawnAfterMission 0
scalar OsgEarthNet.uav[24] utilizationCountIdleState 1
scalar OsgEarthNet.uav[24] utilizationFail 0
scalar OsgEarthNet.uav[24] simulationTime 1209600
scalar OsgEarthNet.uav[25] utilizationSecMission 186162.4752009
scalar OsgEarthNet.uav[25] utilizationSecMaintenance 110945.5237991
scalar OsgEarthNet.uav[25] utilizationSecCharge 912490
scalar OsgEarthNet.uav[25] utilizationSecIdle 2
scalar OsgEarthNet.uav[25] utilizationEnergyMission 901564.81080125
scalar OsgEarthNet.uav[25] utilizationEnergyMaintenance 524707.21041489
scalar OsgEarthNet.uav[25] utilizationEnergyCharge 1424225.8640137
scalar OsgEarthNet.uav[25] utilizationEnergyOverdrawMission 0
scalar OsgEarthNet.uav[25] utilizationEnergyOverdrawMaintenance 0
scalar OsgEarthNet.uav[25] utilizationCountMissions 343
scalar OsgEarthNet.uav[25] utilizationCountManeuversMission 5778
scalar OsgEarthNet.uav[25] utilizationCountManeuversMaintenance 687
scalar OsgEarthNet.uav[25] utilizationCountChargeState 343
scalar OsgEarthNet.uav[25] utilizationCountOverdrawnAfterMission 0
scalar OsgEarthNet.uav[25] utilizationCountIdleState 1
scalar OsgEarthNet.uav[25] utilizationFail 0
scalar OsgEarthNet.uav[25] simulationTime 1209600
scalar OsgEarthNet.uav[26] utilizationSecMission 202445.24005523
scalar OsgEarthNet.uav[26] utilizationSecMaintenance 97047.440745019
scalar OsgEarthNet.uav[26] utilizationSecCharge 907186.41551518
scalar OsgEarthNet.uav[26] utilizationSecIdle 2920.9026845731
scalar OsgEarthNet.uav[26] utilizationEnergyMission 977532.67725372
scalar OsgEarthNet.uav[26] utilizationEnergyMaintenance 452192.36927414
scalar OsgEarthNet.uav[26] utilizationEnergyCharge 1433592.7492676
scalar OsgEarthNet.uav[26] utilizationEnergyOverdrawMission 0
scalar OsgEarthNet.uav[26] utilizationEnergyOverdrawMaintenance 0
scalar OsgEarthNet.uav[26] utilizationCountMissions 329
scalar OsgEarthNet.uav[26] utilizationCountManeuversMission 6218
scalar OsgEarthNet.uav[26] utilizationCountManeuversMaintenance 658
scalar OsgEarthNet.uav[26] utilizationCountChargeState 329
scalar OsgEarthNet.uav[26] utilizationCountOverdrawnAfterMission 0
scalar OsgEarthNet.uav[26] utilizationCountIdleState 1
scalar OsgEarthNet.uav[26] utilizationFail 0
scalar OsgEarthNet.uav[26] simulationTime 1209600
scalar OsgEarthNet.uav[27] utilizationSecMission 196471.76915113
scalar OsgEarthNet.uav[27] utilizationSecMaintenance 102327.75767246
scalar OsgEarthNet.uav[27] utilizationSecCharge 908383.15609458
scalar OsgEarthNet.uav[27] utilizationSecIdle 2417.3160818306
scalar OsgEarthNet.uav[27] utilizationEnergyMission 951999.14036942
scalar OsgEarthNet.uav[27] utilizationEnergyMaintenance 478406.04440308
scalar OsgEarthNet.uav[27] utilizationEnergyCharge 1429837.5957031
scalar OsgEarthNet.uav[27] utilizationEnergyOverdrawMission 0
scalar OsgEarthNet.uav[27] utilizationEnergyOverdrawMaintenance 0
scalar OsgEarthNet.uav[27] utilizationCountMissions 333
scalar OsgEarthNet.uav[27] utilizationCountManeuversMission 6361
scalar OsgEarthNet.uav[27] utilizationCountManeuversMaintenance 666
scalar OsgEarthNet.uav[27] utilizationCountChargeState 333
scalar OsgEarthNet.uav[27] utilizationCountOverdrawnAfterMission 0
scalar OsgEarthNet.uav[27] utilizationCountIdleState 1
scalar OsgEarthNet.uav[27] utilizationFail 0
scalar OsgEarthNet.uav[27] simulationTime 1209600
scalar OsgEarthNet.uav[28] utilizationSecMission 191483.43170681
scalar OsgEarthNet.uav[28] utilizationSecMaintenance 103853.97389396
scalar OsgEarthNet.uav[28] utilizationSecCharge 912823.16805194
scalar OsgEarthNet.uav[28] utilizationSecIdle 1439.4253472904
scalar OsgEarthNet.uav[28] utilizationEnergyMission 928438.62296677
scalar OsgEarthNet.uav[28] utilizationEnergyMaintenance 488948.27870941
scalar OsgEarthNet.uav[28] utilizationEnergyCharge 1414607.4416504
scalar OsgEarthNet.uav[28] utilizationEnergyOverdrawMission 0
scalar OsgEarthNet.uav[28] utilizationEnergyOverdrawMaintenance 0
scalar OsgEarthNet.uav[28] utilizationCountMissions 334
scalar OsgEarthNet.uav[28] utilizationCountManeuversMission 5871
scalar OsgEarthNet.uav[28] utilizationCountManeuversMaintenance 668
scalar OsgEarthNet.uav[28] utilizationCountChargeState 334
scalar OsgEarthNet.uav[28] utilizationCountOverdrawnAfterMission 0
scalar OsgEarthNet.uav[28] utilizationCountIdleState 1
scalar OsgEarthNet.uav[28] utilizationFail 0
scalar OsgEarthNet.uav[28] simulationTime 1209600
scalar OsgEarthNet.uav[29] utilizationSecMission 188891.94678117
scalar OsgEarthNet.uav[29] utilizationSecMaintenance 106976.04721883
scalar OsgEarthNet.uav[29] utilizationSecCharge 911410
scalar OsgEarthNet.uav[29] utilizationSecIdle 2322.005
scalar OsgEarthNet.uav[29] utilizationEnergyMission 922726.03281704
scalar OsgEarthNet.uav[29] utilizationEnergyMaintenance 502919.10302734
scalar OsgEarthNet.uav[29] utilizationEnergyCharge 1424524.7541504
scalar OsgEarthNet.uav[29] utilizationEnergyOverdrawMission 0
scalar OsgEarthNet.uav[29] utilizationEnergyOverdrawMaintenance 0
scalar OsgEarthNet.uav[29] utilizationCountMissions 338
scalar OsgEarthNet.uav[29] utilizationCountManeuversMission 6400
scalar OsgEarthNet.uav[29] utilizationCountManeuversMaintenance 677
scalar OsgEarthNet.uav[29] utilizationCountChargeState 338
scalar OsgEarthNet.uav[29] utilizationCountOverdrawnAfterMission 0
scalar OsgEarthNet.uav[29] utilizationCountIdleState 1
scalar OsgEarthNet.uav[29] utilizationFail 0
scalar OsgEarthNet.uav[29] simulationTime 1209600
scalar OsgEarthNet.uav[30] utilizationSecMission 194293.18403769
scalar OsgEarthNet.uav[30] utilizationSecMaintenance 102724.7620855
scalar OsgEarthNet.uav[30] utilizationSecCharge 911170.04987681
scalar OsgEarthNet.uav[30] utilizationSecIdle 1412.003
scalar OsgEarthNet.uav[30] utilizationEnergyMission 938581.1352005
scalar OsgEarthNet.uav[30] utilizationEnergyMaintenance 482263.86181641
scalar OsgEarthNet.uav[30] utilizationEnergyCharge 1417622.9150391
scalar OsgEarthNet.uav[30] utilizationEnergyOverdrawMission 0
scalar OsgEarthNet.uav[30] utilizationEnergyOverdrawMaintenance 0
scalar OsgEarthNet.uav[30] utilizationCountMissions 334
scalar OsgEarthNet.uav[30] utilizationCountManeuversMission 5932
scalar OsgEarthNet.uav[30] utilizationCountManeuversMaintenance 668
scalar OsgEarthNet.uav[30] utilizationCountChargeState 334
scalar OsgEarthNet.uav[30] utilizationCountOverdrawnAfterMission 0
scalar OsgEarthNet.uav[30] utilizationCountIdleState 2
scalar OsgEarthNet.uav[30] utilizationFail 0
scalar OsgEarthNet.uav[30] simulationTime 1209600
scalar OsgEarthNet.uav[31] utilizationSecMission 191122.24289824
scalar OsgEarthNet.uav[31] utilizationSecMaintenance 108007.31444649
scalar OsgEarthNet.uav[31] utilizationSecCharge 908144.99956659
scalar OsgEarthNet.uav[31] utilizationSecIdle 2325.4420886909
scalar OsgEarthNet.uav[31] utilizationEnergyMission 920800.18622971
scalar OsgEarthNet.uav[31] utilizationEnergyMaintenance 511453.25550842
scalar OsgEarthNet.uav[31] utilizationEnergyCharge 1431190.5117188
scalar OsgEarthNet.uav[31] utilizationEnergyOverdrawMission 0
scalar OsgEarthNet.uav[31] utilizationEnergyOverdrawMaintenance 0
scalar OsgEarthNet.uav[31] utilizationCountMissions 339
scalar OsgEarthNet.uav[31] utilizationCountManeuversMission 5728
scalar OsgEarthNet.uav[31] utilizationCountManeuversMaintenance 678
scalar OsgEarthNet.uav[31] utilizationCountChargeState 339
scalar OsgEarthNet.uav[31] utilizationCountOverdrawnAfterMission 0
scalar OsgEarthNet.uav[31] utilizationCountIdleState 1
scalar OsgEarthNet.uav[31] utilizationFail 0
scalar OsgEarthNet.uav[31] simulationTime 1209600
scalar OsgEarthNet.uav[32] utilizationSecMission 199592.42685718
scalar OsgEarthNet.uav[32] utilizationSecMaintenance 100025.29212602
scalar OsgEarthNet.uav[32] utilizationSecCharge 908340.2770168
scalar OsgEarthNet.uav[32] utilizationSecIdle 1642.003
scalar OsgEarthNet.uav[32] utilizationEnergyMission 968821.55688858
scalar OsgEarthNet.uav[32] utilizationEnergyMaintenance 468678.31255341
scalar OsgEarthNet.uav[32] utilizationEnergyCharge 1431326.0925293
scalar OsgEarthNet.uav[32] utilizationEnergyOverdrawMission 0
scalar OsgEarthNet.uav[32] utilizationEnergyOverdrawMaintenance 0
scalar OsgEarthNet.uav[32] utilizationCountMissions 331
scalar OsgEarthNet.uav[32] utilizationCountManeuversMission 6093
scalar OsgEarthNet.uav[32] utilizationCountManeuversMaintenance 662
scalar OsgEarthNet.uav[32] utilizationCountChargeState 331
scalar OsgEarthNet.uav[32] utilizationCountOverdrawnAfterMission 0
scalar OsgEarthNet.uav[32] utilizationCountIdleState 1
scalar OsgEarthNet.uav[32] utilizationFail 0
scalar OsgEarthNet.uav[32] simulationTime 1209600
scalar OsgEarthNet.uav[33] utilizationSecMission 191002.21115366
scalar OsgEarthNet.uav[33] utilizationSecMaintenance 105899.20818947
scalar OsgEarthNet.uav[33] utilizationSecCharge 910070
scalar OsgEarthNet.uav[33] utilizationSecIdle 2628.5796568717
scalar OsgEarthNet.uav[33] utilizationEnergyMission 925087.68476105
scalar OsgEarthNet.uav[33] utilizationEnergyMaintenance 498134.05607458
scalar OsgEarthNet.uav[33] utilizationEnergyCharge 1423132.7595215
scalar OsgEarthNet.uav[33] utilizationEnergyOverdrawMission 0
scalar OsgEarthNet.uav[33] utilizationEnergyOverdrawMaintenance 0
scalar OsgEarthNet.uav[33] utilizationCountMissions 335
scalar OsgEarthNet.uav[33] utilizationCountManeuversMission 5914
scalar OsgEarthNet.uav[33] utilizationCountManeuversMaintenance 671
scalar OsgEarthNet.uav[33] utilizationCountChargeState 335
scalar OsgEarthNet.uav[33] utilizationCountOverdrawnAfterMission 0
scalar OsgEarthNet.uav[33] utilizationCountIdleState 1
scalar OsgEarthNet.uav[33] utilizationFail 0
scalar OsgEarthNet.uav[33] simulationTime 1209600
scalar OsgEarthNet.uav[34] utilizationSecMission 189297.35400916
scalar OsgEarthNet.uav[34] utilizationSecMaintenance 111483.58868993
scalar OsgEarthNet.uav[34] utilizationSecCharge 906174.63534687
scalar OsgEarthNet.uav[34] utilizationSecIdle 2644.4209540413
scalar OsgEarthNet.uav[34] utilizationEnergyMission 924772.96931458
scalar OsgEarthNet.uav[34] utilizationEnergyMaintenance 523408.81277466
scalar OsgEarthNet.uav[34] utilizationEnergyCharge 1440831.0090332
scalar OsgEarthNet.uav[34] utilizationEnergyOverdrawMission 0
scalar OsgEarthNet.uav[34] utilizationEnergyOverdrawMaintenance 0
scalar OsgEarthNet.uav[34] utilizationCountMissions 339
scalar OsgEarthNet.uav[34] utilizationCountManeuversMission 6230
scalar OsgEarthNet.uav[34] utilizationCountManeuversMaintenance 678
scalar OsgEarthNet.uav[34] utilizationCountChargeState 339
scalar OsgEarthNet.uav[34] utilizationCountOverdrawnAfterMission 0
scalar OsgEarthNet.uav[34] utilizationCountIdleState 1
scalar OsgEarthNet.uav[34] utilizationFail 0
scalar OsgEarthNet.uav[34] simulationTime 1209600
scalar OsgEarthNet.uav[35] utilizationSecMission 186706.37358279
scalar OsgEarthNet.uav[35] utilizationSecMaintenance 112967.78292321
scalar OsgEarthNet.uav[35] utilizationSecCharge 908579.51711457
scalar OsgEarthNet.uav[35] utilizationSecIdle 1346.3253794327
scalar OsgEarthNet.uav[35] utilizationEnergyMission 910814.60031891
scalar OsgEarthNet.uav[35] utilizationEnergyMaintenance 532914.67647171
scalar OsgEarthNet.uav[35] utilizationEnergyCharge 1440900.2573242
scalar OsgEarthNet.uav[35] utilizationEnergyOverdrawMission 0
scalar OsgEarthNet.uav[35] utilizationEnergyOverdrawMaintenance 0
scalar OsgEarthNet.uav[35] utilizationCountMissions 339
scalar OsgEarthNet.uav[35] utilizationCountManeuversMission 6171
scalar OsgEarthNet.uav[35] utilizationCountManeuversMaintenance 678
scalar OsgEarthNet.uav[35] utilizationCountChargeState 339
scalar OsgEarthNet.uav[35] utilizationCountOverdrawnAfterMission 0
scalar OsgEarthNet.uav[35] utilizationCountIdleState 1
scalar OsgEarthNet.uav[35] utilizationFail 0
scalar OsgEarthNet.uav[35] simulationTime 1209600
scalar OsgEarthNet.uav[36] utilizationSecMission 181988.45118489
scalar OsgEarthNet.uav[36] utilizationSecMaintenance 112255.46631003
scalar OsgEarthNet.uav[36] utilizationSecCharge 912890.80986999
scalar OsgEarthNet.uav[36] utilizationSecIdle 2465.2716350975
scalar OsgEarthNet.uav[36] utilizationEnergyMission 882053.51538467
scalar OsgEarthNet.uav[36] utilizationEnergyMaintenance 532236.87084198
scalar OsgEarthNet.uav[36] utilizationEnergyCharge 1413180.5192871
scalar OsgEarthNet.uav[36] utilizationEnergyOverdrawMission 0
scalar OsgEarthNet.uav[36] utilizationEnergyOverdrawMaintenance 0
scalar OsgEarthNet.uav[36] utilizationCountMissions 342
scalar OsgEarthNet.uav[36] utilizationCountManeuversMission 5468
scalar OsgEarthNet.uav[36] utilizationCountManeuversMaintenance 684
scalar OsgEarthNet.uav[36] utilizationCountChargeState 342
scalar OsgEarthNet.uav[36] utilizationCountOverdrawnAfterMission 0
scalar OsgEarthNet.uav[36] utilizationCountIdleState 1
scalar OsgEarthNet.uav[36] utilizationFail 0
scalar OsgEarthNet.uav[36] simulationTime 1209600
scalar OsgEarthNet.uav[37] utilizationSecMission 185647.51592008
scalar OsgEarthNet.uav[37] utilizationSecMaintenance 108693.18006644
scalar OsgEarthNet.uav[37] utilizationSecCharge 912344.59731444
scalar OsgEarthNet.uav[37] utilizationSecIdle 2914.7056990363
scalar OsgEarthNet.uav[37] utilizationEnergyMission 898167.36344528
scalar OsgEarthNet.uav[37] utilizationEnergyMaintenance 514292.10910034
scalar OsgEarthNet.uav[37] utilizationEnergyCharge 1411445.2128906
scalar OsgEarthNet.uav[37] utilizationEnergyOverdrawMission 0
scalar OsgEarthNet.uav[37] utilizationEnergyOverdrawMaintenance 0
scalar OsgEarthNet.uav[37] utilizationCountMissions 340
scalar OsgEarthNet.uav[37] utilizationCountManeuversMission 5638
scalar OsgEarthNet.uav[37] utilizationCountManeuversMaintenance 680
scalar OsgEarthNet.uav[37] utilizationCountChargeState 340
scalar OsgEarthNet.uav[37] utilizationCountOverdrawnAfterMission 0
scalar OsgEarthNet.uav[37] utilizationCountIdleState 3
scalar OsgEarthNet.uav[37] utilizationFail 0
scalar OsgEarthNet.uav[37] simulationTime 1209600
scalar OsgEarthNet.uav[38] utilizationSecMission 207091.84399435
scalar OsgEarthNet.uav[38] utilizationSecMaintenance 90776.702046929
scalar OsgEarthNet.uav[38] utilizationSecCharge 910250
scalar OsgEarthNet.uav[38] utilizationSecIdle 1481.4529587171
scalar OsgEarthNet.uav[38] utilizationEnergyMission 1001199.0522223
scalar OsgEarthNet.uav[38] utilizationEnergyMaintenance 421679.01247406
scalar OsgEarthNet.uav[38] utilizationEnergyCharge 1420303.6552734
scalar OsgEarthNet.uav[38] utilizationEnergyOverdrawMission 0
scalar OsgEarthNet.uav[38] utilizationEnergyOverdrawMaintenance 0
scalar OsgEarthNet.uav[38] utilizationCountMissions 323
scalar OsgEarthNet.uav[38] utilizationCountManeuversMission 6243
scalar OsgEarthNet.uav[38] utilizationCountManeuversMaintenance 647
scalar OsgEarthNet.uav[38] utilizationCountChargeState 323
scalar OsgEarthNet.uav[38] utilizationCountOverdrawnAfterMission 0
scalar OsgEarthNet.uav[38] utilizationCountIdleState 2
scalar OsgEarthNet.uav[38] utilizationFail 0
scalar OsgEarthNet.uav[38] simulationTime 1209600
scalar OsgEarthNet.uav[39] utilizationSecMission 197797.52008714
scalar OsgEarthNet.uav[39] utilizationSecMaintenance 100583.94512475
scalar OsgEarthNet.uav[39] utilizationSecCharge 908494.57574858
scalar OsgEarthNet.uav[39] utilizationSecIdle 2723.9580395329
scalar OsgEarthNet.uav[39] utilizationEnergyMission 956364.11145401
scalar OsgEarthNet.uav[39] utilizationEnergyMaintenance 470884.3181572
scalar OsgEarthNet.uav[39] utilizationEnergyCharge 1423401.5455933
scalar OsgEarthNet.uav[39] utilizationEnergyOverdrawMission 0
scalar OsgEarthNet.uav[39] utilizationEnergyOverdrawMaintenance 0
scalar OsgEarthNet.uav[39] utilizationCountMissions 334
scalar OsgEarthNet.uav[39] utilizationCountManeuversMission 6064
scalar OsgEarthNet.uav[39] utilizationCountManeuversMaintenance 668
scalar OsgEarthNet.uav[39] utilizationCountChargeState 334
scalar OsgEarthNet.uav[39] utilizationCountOverdrawnAfterMission 0
scalar OsgEarthNet.uav[39] utilizationCountIdleState 1
scalar OsgEarthNet.uav[39] utilizationFail 0
scalar OsgEarthNet.uav[39] simulationTime 1209600
scalar OsgEarthNet.uav[40] utilizationSecMission 198981.95762792
scalar OsgEarthNet.uav[40] utilizationSecMaintenance 99175.634791628
scalar OsgEarthNet.uav[40] utilizationSecCharge 908493.82592358
scalar OsgEarthNet.uav[40] utilizationSecIdle 2948.5806568717
scalar OsgEarthNet.uav[40] utilizationEnergyMission 960908.53740692
scalar OsgEarthNet.uav[40] utilizationEnergyMaintenance 463376.07739639
scalar OsgEarthNet.uav[40] utilizationEnergyCharge 1423770.6396484
scalar OsgEarthNet.uav[40] utilizationEnergyOverdrawMission 0
scalar OsgEarthNet.uav[40] utilizationEnergyOverdrawMaintenance 0
scalar OsgEarthNet.uav[40] utilizationCountMissions 330
scalar OsgEarthNet.uav[40] utilizationCountManeuversMission 5970
scalar OsgEarthNet.uav[40] utilizationCountManeuversMaintenance 660
scalar OsgEarthNet.uav[40] utilizationCountChargeState 330
scalar OsgEarthNet.uav[40] utilizationCountOverdrawnAfterMission 0
scalar OsgEarthNet.uav[40] utilizationCountIdleState 1
scalar OsgEarthNet.uav[40] utilizationFail 0
scalar OsgEarthNet.uav[40] simulationTime 1209600
scalar OsgEarthNet.uav[41] utilizationSecMission 185858.9653223
scalar OsgEarthNet.uav[41] utilizationSecMaintenance 110625.31927673
scalar OsgEarthNet.uav[41] utilizationSecCharge 910859.29113975
scalar OsgEarthNet.uav[41] utilizationSecIdle 2256.4232612234
scalar OsgEarthNet.uav[41] utilizationEnergyMission 906938.5045433
scalar OsgEarthNet.uav[41] utilizationEnergyMaintenance 520915.24350739
scalar OsgEarthNet.uav[41] utilizationEnergyCharge 1425496.3972168
scalar OsgEarthNet.uav[41] utilizationEnergyOverdrawMission 0
scalar OsgEarthNet.uav[41] utilizationEnergyOverdrawMaintenance 0
scalar OsgEarthNet.uav[41] utilizationCountMissions 337
scalar OsgEarthNet.uav[41] utilizationCountManeuversMission 6014
scalar OsgEarthNet.uav[41] utilizationCountManeuversMaintenance 674
scalar OsgEarthNet.uav[41] utilizationCountChargeState 337
scalar OsgEarthNet.uav[41] utilizationCountOverdrawnAfterMission 0
scalar OsgEarthNet.uav[41] utilizationCountIdleState 3
scalar OsgEarthNet.uav[41] utilizationFail 0
scalar OsgEarthNet.uav[41] simulationTime 1209600
scalar OsgEarthNet.uav[42] utilizationSecMission 195364.80890556
scalar OsgEarthNet.uav[42] utilizationSecMaintenance 103060.66804258
scalar OsgEarthNet.uav[42] utilizationSecCharge 909271.14621848
scalar OsgEarthNet.uav[42] utilizationSecIdle 1903.3758333845
scalar OsgEarthNet.uav[42] utilizationEnergyMission 942580.36221313
scalar OsgEarthNet.uav[42] utilizationEnergyMaintenance 483400.809021
scalar OsgEarthNet.uav[42] utilizationEnergyCharge 1426605.3000488
scalar OsgEarthNet.uav[42] utilizationEnergyOverdrawMission 0
scalar OsgEarthNet.uav[42] utilizationEnergyOverdrawMaintenance 0
scalar OsgEarthNet.uav[42] utilizationCountMissions 334
scalar OsgEarthNet.uav[42] utilizationCountManeuversMission 5938
scalar OsgEarthNet.uav[42] utilizationCountManeuversMaintenance 668
scalar OsgEarthNet.uav[42] utilizationCountChargeState 334
scalar OsgEarthNet.uav[42] utilizationCountOverdrawnAfterMission 0
scalar OsgEarthNet.uav[42] utilizationCountIdleState 4
scalar OsgEarthNet.uav[42] utilizationFail 0
scalar OsgEarthNet.uav[42] simulationTime 1209600
scalar OsgEarthNet.uav[43] utilizationSecMission 190958.57341077
scalar OsgEarthNet.uav[43] utilizationSecMaintenance 112400.12289437
scalar OsgEarthNet.uav[43] utilizationSecCharge 904985.28109211
scalar OsgEarthNet.uav[43] utilizationSecIdle 1256.0216027455
scalar OsgEarthNet.uav[43] utilizationEnergyMission 934877.39332199
scalar OsgEarthNet.uav[43] utilizationEnergyMaintenance 528208.32892609
scalar OsgEarthNet.uav[43] utilizationEnergyCharge 1456895.3532715
scalar OsgEarthNet.uav[43] utilizationEnergyOverdrawMission 0
scalar OsgEarthNet.uav[43] utilizationEnergyOverdrawMaintenance 0
scalar OsgEarthNet.uav[43] utilizationCountMissions 338
scalar OsgEarthNet.uav[43] utilizationCountManeuversMission 6324
scalar OsgEarthNet.uav[43] utilizationCountManeuversMaintenance 676
scalar OsgEarthNet.uav[43] utilizationCountChargeState 338
scalar OsgEarthNet.uav[43] utilizationCountOverdrawnAfterMission 0
scalar OsgEarthNet.uav[43] utilizationCountIdleState 1
scalar OsgEarthNet.uav[43] utilizationFail 0
scalar OsgEarthNet.uav[43] simulationTime 1209600
scalar OsgEarthNet.uav[44] utilizationSecMission 183788.63673662
scalar OsgEarthNet.uav[44] utilizationSecMaintenance 114550.57772128
scalar OsgEarthNet.uav[44] utilizationSecCharge 911258.7845421
scalar OsgEarthNet.uav[44] utilizationSecIdle 2
scalar OsgEarthNet.uav[44] utilizationEnergyMission 888399.37105942
scalar OsgEarthNet.uav[44] utilizationEnergyMaintenance 544917.25980759
scalar OsgEarthNet.uav[44] utilizationEnergyCharge 1435744.4702148
scalar OsgEarthNet.uav[44] utilizationEnergyOverdrawMission 0
scalar OsgEarthNet.uav[44] utilizationEnergyOverdrawMaintenance 0
scalar OsgEarthNet.uav[44] utilizationCountMissions 345
scalar OsgEarthNet.uav[44] utilizationCountManeuversMission 5725
scalar OsgEarthNet.uav[44] utilizationCountManeuversMaintenance 689
scalar OsgEarthNet.uav[44] utilizationCountChargeState 345
scalar OsgEarthNet.uav[44] utilizationCountOverdrawnAfterMission 0
scalar OsgEarthNet.uav[44] utilizationCountIdleState 1
scalar OsgEarthNet.uav[44] utilizationFail 0
scalar OsgEarthNet.uav[44] simulationTime 1209600
scalar OsgEarthNet.uav[45] utilizationSecMission 194557.30111676
scalar OsgEarthNet.uav[45] utilizationSecMaintenance 103840.69788324
scalar OsgEarthNet.uav[45] utilizationSecCharge 911200
scalar OsgEarthNet.uav[45] utilizationSecIdle 2
scalar OsgEarthNet.uav[45] utilizationEnergyMission 937462.16704316
scalar OsgEarthNet.uav[45] utilizationEnergyMaintenance 488048.81211853
scalar OsgEarthNet.uav[45] utilizationEnergyCharge 1427276.4555664
scalar OsgEarthNet.uav[45] utilizationEnergyOverdrawMission 0
scalar OsgEarthNet.uav[45] utilizationEnergyOverdrawMaintenance 0
scalar OsgEarthNet.uav[45] utilizationCountMissions 336
scalar OsgEarthNet.uav[45] utilizationCountManeuversMission 5747
scalar OsgEarthNet.uav[45] utilizationCountManeuversMaintenance 672
scalar OsgEarthNet.uav[45] utilizationCountChargeState 336
scalar OsgEarthNet.uav[45] utilizationCountOverdrawnAfterMission 0
scalar OsgEarthNet.uav[45] utilizationCountIdleState 1
scalar OsgEarthNet.uav[45] utilizationFail 0
scalar OsgEarthNet.uav[45] simulationTime 1209600
scalar OsgEarthNet.uav[46] utilizationSecMission 190984.54376987
scalar OsgEarthNet.uav[46] utilizationSecMaintenance 108810.18259504
scalar OsgEarthNet.uav[46] utilizationSecCharge 906860
scalar OsgEarthNet.uav[46] utilizationSecIdle 2945.2726350975
scalar OsgEarthNet.uav[46] utilizationEnergyMission 928271.50307465
scalar OsgEarthNet.uav[46] utilizationEnergyMaintenance 512629.75770146
scalar OsgEarthNet.uav[46] utilizationEnergyCharge 1432675.0952148
scalar OsgEarthNet.uav[46] utilizationEnergyOverdrawMission 0
scalar OsgEarthNet.uav[46] utilizationEnergyOverdrawMaintenance 0
scalar OsgEarthNet.uav[46] utilizationCountMissions 337
scalar OsgEarthNet.uav[46] utilizationCountManeuversMission 5991
scalar OsgEarthNet.uav[46] utilizationCountManeuversMaintenance 674
scalar OsgEarthNet.uav[46] utilizationCountChargeState 336
scalar OsgEarthNet.uav[46] utilizationCountOverdrawnAfterMission 0
scalar OsgEarthNet.uav[46] utilizationCountIdleState 1
scalar OsgEarthNet.uav[46] utilizationFail 0
scalar OsgEarthNet.uav[46] simulationTime 1209600
scalar OsgEarthNet.uav[47] utilizationSecMission 189766.54223677
scalar OsgEarthNet.uav[47] utilizationSecMaintenance 108308.84487371
scalar OsgEarthNet.uav[47] utilizationSecCharge 910940
scalar OsgEarthNet.uav[47] utilizationSecIdle 584.61188951643
scalar OsgEarthNet.uav[47] utilizationEnergyMission 911631.57626724
scalar OsgEarthNet.uav[47] utilizationEnergyMaintenance 511181.10895615
scalar OsgEarthNet.uav[47] utilizationEnergyCharge 1429064.9545898
scalar OsgEarthNet.uav[47] utilizationEnergyOverdrawMission 0
scalar OsgEarthNet.uav[47] utilizationEnergyOverdrawMaintenance 0
scalar OsgEarthNet.uav[47] utilizationCountMissions 339
scalar OsgEarthNet.uav[47] utilizationCountManeuversMission 5741
scalar OsgEarthNet.uav[47] utilizationCountManeuversMaintenance 679
scalar OsgEarthNet.uav[47] utilizationCountChargeState 339
scalar OsgEarthNet.uav[47] utilizationCountOverdrawnAfterMission 0
scalar OsgEarthNet.uav[47] utilizationCountIdleState 1
scalar OsgEarthNet.uav[47] utilizationFail 0
scalar OsgEarthNet.uav[47] simulationTime 1209600
scalar OsgEarthNet.uav[48] utilizationSecMission 189883.89509869
scalar OsgEarthNet.uav[48] utilizationSecMaintenance 110524.68591101
scalar OsgEarthNet.uav[48] utilizationSecCharge 908089.4159903
scalar OsgEarthNet.uav[48] utilizationSecIdle 1102.002
scalar OsgEarthNet.uav[48] utilizationEnergyMission 929470.86520767
scalar OsgEarthNet.uav[48] utilizationEnergyMaintenance 522869.61232376
scalar OsgEarthNet.uav[48] utilizationEnergyCharge 1450420.6359863
scalar OsgEarthNet.uav[48] utilizationEnergyOverdrawMission 0
scalar OsgEarthNet.uav[48] utilizationEnergyOverdrawMaintenance 0
scalar OsgEarthNet.uav[48] utilizationCountMissions 338
scalar OsgEarthNet.uav[48] utilizationCountManeuversMission 6206
scalar OsgEarthNet.uav[48] utilizationCountManeuversMaintenance 676
scalar OsgEarthNet.uav[48] utilizationCountChargeState 338
scalar OsgEarthNet.uav[48] utilizationCountOverdrawnAfterMission 0
scalar OsgEarthNet.uav[48] utilizationCountIdleState 1
scalar OsgEarthNet.uav[48] utilizationFail 0
scalar OsgEarthNet.uav[48] simulationTime 1209600
scalar OsgEarthNet.uav[49] utilizationSecMission 194260.32851526
scalar OsgEarthNet.uav[49] utilizationSecMaintenance 106602.86715268
scalar OsgEarthNet.uav[49] utilizationSecCharge 908031.2564228
scalar OsgEarthNet.uav[49] utilizationSecIdle 705.54690925794
scalar OsgEarthNet.uav[49] utilizationEnergyMission 947170.61708069
scalar OsgEarthNet.uav[49] utilizationEnergyMaintenance 501221.45668793
scalar OsgEarthNet.uav[49] utilizationEnergyCharge 1440325.9375
scalar OsgEarthNet.uav[49] utilizationEnergyOverdrawMission 0
scalar OsgEarthNet.uav[49] utilizationEnergyOverdrawMaintenance 0
scalar OsgEarthNet.uav[49] utilizationCountMissions 334
scalar OsgEarthNet.uav[49] utilizationCountManeuversMission 6465
scalar OsgEarthNet.uav[49] utilizationCountManeuversMaintenance 668
scalar OsgEarthNet.uav[49] utilizationCountChargeState 334
scalar OsgEarthNet.uav[49] utilizationCountOverdrawnAfterMission 0
scalar OsgEarthNet.uav[49] utilizationCountIdleState 1
scalar OsgEarthNet.uav[49] utilizationFail 0
scalar OsgEarthNet.uav[49] simulationTime 1209600
scalar OsgEarthNet.uav[50] utilizationSecMission 202952.39885062
scalar OsgEarthNet.uav[50] utilizationSecMaintenance 98326.091212558
scalar OsgEarthNet.uav[50] utilizationSecCharge 908319.50893682
scalar OsgEarthNet.uav[50] utilizationSecIdle 2
scalar OsgEarthNet.uav[50] utilizationEnergyMission 985925.5307579
scalar OsgEarthNet.uav[50] utilizationEnergyMaintenance 461583.55721283
scalar OsgEarthNet.uav[50] utilizationEnergyCharge 1446555.2512207
scalar OsgEarthNet.uav[50] utilizationEnergyOverdrawMission 0
scalar OsgEarthNet.uav[50] utilizationEnergyOverdrawMaintenance 0
scalar OsgEarthNet.uav[50] utilizationCountMissions 329
scalar OsgEarthNet.uav[50] utilizationCountManeuversMission 6218
scalar OsgEarthNet.uav[50] utilizationCountManeuversMaintenance 657
scalar OsgEarthNet.uav[50] utilizationCountChargeState 329
scalar OsgEarthNet.uav[50] utilizationCountOverdrawnAfterMission 0
scalar OsgEarthNet.uav[50] utilizationCountIdleState 1
scalar OsgEarthNet.uav[50] utilizationFail 0
scalar OsgEarthNet.uav[50] simulationTime 1209600
scalar OsgEarthNet.uav[51] utilizationSecMission 197748.91914117
scalar OsgEarthNet.uav[51] utilizationSecMaintenance 100221.44552731
scalar OsgEarthNet.uav[51] utilizationSecCharge 908843.21007029
scalar OsgEarthNet.uav[51] utilizationSecIdle 2786.4242612234
scalar OsgEarthNet.uav[51] utilizationEnergyMission 959873.03207397
scalar OsgEarthNet.uav[51] utilizationEnergyMaintenance 469431.03554916
scalar OsgEarthNet.uav[51] utilizationEnergyCharge 1425637.3498535
scalar OsgEarthNet.uav[51] utilizationEnergyOverdrawMission 0
scalar OsgEarthNet.uav[51] utilizationEnergyOverdrawMaintenance 0
scalar OsgEarthNet.uav[51] utilizationCountMissions 330
scalar OsgEarthNet.uav[51] utilizationCountManeuversMission 6316
scalar OsgEarthNet.uav[51] utilizationCountManeuversMaintenance 660
scalar OsgEarthNet.uav[51] utilizationCountChargeState 330
scalar OsgEarthNet.uav[51] utilizationCountOverdrawnAfterMission 0
scalar OsgEarthNet.uav[51] utilizationCountIdleState 1
scalar OsgEarthNet.uav[51] utilizationFail 0
scalar OsgEarthNet.uav[51] simulationTime 1209600
scalar OsgEarthNet.uav[52] utilizationSecMission 193517.49105095
scalar OsgEarthNet.uav[52] utilizationSecMaintenance 108741.71369914
scalar OsgEarthNet.uav[52] utilizationSecCharge 906451.6191395
scalar OsgEarthNet.uav[52] utilizationSecIdle 889.17511041073
scalar OsgEarthNet.uav[52] utilizationEnergyMission 941619.13133621
scalar OsgEarthNet.uav[52] utilizationEnergyMaintenance 507491.08750534
scalar OsgEarthNet.uav[52] utilizationEnergyCharge 1442662.8059692
scalar OsgEarthNet.uav[52] utilizationEnergyOverdrawMission 0
scalar OsgEarthNet.uav[52] utilizationEnergyOverdrawMaintenance 0
scalar OsgEarthNet.uav[52] utilizationCountMissions 337
scalar OsgEarthNet.uav[52] utilizationCountManeuversMission 6406
scalar OsgEarthNet.uav[52] utilizationCountManeuversMaintenance 674
scalar OsgEarthNet.uav[52] utilizationCountChargeState 337
scalar OsgEarthNet.uav[52] utilizationCountOverdrawnAfterMission 0
scalar OsgEarthNet.uav[52] utilizationCountIdleState 1
scalar OsgEarthNet.uav[52] utilizationFail 0
scalar OsgEarthNet.uav[52] simulationTime 1209600
scalar OsgEarthNet.uav[53] utilizationSecMission 189271.61933242
scalar OsgEarthNet.uav[53] utilizationSecMaintenance 107884.49523323
scalar OsgEarthNet.uav[53] utilizationSecCharge 910361.94542778
scalar OsgEarthNet.uav[53] utilizationSecIdle 2081.939006574
scalar OsgEarthNet.uav[53] utilizationEnergyMission 914956.979702
scalar OsgEarthNet.uav[53] utilizationEnergyMaintenance 508409.86174393
scalar OsgEarthNet.uav[53] utilizationEnergyCharge 1421077.8133545
scalar OsgEarthNet.uav[53] utilizationEnergyOverdrawMission 0
scalar OsgEarthNet.uav[53] utilizationEnergyOverdrawMaintenance 0
scalar OsgEarthNet.uav[53] utilizationCountMissions 338
scalar OsgEarthNet.uav[53] utilizationCountManeuversMission 5714
scalar OsgEarthNet.uav[53] utilizationCountManeuversMaintenance 676
scalar OsgEarthNet.uav[53] utilizationCountChargeState 338
scalar OsgEarthNet.uav[53] utilizationCountOverdrawnAfterMission 0
scalar OsgEarthNet.uav[53] utilizationCountIdleState 1
scalar OsgEarthNet.uav[53] utilizationFail 0
scalar OsgEarthNet.uav[53] simulationTime 1209600
scalar OsgEarthNet.uav[54] utilizationSecMission 207291.27601246
scalar OsgEarthNet.uav[54] utilizationSecMaintenance 91064.195181196
scalar OsgEarthNet.uav[54] utilizationSecCharge 910108.10654512
scalar OsgEarthNet.uav[54] utilizationSecIdle 1136.4212612234
scalar OsgEarthNet.uav[54] utilizationEnergyMission 1001854.340992
scalar OsgEarthNet.uav[54] utilizationEnergyMaintenance 422770.62313461
scalar OsgEarthNet.uav[54] utilizationEnergyCharge 1422064.442627
scalar OsgEarthNet.uav[54] utilizationEnergyOverdrawMission 0
scalar OsgEarthNet.uav[54] utilizationEnergyOverdrawMaintenance 0
scalar OsgEarthNet.uav[54] utilizationCountMissions 324
scalar OsgEarthNet.uav[54] utilizationCountManeuversMission 6192
scalar OsgEarthNet.uav[54] utilizationCountManeuversMaintenance 648
scalar OsgEarthNet.uav[54] utilizationCountChargeState 324
scalar OsgEarthNet.uav[54] utilizationCountOverdrawnAfterMission 0
scalar OsgEarthNet.uav[54] utilizationCountIdleState 2
scalar OsgEarthNet.uav[54] utilizationFail 0
scalar OsgEarthNet.uav[54] simulationTime 1209600
scalar OsgEarthNet.uav[55] utilizationSecMission 192193.53723602
scalar OsgEarthNet.uav[55] utilizationSecMaintenance 104340.11154315
scalar OsgEarthNet.uav[55] utilizationSecCharge 911190
scalar OsgEarthNet.uav[55] utilizationSecIdle 1876.3502208215
scalar OsgEarthNet.uav[55] utilizationEnergyMission 932995.37471235
scalar OsgEarthNet.uav[55] utilizationEnergyMaintenance 490879.71344376
scalar OsgEarthNet.uav[55] utilizationEnergyCharge 1420132.4692383
scalar OsgEarthNet.uav[55] utilizationEnergyOverdrawMission 0
scalar OsgEarthNet.uav[55] utilizationEnergyOverdrawMaintenance 0
scalar OsgEarthNet.uav[55] utilizationCountMissions 335
scalar OsgEarthNet.uav[55] utilizationCountManeuversMission 6116
scalar OsgEarthNet.uav[55] utilizationCountManeuversMaintenance 671
scalar OsgEarthNet.uav[55] utilizationCountChargeState 335
scalar OsgEarthNet.uav[55] utilizationCountOverdrawnAfterMission 0
scalar OsgEarthNet.uav[55] utilizationCountIdleState 3
scalar OsgEarthNet.uav[55] utilizationFail 0
scalar OsgEarthNet.uav[55] simulationTime 1209600
scalar OsgEarthNet.cs[0] usedPower 19868594.752446
scalar OsgEarthNet.cs[0] chargedPower 19868594.752446
scalar OsgEarthNet.cs[0] chargedMobileNodes 1
scalar OsgEarthNet.cs[0] reservations 4669
scalar OsgEarthNet.cs[1] usedPower 27001545.866989
scalar OsgEarthNet.cs[1] chargedPower 27001545.866989
scalar OsgEarthNet.cs[1] chargedMobileNodes 18
scalar OsgEarthNet.cs[1] reservations 6685
scalar OsgEarthNet.cs[2] usedPower 33146504.227868
scalar OsgEarthNet.cs[2] chargedPower 33146504.227868
scalar OsgEarthNet.cs[2] chargedMobileNodes 7
scalar OsgEarthNet.cs[2] reservations 7459

