version 2
run Szenario_Hotel_Gabelbach-48-20180718-19:14:10-4628
attr configname Szenario_Hotel_Gabelbach
attr datetime 20180718-19:14:10
attr experiment Szenario_Hotel_Gabelbach
attr inifile omnetpp.ini
attr iterationvars "$replM=2, $biWeight=0.35, $replSearchM=1, $numUAVs=56"
attr iterationvarsf replM=2,biWeight=0.35,replSearchM=1,numUAVs=56-
attr measurement "$replM=2, $biWeight=0.35, $replSearchM=1, $numUAVs=56"
attr network OsgEarthNet
attr processid 4628
attr repetition 0
attr replication #0
attr resultdir results
attr runnumber 48
attr seedset 48
itervar biWeight 0.35
itervar numUAVs 56
itervar replM 2
itervar replSearchM 1
param *.osgEarthScene.scene "\"Szenario_Hotel_Gabelbach.earth\""
param *.playgroundLatitude 50.6830269
param *.playgroundLongitude 10.8538055
param *.playgroundWidth 3500m
param *.playgroundHeight 3500m
param *.cs[0].posX 3537m
param *.cs[0].posY 965m
param *.cs[0].posZ 538m
param *.cs[1].posX 312m
param *.cs[1].posY 1262m
param *.cs[1].posZ 539m
param *.cs[2].posX 2185m
param *.cs[2].posY 3026m
param *.cs[2].posZ 777m
param *.cs[3].posX 10m
param *.cs[3].posY 2200m
param *.cs[3].posZ 560m
param *.cs[4].posX 750m
param *.cs[4].posY 200m
param *.cs[4].posZ 540m
param *.cs[5].posX 2450m
param *.cs[5].posY 180m
param *.cs[5].posZ 524m
param *.cs[6].posX 3140m
param *.cs[6].posY 1790m
param *.cs[6].posZ 606m
param *.numCSs 3
param *.uav[*].replacementMethod 2
param *.uav[*].weightedSumWeight 0.35
param *.missionControl.replacementSearchMethod 1
param *.numUAVs 56
param *.*.timeStep 10s
param *.uav[*].commandPreviewCommandCount 20
param *.missionControl.missionFiles "\"missions\\\\Szenario_WB_Hotel_Gabelbach_Mission_Hotel.waypoints,missions\\\\Szenario_WB_Hotel_Gabelbach_Mission_Kickelhahn.waypoints,missions\\\\Szenario_WB_Hotel_Gabelbach_Mission_Ilmenau_Sportplatz.waypoints,missions\\\\Szenario_WB_Hotel_Gabelbach_Mission_Manebach_Mitte.waypoints,missions\\\\Szenario_WB_Hotel_Gabelbach_Mission_Manebach_Sued.waypoints,missions\\\\Szenario_WB_Hotel_Gabelbach_Hover_HoheSchlaufe.waypoints,missions\\\\Szenario_WB_Hotel_Gabelbach_Hover_Kickelhahn.waypoints,missions\\\\Szenario_WB_Hotel_Gabelbach_Hover_Gabelbachskopf.waypoints,missions\\\\Szenario_WB_Hotel_Gabelbach_Hover_Dachskopf.waypoints\""
param *.uav[0].startX 3537m
param *.uav[0].startY 965m
param *.uav[0].startZ 539m
param *.uav[1].startX 312m
param *.uav[1].startY 1262m
param *.uav[1].startZ 540m
param *.uav[2].startX 2185m
param *.uav[2].startY 3026m
param *.uav[2].startZ 778m
param *.uav[3].startX 3537m
param *.uav[3].startY 965m
param *.uav[3].startZ 539m
param *.uav[4].startX 312m
param *.uav[4].startY 1262m
param *.uav[4].startZ 540m
param *.uav[5].startX 2185m
param *.uav[5].startY 3026m
param *.uav[5].startZ 778m
param *.uav[6].startX 3537m
param *.uav[6].startY 965m
param *.uav[6].startZ 539m
param *.uav[7].startX 312m
param *.uav[7].startY 1262m
param *.uav[7].startZ 540m
param *.uav[8].startX 2185m
param *.uav[8].startY 3026m
param *.uav[8].startZ 778m
param *.uav[9].startX 3537m
param *.uav[9].startY 965m
param *.uav[9].startZ 539m
param *.uav[10].startX 3537m
param *.uav[10].startY 965m
param *.uav[10].startZ 539m
param *.uav[11].startX 312m
param *.uav[11].startY 1262m
param *.uav[11].startZ 540m
param *.uav[12].startX 2185m
param *.uav[12].startY 3026m
param *.uav[12].startZ 778m
param *.uav[13].startX 3537m
param *.uav[13].startY 965m
param *.uav[13].startZ 539m
param *.uav[14].startX 312m
param *.uav[14].startY 1262m
param *.uav[14].startZ 540m
param *.uav[15].startX 2185m
param *.uav[15].startY 3026m
param *.uav[15].startZ 778m
param *.uav[16].startX 3537m
param *.uav[16].startY 965m
param *.uav[16].startZ 539m
param *.uav[17].startX 312m
param *.uav[17].startY 1262m
param *.uav[17].startZ 540m
param *.uav[18].startX 2185m
param *.uav[18].startY 3026m
param *.uav[18].startZ 778m
param *.uav[19].startX 3537m
param *.uav[19].startY 965m
param *.uav[19].startZ 539m
param *.uav[20].startX 3537m
param *.uav[20].startY 965m
param *.uav[20].startZ 539m
param *.uav[21].startX 312m
param *.uav[21].startY 1262m
param *.uav[21].startZ 540m
param *.uav[22].startX 2185m
param *.uav[22].startY 3026m
param *.uav[22].startZ 778m
param *.uav[23].startX 3537m
param *.uav[23].startY 965m
param *.uav[23].startZ 539m
param *.uav[24].startX 312m
param *.uav[24].startY 1262m
param *.uav[24].startZ 540m
param *.uav[25].startX 2185m
param *.uav[25].startY 3026m
param *.uav[25].startZ 778m
param *.uav[26].startX 3537m
param *.uav[26].startY 965m
param *.uav[26].startZ 539m
param *.uav[27].startX 312m
param *.uav[27].startY 1262m
param *.uav[27].startZ 540m
param *.uav[28].startX 2185m
param *.uav[28].startY 3026m
param *.uav[28].startZ 778m
param *.uav[29].startX 3537m
param *.uav[29].startY 965m
param *.uav[29].startZ 539m
param *.uav[30].startX 3537m
param *.uav[30].startY 965m
param *.uav[30].startZ 539m
param *.uav[31].startX 312m
param *.uav[31].startY 1262m
param *.uav[31].startZ 540m
param *.uav[32].startX 2185m
param *.uav[32].startY 3026m
param *.uav[32].startZ 778m
param *.uav[33].startX 3537m
param *.uav[33].startY 965m
param *.uav[33].startZ 539m
param *.uav[34].startX 312m
param *.uav[34].startY 1262m
param *.uav[34].startZ 540m
param *.uav[35].startX 2185m
param *.uav[35].startY 3026m
param *.uav[35].startZ 778m
param *.uav[36].startX 3537m
param *.uav[36].startY 965m
param *.uav[36].startZ 539m
param *.uav[37].startX 312m
param *.uav[37].startY 1262m
param *.uav[37].startZ 540m
param *.uav[38].startX 2185m
param *.uav[38].startY 3026m
param *.uav[38].startZ 778m
param *.uav[39].startX 3537m
param *.uav[39].startY 965m
param *.uav[39].startZ 539m
param *.uav[40].startX 3537m
param *.uav[40].startY 965m
param *.uav[40].startZ 539m
param *.uav[41].startX 312m
param *.uav[41].startY 1262m
param *.uav[41].startZ 540m
param *.uav[42].startX 2185m
param *.uav[42].startY 3026m
param *.uav[42].startZ 778m
param *.uav[43].startX 3537m
param *.uav[43].startY 965m
param *.uav[43].startZ 539m
param *.uav[44].startX 312m
param *.uav[44].startY 1262m
param *.uav[44].startZ 540m
param *.uav[45].startX 2185m
param *.uav[45].startY 3026m
param *.uav[45].startZ 778m
param *.uav[46].startX 3537m
param *.uav[46].startY 965m
param *.uav[46].startZ 539m
param *.uav[47].startX 312m
param *.uav[47].startY 1262m
param *.uav[47].startZ 540m
param *.uav[48].startX 2185m
param *.uav[48].startY 3026m
param *.uav[48].startZ 778m
param *.uav[49].startX 3537m
param *.uav[49].startY 965m
param *.uav[49].startZ 539m
param *.uav[50].startX 3537m
param *.uav[50].startY 965m
param *.uav[50].startZ 539m
param *.uav[51].startX 312m
param *.uav[51].startY 1262m
param *.uav[51].startZ 540m
param *.uav[52].startX 2185m
param *.uav[52].startY 3026m
param *.uav[52].startZ 778m
param *.uav[53].startX 3537m
param *.uav[53].startY 965m
param *.uav[53].startZ 539m
param *.uav[54].startX 312m
param *.uav[54].startY 1262m
param *.uav[54].startZ 540m
param *.uav[55].startX 2185m
param *.uav[55].startY 3026m
param *.uav[55].startZ 778m
param *.uav[56].startX 3537m
param *.uav[56].startY 965m
param *.uav[56].startZ 539m
param *.uav[57].startX 312m
param *.uav[57].startY 1262m
param *.uav[57].startZ 540m
param *.uav[58].startX 2185m
param *.uav[58].startY 3026m
param *.uav[58].startZ 778m
param *.uav[59].startX 3537m
param *.uav[59].startY 965m
param *.uav[59].startZ 539m
param *.uav[60].startX 3537m
param *.uav[60].startY 965m
param *.uav[60].startZ 539m
param *.uav[61].startX 312m
param *.uav[61].startY 1262m
param *.uav[61].startZ 540m
param *.uav[62].startX 2185m
param *.uav[62].startY 3026m
param *.uav[62].startZ 778m
param *.uav[63].startX 3537m
param *.uav[63].startY 965m
param *.uav[63].startZ 539m
param *.uav[64].startX 312m
param *.uav[64].startY 1262m
param *.uav[64].startZ 540m
param *.uav[65].startX 2185m
param *.uav[65].startY 3026m
param *.uav[65].startZ 778m
param *.uav[66].startX 3537m
param *.uav[66].startY 965m
param *.uav[66].startZ 539m
param *.uav[67].startX 312m
param *.uav[67].startY 1262m
param *.uav[67].startZ 540m
param *.uav[68].startX 2185m
param *.uav[68].startY 3026m
param *.uav[68].startZ 778m
param *.uav[69].startX 3537m
param *.uav[69].startY 965m
param *.uav[69].startZ 539m
param *.uav[70].startX 3537m
param *.uav[70].startY 965m
param *.uav[70].startZ 539m
param *.uav[71].startX 312m
param *.uav[71].startY 1262m
param *.uav[71].startZ 540m
param *.uav[72].startX 2185m
param *.uav[72].startY 3026m
param *.uav[72].startZ 778m
param *.uav[73].startX 3537m
param *.uav[73].startY 965m
param *.uav[73].startZ 539m
param *.uav[74].startX 312m
param *.uav[74].startY 1262m
param *.uav[74].startZ 540m
param *.uav[75].startX 2185m
param *.uav[75].startY 3026m
param *.uav[75].startZ 778m
param *.uav[76].startX 3537m
param *.uav[76].startY 965m
param *.uav[76].startZ 539m
param *.uav[77].startX 312m
param *.uav[77].startY 1262m
param *.uav[77].startZ 540m
param *.uav[78].startX 2185m
param *.uav[78].startY 3026m
param *.uav[78].startZ 778m
param *.uav[79].startX 3537m
param *.uav[79].startY 965m
param *.uav[79].startZ 539m
param *.uav[80].startX 3537m
param *.uav[80].startY 965m
param *.uav[80].startZ 539m
param *.uav[81].startX 312m
param *.uav[81].startY 1262m
param *.uav[81].startZ 540m
param *.uav[82].startX 2185m
param *.uav[82].startY 3026m
param *.uav[82].startZ 778m
param *.uav[83].startX 3537m
param *.uav[83].startY 965m
param *.uav[83].startZ 539m
param *.uav[84].startX 312m
param *.uav[84].startY 1262m
param *.uav[84].startZ 540m
param *.uav[85].startX 2185m
param *.uav[85].startY 3026m
param *.uav[85].startZ 778m
param *.uav[86].startX 3537m
param *.uav[86].startY 965m
param *.uav[86].startZ 539m
param *.uav[87].startX 312m
param *.uav[87].startY 1262m
param *.uav[87].startZ 540m
param *.uav[88].startX 2185m
param *.uav[88].startY 3026m
param *.uav[88].startZ 778m
param *.uav[89].startX 3537m
param *.uav[89].startY 965m
param *.uav[89].startZ 539m
param *.uav[90].startX 3537m
param *.uav[90].startY 965m
param *.uav[90].startZ 539m
param *.uav[91].startX 312m
param *.uav[91].startY 1262m
param *.uav[91].startZ 540m
param *.uav[92].startX 2185m
param *.uav[92].startY 3026m
param *.uav[92].startZ 778m
param *.uav[93].startX 3537m
param *.uav[93].startY 965m
param *.uav[93].startZ 539m
param *.uav[94].startX 312m
param *.uav[94].startY 1262m
param *.uav[94].startZ 540m
param *.uav[95].startX 2185m
param *.uav[95].startY 3026m
param *.uav[95].startZ 778m
param *.uav[96].startX 3537m
param *.uav[96].startY 965m
param *.uav[96].startZ 539m
param *.uav[97].startX 312m
param *.uav[97].startY 1262m
param *.uav[97].startZ 540m
param *.uav[98].startX 2185m
param *.uav[98].startY 3026m
param *.uav[98].startZ 778m
param *.uav[99].startX 3537m
param *.uav[99].startY 965m
param *.uav[99].startZ 539m
param *.osgEarthScene.scene "\"boston.earth\""
param *.playgroundLatitude 42.3558
param *.playgroundLongitude -71.0677
param *.playgroundWidth 400m
param *.playgroundHeight 200m
param *.channelController.connectionColor "\"#0000FF40\""
param *.channelController.showConnections false
param *.uav[*].modelURL "\"quadrocopter.small.obj.15.scale.0,0,90.rot\""
param *.uav[*].labelColor "\"#FF7C00CC\""
param *.uav[*].label2Color "\"#FF7C00EE\""
param *.uav[*].batteryCapacity 5200mAh
param *.uav[*].batteryRemaining uav[index].batteryCapacity
param *.uav[*].predictionQuantile 0.95
param *.uav[*].replacementMethod 2
param *.uav[*].weightedSumWeight 0.5
param *.cs[*].modelURL "\"chargingstation_v1.osgt.2.scale.0,0,0.rot.0,0,-15e-1.trans\""
param *.cs[*].spotsWaiting 999
param *.cs[*].spotsCharging 999
param *.cs[*].chargeEffectivenessPercentage 100
param *.cs[*].nonLinearPhaseStartPercentage 85
param *.cs[*].chargeCurrent 6.0A
param *.cs[*].prioritizeFastCharge true
param *.missionControl.replacementSearchMethod 0
param *.*.timeStep 9s

scalar OsgEarthNet.uav[0] utilizationSecMission 194500.60217035
scalar OsgEarthNet.uav[0] utilizationSecMaintenance 102995.70629321
scalar OsgEarthNet.uav[0] utilizationSecCharge 911341.06437565
scalar OsgEarthNet.uav[0] utilizationSecIdle 762.62616078931
scalar OsgEarthNet.uav[0] utilizationEnergyMission 943735.82766724
scalar OsgEarthNet.uav[0] utilizationEnergyMaintenance 485675.66669083
scalar OsgEarthNet.uav[0] utilizationEnergyCharge 1429319.2331543
scalar OsgEarthNet.uav[0] utilizationEnergyOverdrawMission 0
scalar OsgEarthNet.uav[0] utilizationEnergyOverdrawMaintenance 0
scalar OsgEarthNet.uav[0] utilizationCountMissions 334
scalar OsgEarthNet.uav[0] utilizationCountManeuversMission 5735
scalar OsgEarthNet.uav[0] utilizationCountManeuversMaintenance 668
scalar OsgEarthNet.uav[0] utilizationCountChargeState 334
scalar OsgEarthNet.uav[0] utilizationCountOverdrawnAfterMission 0
scalar OsgEarthNet.uav[0] utilizationCountIdleState 1
scalar OsgEarthNet.uav[0] utilizationFail 0
scalar OsgEarthNet.uav[0] simulationTime 1209600
scalar OsgEarthNet.uav[1] utilizationSecMission 184764.09697068
scalar OsgEarthNet.uav[1] utilizationSecMaintenance 112386.61001722
scalar OsgEarthNet.uav[1] utilizationSecCharge 910867.2890121
scalar OsgEarthNet.uav[1] utilizationSecIdle 1582.003
scalar OsgEarthNet.uav[1] utilizationEnergyMission 895073.64915848
scalar OsgEarthNet.uav[1] utilizationEnergyMaintenance 532183.46343231
scalar OsgEarthNet.uav[1] utilizationEnergyCharge 1420669.539917
scalar OsgEarthNet.uav[1] utilizationEnergyOverdrawMission 0
scalar OsgEarthNet.uav[1] utilizationEnergyOverdrawMaintenance 0
scalar OsgEarthNet.uav[1] utilizationCountMissions 343
scalar OsgEarthNet.uav[1] utilizationCountManeuversMission 5528
scalar OsgEarthNet.uav[1] utilizationCountManeuversMaintenance 686
scalar OsgEarthNet.uav[1] utilizationCountChargeState 343
scalar OsgEarthNet.uav[1] utilizationCountOverdrawnAfterMission 0
scalar OsgEarthNet.uav[1] utilizationCountIdleState 1
scalar OsgEarthNet.uav[1] utilizationFail 0
scalar OsgEarthNet.uav[1] simulationTime 1209600
scalar OsgEarthNet.uav[2] utilizationSecMission 198476.24447487
scalar OsgEarthNet.uav[2] utilizationSecMaintenance 99301.518860402
scalar OsgEarthNet.uav[2] utilizationSecCharge 909108.71033349
scalar OsgEarthNet.uav[2] utilizationSecIdle 2713.5253312322
scalar OsgEarthNet.uav[2] utilizationEnergyMission 962263.04128265
scalar OsgEarthNet.uav[2] utilizationEnergyMaintenance 464320.35985184
scalar OsgEarthNet.uav[2] utilizationEnergyCharge 1428818.5744629
scalar OsgEarthNet.uav[2] utilizationEnergyOverdrawMission 0
scalar OsgEarthNet.uav[2] utilizationEnergyOverdrawMaintenance 0
scalar OsgEarthNet.uav[2] utilizationCountMissions 327
scalar OsgEarthNet.uav[2] utilizationCountManeuversMission 6318
scalar OsgEarthNet.uav[2] utilizationCountManeuversMaintenance 654
scalar OsgEarthNet.uav[2] utilizationCountChargeState 327
scalar OsgEarthNet.uav[2] utilizationCountOverdrawnAfterMission 0
scalar OsgEarthNet.uav[2] utilizationCountIdleState 2
scalar OsgEarthNet.uav[2] utilizationFail 0
scalar OsgEarthNet.uav[2] simulationTime 1209600
scalar OsgEarthNet.uav[3] utilizationSecMission 201364.24804143
scalar OsgEarthNet.uav[3] utilizationSecMaintenance 95312.358832445
scalar OsgEarthNet.uav[3] utilizationSecCharge 909720
scalar OsgEarthNet.uav[3] utilizationSecIdle 3203.3921261283
scalar OsgEarthNet.uav[3] utilizationEnergyMission 980177.8410703
scalar OsgEarthNet.uav[3] utilizationEnergyMaintenance 443332.6486702
scalar OsgEarthNet.uav[3] utilizationEnergyCharge 1418914.0429688
scalar OsgEarthNet.uav[3] utilizationEnergyOverdrawMission 0
scalar OsgEarthNet.uav[3] utilizationEnergyOverdrawMaintenance 0
scalar OsgEarthNet.uav[3] utilizationCountMissions 327
scalar OsgEarthNet.uav[3] utilizationCountManeuversMission 6452
scalar OsgEarthNet.uav[3] utilizationCountManeuversMaintenance 655
scalar OsgEarthNet.uav[3] utilizationCountChargeState 327
scalar OsgEarthNet.uav[3] utilizationCountOverdrawnAfterMission 0
scalar OsgEarthNet.uav[3] utilizationCountIdleState 1
scalar OsgEarthNet.uav[3] utilizationFail 0
scalar OsgEarthNet.uav[3] simulationTime 1209600
scalar OsgEarthNet.uav[4] utilizationSecMission 191136.8036027
scalar OsgEarthNet.uav[4] utilizationSecMaintenance 110527.85550495
scalar OsgEarthNet.uav[4] utilizationSecCharge 906109.5423647
scalar OsgEarthNet.uav[4] utilizationSecIdle 1825.7975276501
scalar OsgEarthNet.uav[4] utilizationEnergyMission 931595.61819077
scalar OsgEarthNet.uav[4] utilizationEnergyMaintenance 520948.72371674
scalar OsgEarthNet.uav[4] utilizationEnergyCharge 1450551.625
scalar OsgEarthNet.uav[4] utilizationEnergyOverdrawMission 0
scalar OsgEarthNet.uav[4] utilizationEnergyOverdrawMaintenance 0
scalar OsgEarthNet.uav[4] utilizationCountMissions 337
scalar OsgEarthNet.uav[4] utilizationCountManeuversMission 6200
scalar OsgEarthNet.uav[4] utilizationCountManeuversMaintenance 674
scalar OsgEarthNet.uav[4] utilizationCountChargeState 337
scalar OsgEarthNet.uav[4] utilizationCountOverdrawnAfterMission 0
scalar OsgEarthNet.uav[4] utilizationCountIdleState 1
scalar OsgEarthNet.uav[4] utilizationFail 0
scalar OsgEarthNet.uav[4] simulationTime 1209600
scalar OsgEarthNet.uav[5] utilizationSecMission 188318.55271572
scalar OsgEarthNet.uav[5] utilizationSecMaintenance 115476.1547751
scalar OsgEarthNet.uav[5] utilizationSecCharge 904263.28850918
scalar OsgEarthNet.uav[5] utilizationSecIdle 1542.003
scalar OsgEarthNet.uav[5] utilizationEnergyMission 921641.30804443
scalar OsgEarthNet.uav[5] utilizationEnergyMaintenance 546744.54938889
scalar OsgEarthNet.uav[5] utilizationEnergyCharge 1456376.5393066
scalar OsgEarthNet.uav[5] utilizationEnergyOverdrawMission 0
scalar OsgEarthNet.uav[5] utilizationEnergyOverdrawMaintenance 0
scalar OsgEarthNet.uav[5] utilizationCountMissions 340
scalar OsgEarthNet.uav[5] utilizationCountManeuversMission 6167
scalar OsgEarthNet.uav[5] utilizationCountManeuversMaintenance 680
scalar OsgEarthNet.uav[5] utilizationCountChargeState 340
scalar OsgEarthNet.uav[5] utilizationCountOverdrawnAfterMission 0
scalar OsgEarthNet.uav[5] utilizationCountIdleState 1
scalar OsgEarthNet.uav[5] utilizationFail 0
scalar OsgEarthNet.uav[5] simulationTime 1209600
scalar OsgEarthNet.uav[6] utilizationSecMission 195129.31225404
scalar OsgEarthNet.uav[6] utilizationSecMaintenance 101959.15112073
scalar OsgEarthNet.uav[6] utilizationSecCharge 909590.58636956
scalar OsgEarthNet.uav[6] utilizationSecIdle 2920.9492556647
scalar OsgEarthNet.uav[6] utilizationEnergyMission 952085.75244904
scalar OsgEarthNet.uav[6] utilizationEnergyMaintenance 478812.2947197
scalar OsgEarthNet.uav[6] utilizationEnergyCharge 1424078.503418
scalar OsgEarthNet.uav[6] utilizationEnergyOverdrawMission 0
scalar OsgEarthNet.uav[6] utilizationEnergyOverdrawMaintenance 0
scalar OsgEarthNet.uav[6] utilizationCountMissions 333
scalar OsgEarthNet.uav[6] utilizationCountManeuversMission 6226
scalar OsgEarthNet.uav[6] utilizationCountManeuversMaintenance 666
scalar OsgEarthNet.uav[6] utilizationCountChargeState 333
scalar OsgEarthNet.uav[6] utilizationCountOverdrawnAfterMission 0
scalar OsgEarthNet.uav[6] utilizationCountIdleState 1
scalar OsgEarthNet.uav[6] utilizationFail 0
scalar OsgEarthNet.uav[6] simulationTime 1209600
scalar OsgEarthNet.uav[7] utilizationSecMission 201359.30404385
scalar OsgEarthNet.uav[7] utilizationSecMaintenance 96540.632537919
scalar OsgEarthNet.uav[7] utilizationSecCharge 909282.7463364
scalar OsgEarthNet.uav[7] utilizationSecIdle 2417.3160818306
scalar OsgEarthNet.uav[7] utilizationEnergyMission 972058.87016296
scalar OsgEarthNet.uav[7] utilizationEnergyMaintenance 450482.98991013
scalar OsgEarthNet.uav[7] utilizationEnergyCharge 1425136.1152344
scalar OsgEarthNet.uav[7] utilizationEnergyOverdrawMission 0
scalar OsgEarthNet.uav[7] utilizationEnergyOverdrawMaintenance 0
scalar OsgEarthNet.uav[7] utilizationCountMissions 331
scalar OsgEarthNet.uav[7] utilizationCountManeuversMission 6256
scalar OsgEarthNet.uav[7] utilizationCountManeuversMaintenance 662
scalar OsgEarthNet.uav[7] utilizationCountChargeState 331
scalar OsgEarthNet.uav[7] utilizationCountOverdrawnAfterMission 0
scalar OsgEarthNet.uav[7] utilizationCountIdleState 1
scalar OsgEarthNet.uav[7] utilizationFail 0
scalar OsgEarthNet.uav[7] simulationTime 1209600
scalar OsgEarthNet.uav[8] utilizationSecMission 193847.1772281
scalar OsgEarthNet.uav[8] utilizationSecMaintenance 104193.06082748
scalar OsgEarthNet.uav[8] utilizationSecCharge 910670.58583401
scalar OsgEarthNet.uav[8] utilizationSecIdle 889.17511041073
scalar OsgEarthNet.uav[8] utilizationEnergyMission 941963.56518173
scalar OsgEarthNet.uav[8] utilizationEnergyMaintenance 487748.13412857
scalar OsgEarthNet.uav[8] utilizationEnergyCharge 1421125.6547852
scalar OsgEarthNet.uav[8] utilizationEnergyOverdrawMission 0
scalar OsgEarthNet.uav[8] utilizationEnergyOverdrawMaintenance 0
scalar OsgEarthNet.uav[8] utilizationCountMissions 335
scalar OsgEarthNet.uav[8] utilizationCountManeuversMission 5886
scalar OsgEarthNet.uav[8] utilizationCountManeuversMaintenance 670
scalar OsgEarthNet.uav[8] utilizationCountChargeState 335
scalar OsgEarthNet.uav[8] utilizationCountOverdrawnAfterMission 0
scalar OsgEarthNet.uav[8] utilizationCountIdleState 1
scalar OsgEarthNet.uav[8] utilizationFail 0
scalar OsgEarthNet.uav[8] simulationTime 1209600
scalar OsgEarthNet.uav[9] utilizationSecMission 185739.70833412
scalar OsgEarthNet.uav[9] utilizationSecMaintenance 111068.28666587
scalar OsgEarthNet.uav[9] utilizationSecCharge 911000
scalar OsgEarthNet.uav[9] utilizationSecIdle 1792.004
scalar OsgEarthNet.uav[9] utilizationEnergyMission 905374.55023785
scalar OsgEarthNet.uav[9] utilizationEnergyMaintenance 524099.27797699
scalar OsgEarthNet.uav[9] utilizationEnergyCharge 1426408.6079102
scalar OsgEarthNet.uav[9] utilizationEnergyOverdrawMission 0
scalar OsgEarthNet.uav[9] utilizationEnergyOverdrawMaintenance 0
scalar OsgEarthNet.uav[9] utilizationCountMissions 338
scalar OsgEarthNet.uav[9] utilizationCountManeuversMission 6173
scalar OsgEarthNet.uav[9] utilizationCountManeuversMaintenance 677
scalar OsgEarthNet.uav[9] utilizationCountChargeState 338
scalar OsgEarthNet.uav[9] utilizationCountOverdrawnAfterMission 0
scalar OsgEarthNet.uav[9] utilizationCountIdleState 2
scalar OsgEarthNet.uav[9] utilizationFail 0
scalar OsgEarthNet.uav[9] simulationTime 1209600
scalar OsgEarthNet.uav[10] utilizationSecMission 196963.25300346
scalar OsgEarthNet.uav[10] utilizationSecMaintenance 100925.02412215
scalar OsgEarthNet.uav[10] utilizationSecCharge 908977.76382753
scalar OsgEarthNet.uav[10] utilizationSecIdle 2733.958046861
scalar OsgEarthNet.uav[10] utilizationEnergyMission 961370.14290237
scalar OsgEarthNet.uav[10] utilizationEnergyMaintenance 472471.01156998
scalar OsgEarthNet.uav[10] utilizationEnergyCharge 1427086.3932495
scalar OsgEarthNet.uav[10] utilizationEnergyOverdrawMission 0
scalar OsgEarthNet.uav[10] utilizationEnergyOverdrawMaintenance 0
scalar OsgEarthNet.uav[10] utilizationCountMissions 330
scalar OsgEarthNet.uav[10] utilizationCountManeuversMission 6339
scalar OsgEarthNet.uav[10] utilizationCountManeuversMaintenance 660
scalar OsgEarthNet.uav[10] utilizationCountChargeState 330
scalar OsgEarthNet.uav[10] utilizationCountOverdrawnAfterMission 0
scalar OsgEarthNet.uav[10] utilizationCountIdleState 2
scalar OsgEarthNet.uav[10] utilizationFail 0
scalar OsgEarthNet.uav[10] simulationTime 1209600
scalar OsgEarthNet.uav[11] utilizationSecMission 197387.77641141
scalar OsgEarthNet.uav[11] utilizationSecMaintenance 101848.16050079
scalar OsgEarthNet.uav[11] utilizationSecCharge 908555.70848492
scalar OsgEarthNet.uav[11] utilizationSecIdle 1808.3536028792
scalar OsgEarthNet.uav[11] utilizationEnergyMission 957254.75502014
scalar OsgEarthNet.uav[11] utilizationEnergyMaintenance 480125.13158035
scalar OsgEarthNet.uav[11] utilizationEnergyCharge 1426291.7854614
scalar OsgEarthNet.uav[11] utilizationEnergyOverdrawMission 0
scalar OsgEarthNet.uav[11] utilizationEnergyOverdrawMaintenance 0
scalar OsgEarthNet.uav[11] utilizationCountMissions 331
scalar OsgEarthNet.uav[11] utilizationCountManeuversMission 6008
scalar OsgEarthNet.uav[11] utilizationCountManeuversMaintenance 662
scalar OsgEarthNet.uav[11] utilizationCountChargeState 331
scalar OsgEarthNet.uav[11] utilizationCountOverdrawnAfterMission 0
scalar OsgEarthNet.uav[11] utilizationCountIdleState 1
scalar OsgEarthNet.uav[11] utilizationFail 0
scalar OsgEarthNet.uav[11] simulationTime 1209600
scalar OsgEarthNet.uav[12] utilizationSecMission 191929.84536795
scalar OsgEarthNet.uav[12] utilizationSecMaintenance 102990.0216468
scalar OsgEarthNet.uav[12] utilizationSecCharge 914588.13198525
scalar OsgEarthNet.uav[12] utilizationSecIdle 92
scalar OsgEarthNet.uav[12] utilizationEnergyMission 931996.45287911
scalar OsgEarthNet.uav[12] utilizationEnergyMaintenance 485914.63807297
scalar OsgEarthNet.uav[12] utilizationEnergyCharge 1415459.3195801
scalar OsgEarthNet.uav[12] utilizationEnergyOverdrawMission 0
scalar OsgEarthNet.uav[12] utilizationEnergyOverdrawMaintenance 0
scalar OsgEarthNet.uav[12] utilizationCountMissions 336
scalar OsgEarthNet.uav[12] utilizationCountManeuversMission 5952
scalar OsgEarthNet.uav[12] utilizationCountManeuversMaintenance 671
scalar OsgEarthNet.uav[12] utilizationCountChargeState 336
scalar OsgEarthNet.uav[12] utilizationCountOverdrawnAfterMission 0
scalar OsgEarthNet.uav[12] utilizationCountIdleState 2
scalar OsgEarthNet.uav[12] utilizationFail 0
scalar OsgEarthNet.uav[12] simulationTime 1209600
scalar OsgEarthNet.uav[13] utilizationSecMission 196987.64850739
scalar OsgEarthNet.uav[13] utilizationSecMaintenance 102762.20022383
scalar OsgEarthNet.uav[13] utilizationSecCharge 908528.14726878
scalar OsgEarthNet.uav[13] utilizationSecIdle 1322.003
scalar OsgEarthNet.uav[13] utilizationEnergyMission 962267.35033798
scalar OsgEarthNet.uav[13] utilizationEnergyMaintenance 481776.61300278
scalar OsgEarthNet.uav[13] utilizationEnergyCharge 1437955.9404907
scalar OsgEarthNet.uav[13] utilizationEnergyOverdrawMission 0
scalar OsgEarthNet.uav[13] utilizationEnergyOverdrawMaintenance 0
scalar OsgEarthNet.uav[13] utilizationCountMissions 331
scalar OsgEarthNet.uav[13] utilizationCountManeuversMission 6355
scalar OsgEarthNet.uav[13] utilizationCountManeuversMaintenance 662
scalar OsgEarthNet.uav[13] utilizationCountChargeState 331
scalar OsgEarthNet.uav[13] utilizationCountOverdrawnAfterMission 0
scalar OsgEarthNet.uav[13] utilizationCountIdleState 1
scalar OsgEarthNet.uav[13] utilizationFail 0
scalar OsgEarthNet.uav[13] simulationTime 1209600
scalar OsgEarthNet.uav[14] utilizationSecMission 200318.94938092
scalar OsgEarthNet.uav[14] utilizationSecMaintenance 98392.781152377
scalar OsgEarthNet.uav[14] utilizationSecCharge 910386.2674667
scalar OsgEarthNet.uav[14] utilizationSecIdle 502.001
scalar OsgEarthNet.uav[14] utilizationEnergyMission 986881.85426331
scalar OsgEarthNet.uav[14] utilizationEnergyMaintenance 456929.76262283
scalar OsgEarthNet.uav[14] utilizationEnergyCharge 1445627.760498
scalar OsgEarthNet.uav[14] utilizationEnergyOverdrawMission 0
scalar OsgEarthNet.uav[14] utilizationEnergyOverdrawMaintenance 0
scalar OsgEarthNet.uav[14] utilizationCountMissions 329
scalar OsgEarthNet.uav[14] utilizationCountManeuversMission 7091
scalar OsgEarthNet.uav[14] utilizationCountManeuversMaintenance 658
scalar OsgEarthNet.uav[14] utilizationCountChargeState 329
scalar OsgEarthNet.uav[14] utilizationCountOverdrawnAfterMission 0
scalar OsgEarthNet.uav[14] utilizationCountIdleState 1
scalar OsgEarthNet.uav[14] utilizationFail 0
scalar OsgEarthNet.uav[14] simulationTime 1209600
scalar OsgEarthNet.uav[15] utilizationSecMission 199105.18592718
scalar OsgEarthNet.uav[15] utilizationSecMaintenance 101087.76938645
scalar OsgEarthNet.uav[15] utilizationSecCharge 908355.04168637
scalar OsgEarthNet.uav[15] utilizationSecIdle 1052.002
scalar OsgEarthNet.uav[15] utilizationEnergyMission 972804.9827919
scalar OsgEarthNet.uav[15] utilizationEnergyMaintenance 470195.21953201
scalar OsgEarthNet.uav[15] utilizationEnergyCharge 1434470.7819824
scalar OsgEarthNet.uav[15] utilizationEnergyOverdrawMission 0
scalar OsgEarthNet.uav[15] utilizationEnergyOverdrawMaintenance 0
scalar OsgEarthNet.uav[15] utilizationCountMissions 330
scalar OsgEarthNet.uav[15] utilizationCountManeuversMission 6566
scalar OsgEarthNet.uav[15] utilizationCountManeuversMaintenance 660
scalar OsgEarthNet.uav[15] utilizationCountChargeState 330
scalar OsgEarthNet.uav[15] utilizationCountOverdrawnAfterMission 0
scalar OsgEarthNet.uav[15] utilizationCountIdleState 2
scalar OsgEarthNet.uav[15] utilizationFail 0
scalar OsgEarthNet.uav[15] simulationTime 1209600
scalar OsgEarthNet.uav[16] utilizationSecMission 204263.29071618
scalar OsgEarthNet.uav[16] utilizationSecMaintenance 96981.993617501
scalar OsgEarthNet.uav[16] utilizationSecCharge 907912.71366632
scalar OsgEarthNet.uav[16] utilizationSecIdle 442.001
scalar OsgEarthNet.uav[16] utilizationEnergyMission 994756.95999146
scalar OsgEarthNet.uav[16] utilizationEnergyMaintenance 454486.11843491
scalar OsgEarthNet.uav[16] utilizationEnergyCharge 1442331.579834
scalar OsgEarthNet.uav[16] utilizationEnergyOverdrawMission 0
scalar OsgEarthNet.uav[16] utilizationEnergyOverdrawMaintenance 0
scalar OsgEarthNet.uav[16] utilizationCountMissions 328
scalar OsgEarthNet.uav[16] utilizationCountManeuversMission 6448
scalar OsgEarthNet.uav[16] utilizationCountManeuversMaintenance 656
scalar OsgEarthNet.uav[16] utilizationCountChargeState 328
scalar OsgEarthNet.uav[16] utilizationCountOverdrawnAfterMission 0
scalar OsgEarthNet.uav[16] utilizationCountIdleState 1
scalar OsgEarthNet.uav[16] utilizationFail 0
scalar OsgEarthNet.uav[16] simulationTime 1209600
scalar OsgEarthNet.uav[17] utilizationSecMission 188592.6927057
scalar OsgEarthNet.uav[17] utilizationSecMaintenance 105818.77963223
scalar OsgEarthNet.uav[17] utilizationSecCharge 914610
scalar OsgEarthNet.uav[17] utilizationSecIdle 578.52666207716
scalar OsgEarthNet.uav[17] utilizationEnergyMission 912649.9849234
scalar OsgEarthNet.uav[17] utilizationEnergyMaintenance 498077.64912415
scalar OsgEarthNet.uav[17] utilizationEnergyCharge 1407848.8164062
scalar OsgEarthNet.uav[17] utilizationEnergyOverdrawMission 0
scalar OsgEarthNet.uav[17] utilizationEnergyOverdrawMaintenance 0
scalar OsgEarthNet.uav[17] utilizationCountMissions 338
scalar OsgEarthNet.uav[17] utilizationCountManeuversMission 5705
scalar OsgEarthNet.uav[17] utilizationCountManeuversMaintenance 677
scalar OsgEarthNet.uav[17] utilizationCountChargeState 338
scalar OsgEarthNet.uav[17] utilizationCountOverdrawnAfterMission 0
scalar OsgEarthNet.uav[17] utilizationCountIdleState 3
scalar OsgEarthNet.uav[17] utilizationFail 0
scalar OsgEarthNet.uav[17] simulationTime 1209600
scalar OsgEarthNet.uav[18] utilizationSecMission 192663.72487128
scalar OsgEarthNet.uav[18] utilizationSecMaintenance 109404.42240951
scalar OsgEarthNet.uav[18] utilizationSecCharge 907489.85171921
scalar OsgEarthNet.uav[18] utilizationSecIdle 42
scalar OsgEarthNet.uav[18] utilizationEnergyMission 936719.12902069
scalar OsgEarthNet.uav[18] utilizationEnergyMaintenance 513427.29747391
scalar OsgEarthNet.uav[18] utilizationEnergyCharge 1445680.4476318
scalar OsgEarthNet.uav[18] utilizationEnergyOverdrawMission 0
scalar OsgEarthNet.uav[18] utilizationEnergyOverdrawMaintenance 0
scalar OsgEarthNet.uav[18] utilizationCountMissions 337
scalar OsgEarthNet.uav[18] utilizationCountManeuversMission 6172
scalar OsgEarthNet.uav[18] utilizationCountManeuversMaintenance 674
scalar OsgEarthNet.uav[18] utilizationCountChargeState 337
scalar OsgEarthNet.uav[18] utilizationCountOverdrawnAfterMission 0
scalar OsgEarthNet.uav[18] utilizationCountIdleState 2
scalar OsgEarthNet.uav[18] utilizationFail 0
scalar OsgEarthNet.uav[18] simulationTime 1209600
scalar OsgEarthNet.uav[19] utilizationSecMission 188981.61747402
scalar OsgEarthNet.uav[19] utilizationSecMaintenance 111322.17114746
scalar OsgEarthNet.uav[19] utilizationSecCharge 907634.07055678
scalar OsgEarthNet.uav[19] utilizationSecIdle 1662.139821739
scalar OsgEarthNet.uav[19] utilizationEnergyMission 917250.76117325
scalar OsgEarthNet.uav[19] utilizationEnergyMaintenance 524453.59018707
scalar OsgEarthNet.uav[19] utilizationEnergyCharge 1431086.6008301
scalar OsgEarthNet.uav[19] utilizationEnergyOverdrawMission 0
scalar OsgEarthNet.uav[19] utilizationEnergyOverdrawMaintenance 0
scalar OsgEarthNet.uav[19] utilizationCountMissions 341
scalar OsgEarthNet.uav[19] utilizationCountManeuversMission 5887
scalar OsgEarthNet.uav[19] utilizationCountManeuversMaintenance 682
scalar OsgEarthNet.uav[19] utilizationCountChargeState 341
scalar OsgEarthNet.uav[19] utilizationCountOverdrawnAfterMission 0
scalar OsgEarthNet.uav[19] utilizationCountIdleState 1
scalar OsgEarthNet.uav[19] utilizationFail 0
scalar OsgEarthNet.uav[19] simulationTime 1209600
scalar OsgEarthNet.uav[20] utilizationSecMission 188649.17065492
scalar OsgEarthNet.uav[20] utilizationSecMaintenance 112664.82375475
scalar OsgEarthNet.uav[20] utilizationSecCharge 905603.99859033
scalar OsgEarthNet.uav[20] utilizationSecIdle 2682.006
scalar OsgEarthNet.uav[20] utilizationEnergyMission 921747.69740295
scalar OsgEarthNet.uav[20] utilizationEnergyMaintenance 532223.39213562
scalar OsgEarthNet.uav[20] utilizationEnergyCharge 1444937.710083
scalar OsgEarthNet.uav[20] utilizationEnergyOverdrawMission 0
scalar OsgEarthNet.uav[20] utilizationEnergyOverdrawMaintenance 0
scalar OsgEarthNet.uav[20] utilizationCountMissions 339
scalar OsgEarthNet.uav[20] utilizationCountManeuversMission 6068
scalar OsgEarthNet.uav[20] utilizationCountManeuversMaintenance 678
scalar OsgEarthNet.uav[20] utilizationCountChargeState 339
scalar OsgEarthNet.uav[20] utilizationCountOverdrawnAfterMission 0
scalar OsgEarthNet.uav[20] utilizationCountIdleState 1
scalar OsgEarthNet.uav[20] utilizationFail 0
scalar OsgEarthNet.uav[20] simulationTime 1209600
scalar OsgEarthNet.uav[21] utilizationSecMission 195976.5296987
scalar OsgEarthNet.uav[21] utilizationSecMaintenance 99786.345446794
scalar OsgEarthNet.uav[21] utilizationSecCharge 911715.11985451
scalar OsgEarthNet.uav[21] utilizationSecIdle 2122.004
scalar OsgEarthNet.uav[21] utilizationEnergyMission 942648.72265625
scalar OsgEarthNet.uav[21] utilizationEnergyMaintenance 466119.17093277
scalar OsgEarthNet.uav[21] utilizationEnergyCharge 1412104.3652344
scalar OsgEarthNet.uav[21] utilizationEnergyOverdrawMission 0
scalar OsgEarthNet.uav[21] utilizationEnergyOverdrawMaintenance 0
scalar OsgEarthNet.uav[21] utilizationCountMissions 331
scalar OsgEarthNet.uav[21] utilizationCountManeuversMission 5955
scalar OsgEarthNet.uav[21] utilizationCountManeuversMaintenance 662
scalar OsgEarthNet.uav[21] utilizationCountChargeState 331
scalar OsgEarthNet.uav[21] utilizationCountOverdrawnAfterMission 0
scalar OsgEarthNet.uav[21] utilizationCountIdleState 1
scalar OsgEarthNet.uav[21] utilizationFail 0
scalar OsgEarthNet.uav[21] simulationTime 1209600
scalar OsgEarthNet.uav[22] utilizationSecMission 195579.98576797
scalar OsgEarthNet.uav[22] utilizationSecMaintenance 105107.68228631
scalar OsgEarthNet.uav[22] utilizationSecCharge 908223.1113318
scalar OsgEarthNet.uav[22] utilizationSecIdle 689.21961391566
scalar OsgEarthNet.uav[22] utilizationEnergyMission 955305.11750412
scalar OsgEarthNet.uav[22] utilizationEnergyMaintenance 492277.230793
scalar OsgEarthNet.uav[22] utilizationEnergyCharge 1442630.3068848
scalar OsgEarthNet.uav[22] utilizationEnergyOverdrawMission 0
scalar OsgEarthNet.uav[22] utilizationEnergyOverdrawMaintenance 0
scalar OsgEarthNet.uav[22] utilizationCountMissions 334
scalar OsgEarthNet.uav[22] utilizationCountManeuversMission 6288
scalar OsgEarthNet.uav[22] utilizationCountManeuversMaintenance 668
scalar OsgEarthNet.uav[22] utilizationCountChargeState 334
scalar OsgEarthNet.uav[22] utilizationCountOverdrawnAfterMission 0
scalar OsgEarthNet.uav[22] utilizationCountIdleState 1
scalar OsgEarthNet.uav[22] utilizationFail 0
scalar OsgEarthNet.uav[22] simulationTime 1209600
scalar OsgEarthNet.uav[23] utilizationSecMission 183505.28911307
scalar OsgEarthNet.uav[23] utilizationSecMaintenance 114451.92556022
scalar OsgEarthNet.uav[23] utilizationSecCharge 908560.99831667
scalar OsgEarthNet.uav[23] utilizationSecIdle 3081.7860100454
scalar OsgEarthNet.uav[23] utilizationEnergyMission 893003.73976135
scalar OsgEarthNet.uav[23] utilizationEnergyMaintenance 541580.87312317
scalar OsgEarthNet.uav[23] utilizationEnergyCharge 1435893.1098633
scalar OsgEarthNet.uav[23] utilizationEnergyOverdrawMission 0
scalar OsgEarthNet.uav[23] utilizationEnergyOverdrawMaintenance 0
scalar OsgEarthNet.uav[23] utilizationCountMissions 342
scalar OsgEarthNet.uav[23] utilizationCountManeuversMission 5962
scalar OsgEarthNet.uav[23] utilizationCountManeuversMaintenance 684
scalar OsgEarthNet.uav[23] utilizationCountChargeState 342
scalar OsgEarthNet.uav[23] utilizationCountOverdrawnAfterMission 0
scalar OsgEarthNet.uav[23] utilizationCountIdleState 3
scalar OsgEarthNet.uav[23] utilizationFail 0
scalar OsgEarthNet.uav[23] simulationTime 1209600
scalar OsgEarthNet.uav[24] utilizationSecMission 195652.37617591
scalar OsgEarthNet.uav[24] utilizationSecMaintenance 102305.61423841
scalar OsgEarthNet.uav[24] utilizationSecCharge 910141.04460001
scalar OsgEarthNet.uav[24] utilizationSecIdle 1500.9639856735
scalar OsgEarthNet.uav[24] utilizationEnergyMission 946010.29791641
scalar OsgEarthNet.uav[24] utilizationEnergyMaintenance 479643.37971115
scalar OsgEarthNet.uav[24] utilizationEnergyCharge 1420608.4165039
scalar OsgEarthNet.uav[24] utilizationEnergyOverdrawMission 0
scalar OsgEarthNet.uav[24] utilizationEnergyOverdrawMaintenance 0
scalar OsgEarthNet.uav[24] utilizationCountMissions 334
scalar OsgEarthNet.uav[24] utilizationCountManeuversMission 5956
scalar OsgEarthNet.uav[24] utilizationCountManeuversMaintenance 668
scalar OsgEarthNet.uav[24] utilizationCountChargeState 334
scalar OsgEarthNet.uav[24] utilizationCountOverdrawnAfterMission 0
scalar OsgEarthNet.uav[24] utilizationCountIdleState 1
scalar OsgEarthNet.uav[24] utilizationFail 0
scalar OsgEarthNet.uav[24] simulationTime 1209600
scalar OsgEarthNet.uav[25] utilizationSecMission 204097.83898985
scalar OsgEarthNet.uav[25] utilizationSecMaintenance 97181.035923616
scalar OsgEarthNet.uav[25] utilizationSecCharge 908319.12408653
scalar OsgEarthNet.uav[25] utilizationSecIdle 2
scalar OsgEarthNet.uav[25] utilizationEnergyMission 995097.0605278
scalar OsgEarthNet.uav[25] utilizationEnergyMaintenance 450850.42938995
scalar OsgEarthNet.uav[25] utilizationEnergyCharge 1444594.685791
scalar OsgEarthNet.uav[25] utilizationEnergyOverdrawMission 0
scalar OsgEarthNet.uav[25] utilizationEnergyOverdrawMaintenance 0
scalar OsgEarthNet.uav[25] utilizationCountMissions 329
scalar OsgEarthNet.uav[25] utilizationCountManeuversMission 6844
scalar OsgEarthNet.uav[25] utilizationCountManeuversMaintenance 657
scalar OsgEarthNet.uav[25] utilizationCountChargeState 329
scalar OsgEarthNet.uav[25] utilizationCountOverdrawnAfterMission 0
scalar OsgEarthNet.uav[25] utilizationCountIdleState 1
scalar OsgEarthNet.uav[25] utilizationFail 0
scalar OsgEarthNet.uav[25] simulationTime 1209600
scalar OsgEarthNet.uav[26] utilizationSecMission 194270.46203981
scalar OsgEarthNet.uav[26] utilizationSecMaintenance 102211.32657169
scalar OsgEarthNet.uav[26] utilizationSecCharge 912206.2083885
scalar OsgEarthNet.uav[26] utilizationSecIdle 912.002
scalar OsgEarthNet.uav[26] utilizationEnergyMission 942885.36430359
scalar OsgEarthNet.uav[26] utilizationEnergyMaintenance 479439.41733551
scalar OsgEarthNet.uav[26] utilizationEnergyCharge 1419808.5004883
scalar OsgEarthNet.uav[26] utilizationEnergyOverdrawMission 0
scalar OsgEarthNet.uav[26] utilizationEnergyOverdrawMaintenance 0
scalar OsgEarthNet.uav[26] utilizationCountMissions 334
scalar OsgEarthNet.uav[26] utilizationCountManeuversMission 6188
scalar OsgEarthNet.uav[26] utilizationCountManeuversMaintenance 668
scalar OsgEarthNet.uav[26] utilizationCountChargeState 334
scalar OsgEarthNet.uav[26] utilizationCountOverdrawnAfterMission 0
scalar OsgEarthNet.uav[26] utilizationCountIdleState 3
scalar OsgEarthNet.uav[26] utilizationFail 0
scalar OsgEarthNet.uav[26] simulationTime 1209600
scalar OsgEarthNet.uav[27] utilizationSecMission 194337.57219372
scalar OsgEarthNet.uav[27] utilizationSecMaintenance 102677.81491676
scalar OsgEarthNet.uav[27] utilizationSecCharge 912000
scalar OsgEarthNet.uav[27] utilizationSecIdle 584.61188951643
scalar OsgEarthNet.uav[27] utilizationEnergyMission 937431.53412247
scalar OsgEarthNet.uav[27] utilizationEnergyMaintenance 482379.88575532
scalar OsgEarthNet.uav[27] utilizationEnergyCharge 1419654.619873
scalar OsgEarthNet.uav[27] utilizationEnergyOverdrawMission 0
scalar OsgEarthNet.uav[27] utilizationEnergyOverdrawMaintenance 0
scalar OsgEarthNet.uav[27] utilizationCountMissions 336
scalar OsgEarthNet.uav[27] utilizationCountManeuversMission 5921
scalar OsgEarthNet.uav[27] utilizationCountManeuversMaintenance 672
scalar OsgEarthNet.uav[27] utilizationCountChargeState 335
scalar OsgEarthNet.uav[27] utilizationCountOverdrawnAfterMission 0
scalar OsgEarthNet.uav[27] utilizationCountIdleState 1
scalar OsgEarthNet.uav[27] utilizationFail 0
scalar OsgEarthNet.uav[27] simulationTime 1209600
scalar OsgEarthNet.uav[28] utilizationSecMission 197551.89653626
scalar OsgEarthNet.uav[28] utilizationSecMaintenance 100354.70560115
scalar OsgEarthNet.uav[28] utilizationSecCharge 909443.76578193
scalar OsgEarthNet.uav[28] utilizationSecIdle 2249.6310806652
scalar OsgEarthNet.uav[28] utilizationEnergyMission 958643.67202377
scalar OsgEarthNet.uav[28] utilizationEnergyMaintenance 467910.96405411
scalar OsgEarthNet.uav[28] utilizationEnergyCharge 1425536.2519531
scalar OsgEarthNet.uav[28] utilizationEnergyOverdrawMission 0
scalar OsgEarthNet.uav[28] utilizationEnergyOverdrawMaintenance 0
scalar OsgEarthNet.uav[28] utilizationCountMissions 329
scalar OsgEarthNet.uav[28] utilizationCountManeuversMission 6281
scalar OsgEarthNet.uav[28] utilizationCountManeuversMaintenance 658
scalar OsgEarthNet.uav[28] utilizationCountChargeState 329
scalar OsgEarthNet.uav[28] utilizationCountOverdrawnAfterMission 0
scalar OsgEarthNet.uav[28] utilizationCountIdleState 2
scalar OsgEarthNet.uav[28] utilizationFail 0
scalar OsgEarthNet.uav[28] simulationTime 1209600
scalar OsgEarthNet.uav[29] utilizationSecMission 192382.19191941
scalar OsgEarthNet.uav[29] utilizationSecMaintenance 106762.18991274
scalar OsgEarthNet.uav[29] utilizationSecCharge 908213.61216785
scalar OsgEarthNet.uav[29] utilizationSecIdle 2242.005
scalar OsgEarthNet.uav[29] utilizationEnergyMission 937132.00824356
scalar OsgEarthNet.uav[29] utilizationEnergyMaintenance 500316.11293411
scalar OsgEarthNet.uav[29] utilizationEnergyCharge 1431755.2025146
scalar OsgEarthNet.uav[29] utilizationEnergyOverdrawMission 0
scalar OsgEarthNet.uav[29] utilizationEnergyOverdrawMaintenance 0
scalar OsgEarthNet.uav[29] utilizationCountMissions 338
scalar OsgEarthNet.uav[29] utilizationCountManeuversMission 6160
scalar OsgEarthNet.uav[29] utilizationCountManeuversMaintenance 676
scalar OsgEarthNet.uav[29] utilizationCountChargeState 338
scalar OsgEarthNet.uav[29] utilizationCountOverdrawnAfterMission 0
scalar OsgEarthNet.uav[29] utilizationCountIdleState 2
scalar OsgEarthNet.uav[29] utilizationFail 0
scalar OsgEarthNet.uav[29] simulationTime 1209600
scalar OsgEarthNet.uav[30] utilizationSecMission 191593.82663085
scalar OsgEarthNet.uav[30] utilizationSecMaintenance 103715.0889205
scalar OsgEarthNet.uav[30] utilizationSecCharge 911562.50379178
scalar OsgEarthNet.uav[30] utilizationSecIdle 2728.5796568717
scalar OsgEarthNet.uav[30] utilizationEnergyMission 921217.0527153
scalar OsgEarthNet.uav[30] utilizationEnergyMaintenance 491203.07060242
scalar OsgEarthNet.uav[30] utilizationEnergyCharge 1407749.3884277
scalar OsgEarthNet.uav[30] utilizationEnergyOverdrawMission 0
scalar OsgEarthNet.uav[30] utilizationEnergyOverdrawMaintenance 0
scalar OsgEarthNet.uav[30] utilizationCountMissions 336
scalar OsgEarthNet.uav[30] utilizationCountManeuversMission 5487
scalar OsgEarthNet.uav[30] utilizationCountManeuversMaintenance 672
scalar OsgEarthNet.uav[30] utilizationCountChargeState 336
scalar OsgEarthNet.uav[30] utilizationCountOverdrawnAfterMission 0
scalar OsgEarthNet.uav[30] utilizationCountIdleState 2
scalar OsgEarthNet.uav[30] utilizationFail 0
scalar OsgEarthNet.uav[30] simulationTime 1209600
scalar OsgEarthNet.uav[31] utilizationSecMission 187195.17415204
scalar OsgEarthNet.uav[31] utilizationSecMaintenance 106785.90422855
scalar OsgEarthNet.uav[31] utilizationSecCharge 914596.91861941
scalar OsgEarthNet.uav[31] utilizationSecIdle 1022.002
scalar OsgEarthNet.uav[31] utilizationEnergyMission 899576.23968124
scalar OsgEarthNet.uav[31] utilizationEnergyMaintenance 503868.53858185
scalar OsgEarthNet.uav[31] utilizationEnergyCharge 1405729.5439453
scalar OsgEarthNet.uav[31] utilizationEnergyOverdrawMission 0
scalar OsgEarthNet.uav[31] utilizationEnergyOverdrawMaintenance 0
scalar OsgEarthNet.uav[31] utilizationCountMissions 338
scalar OsgEarthNet.uav[31] utilizationCountManeuversMission 5660
scalar OsgEarthNet.uav[31] utilizationCountManeuversMaintenance 676
scalar OsgEarthNet.uav[31] utilizationCountChargeState 338
scalar OsgEarthNet.uav[31] utilizationCountOverdrawnAfterMission 0
scalar OsgEarthNet.uav[31] utilizationCountIdleState 1
scalar OsgEarthNet.uav[31] utilizationFail 0
scalar OsgEarthNet.uav[31] simulationTime 1209600
scalar OsgEarthNet.uav[32] utilizationSecMission 189640.29545979
scalar OsgEarthNet.uav[32] utilizationSecMaintenance 109997.04859563
scalar OsgEarthNet.uav[32] utilizationSecCharge 909360.65394458
scalar OsgEarthNet.uav[32] utilizationSecIdle 602.001
scalar OsgEarthNet.uav[32] utilizationEnergyMission 918537.69829941
scalar OsgEarthNet.uav[32] utilizationEnergyMaintenance 518718.28078842
scalar OsgEarthNet.uav[32] utilizationEnergyCharge 1431752.2341309
scalar OsgEarthNet.uav[32] utilizationEnergyOverdrawMission 0
scalar OsgEarthNet.uav[32] utilizationEnergyOverdrawMaintenance 0
scalar OsgEarthNet.uav[32] utilizationCountMissions 341
scalar OsgEarthNet.uav[32] utilizationCountManeuversMission 5818
scalar OsgEarthNet.uav[32] utilizationCountManeuversMaintenance 682
scalar OsgEarthNet.uav[32] utilizationCountChargeState 341
scalar OsgEarthNet.uav[32] utilizationCountOverdrawnAfterMission 0
scalar OsgEarthNet.uav[32] utilizationCountIdleState 1
scalar OsgEarthNet.uav[32] utilizationFail 0
scalar OsgEarthNet.uav[32] simulationTime 1209600
scalar OsgEarthNet.uav[33] utilizationSecMission 197245.59182023
scalar OsgEarthNet.uav[33] utilizationSecMaintenance 99391.641205841
scalar OsgEarthNet.uav[33] utilizationSecCharge 910450
scalar OsgEarthNet.uav[33] utilizationSecIdle 2512.7659739336
scalar OsgEarthNet.uav[33] utilizationEnergyMission 956146.62611484
scalar OsgEarthNet.uav[33] utilizationEnergyMaintenance 466502.50014114
scalar OsgEarthNet.uav[33] utilizationEnergyCharge 1423229.6186523
scalar OsgEarthNet.uav[33] utilizationEnergyOverdrawMission 0
scalar OsgEarthNet.uav[33] utilizationEnergyOverdrawMaintenance 0
scalar OsgEarthNet.uav[33] utilizationCountMissions 330
scalar OsgEarthNet.uav[33] utilizationCountManeuversMission 6191
scalar OsgEarthNet.uav[33] utilizationCountManeuversMaintenance 661
scalar OsgEarthNet.uav[33] utilizationCountChargeState 330
scalar OsgEarthNet.uav[33] utilizationCountOverdrawnAfterMission 0
scalar OsgEarthNet.uav[33] utilizationCountIdleState 4
scalar OsgEarthNet.uav[33] utilizationFail 0
scalar OsgEarthNet.uav[33] simulationTime 1209600
scalar OsgEarthNet.uav[34] utilizationSecMission 185716.15619571
scalar OsgEarthNet.uav[34] utilizationSecMaintenance 111619.55102087
scalar OsgEarthNet.uav[34] utilizationSecCharge 909724.49156222
scalar OsgEarthNet.uav[34] utilizationSecIdle 2539.8002212009
scalar OsgEarthNet.uav[34] utilizationEnergyMission 892396.23178482
scalar OsgEarthNet.uav[34] utilizationEnergyMaintenance 530388.17505646
scalar OsgEarthNet.uav[34] utilizationEnergyCharge 1424253.8376465
scalar OsgEarthNet.uav[34] utilizationEnergyOverdrawMission 0
scalar OsgEarthNet.uav[34] utilizationEnergyOverdrawMaintenance 0
scalar OsgEarthNet.uav[34] utilizationCountMissions 341
scalar OsgEarthNet.uav[34] utilizationCountManeuversMission 5439
scalar OsgEarthNet.uav[34] utilizationCountManeuversMaintenance 682
scalar OsgEarthNet.uav[34] utilizationCountChargeState 341
scalar OsgEarthNet.uav[34] utilizationCountOverdrawnAfterMission 0
scalar OsgEarthNet.uav[34] utilizationCountIdleState 2
scalar OsgEarthNet.uav[34] utilizationFail 0
scalar OsgEarthNet.uav[34] simulationTime 1209600
scalar OsgEarthNet.uav[35] utilizationSecMission 197845.79322514
scalar OsgEarthNet.uav[35] utilizationSecMaintenance 100217.50221305
scalar OsgEarthNet.uav[35] utilizationSecCharge 910047.27821452
scalar OsgEarthNet.uav[35] utilizationSecIdle 1489.4253472904
scalar OsgEarthNet.uav[35] utilizationEnergyMission 957876.15576172
scalar OsgEarthNet.uav[35] utilizationEnergyMaintenance 470378.17539978
scalar OsgEarthNet.uav[35] utilizationEnergyCharge 1427878.7390137
scalar OsgEarthNet.uav[35] utilizationEnergyOverdrawMission 0
scalar OsgEarthNet.uav[35] utilizationEnergyOverdrawMaintenance 0
scalar OsgEarthNet.uav[35] utilizationCountMissions 332
scalar OsgEarthNet.uav[35] utilizationCountManeuversMission 5915
scalar OsgEarthNet.uav[35] utilizationCountManeuversMaintenance 664
scalar OsgEarthNet.uav[35] utilizationCountChargeState 332
scalar OsgEarthNet.uav[35] utilizationCountOverdrawnAfterMission 0
scalar OsgEarthNet.uav[35] utilizationCountIdleState 2
scalar OsgEarthNet.uav[35] utilizationFail 0
scalar OsgEarthNet.uav[35] simulationTime 1209600
scalar OsgEarthNet.uav[36] utilizationSecMission 191365.7405838
scalar OsgEarthNet.uav[36] utilizationSecMaintenance 107190.24013787
scalar OsgEarthNet.uav[36] utilizationSecCharge 907070
scalar OsgEarthNet.uav[36] utilizationSecIdle 3974.0182783229
scalar OsgEarthNet.uav[36] utilizationEnergyMission 927450.40108871
scalar OsgEarthNet.uav[36] utilizationEnergyMaintenance 504110.90257465
scalar OsgEarthNet.uav[36] utilizationEnergyCharge 1421035.2924805
scalar OsgEarthNet.uav[36] utilizationEnergyOverdrawMission 0
scalar OsgEarthNet.uav[36] utilizationEnergyOverdrawMaintenance 0
scalar OsgEarthNet.uav[36] utilizationCountMissions 337
scalar OsgEarthNet.uav[36] utilizationCountManeuversMission 5931
scalar OsgEarthNet.uav[36] utilizationCountManeuversMaintenance 674
scalar OsgEarthNet.uav[36] utilizationCountChargeState 336
scalar OsgEarthNet.uav[36] utilizationCountOverdrawnAfterMission 0
scalar OsgEarthNet.uav[36] utilizationCountIdleState 1
scalar OsgEarthNet.uav[36] utilizationFail 0
scalar OsgEarthNet.uav[36] simulationTime 1209600
scalar OsgEarthNet.uav[37] utilizationSecMission 192072.18924631
scalar OsgEarthNet.uav[37] utilizationSecMaintenance 103087.01338136
scalar OsgEarthNet.uav[37] utilizationSecCharge 913269.00153823
scalar OsgEarthNet.uav[37] utilizationSecIdle 1171.7948340993
scalar OsgEarthNet.uav[37] utilizationEnergyMission 928250.29492188
scalar OsgEarthNet.uav[37] utilizationEnergyMaintenance 483375.72981262
scalar OsgEarthNet.uav[37] utilizationEnergyCharge 1408552.2905273
scalar OsgEarthNet.uav[37] utilizationEnergyOverdrawMission 0
scalar OsgEarthNet.uav[37] utilizationEnergyOverdrawMaintenance 0
scalar OsgEarthNet.uav[37] utilizationCountMissions 334
scalar OsgEarthNet.uav[37] utilizationCountManeuversMission 5744
scalar OsgEarthNet.uav[37] utilizationCountManeuversMaintenance 668
scalar OsgEarthNet.uav[37] utilizationCountChargeState 334
scalar OsgEarthNet.uav[37] utilizationCountOverdrawnAfterMission 0
scalar OsgEarthNet.uav[37] utilizationCountIdleState 2
scalar OsgEarthNet.uav[37] utilizationFail 0
scalar OsgEarthNet.uav[37] simulationTime 1209600
scalar OsgEarthNet.uav[38] utilizationSecMission 188082.39683606
scalar OsgEarthNet.uav[38] utilizationSecMaintenance 107295.60216394
scalar OsgEarthNet.uav[38] utilizationSecCharge 914220
scalar OsgEarthNet.uav[38] utilizationSecIdle 2
scalar OsgEarthNet.uav[38] utilizationEnergyMission 910069.03529739
scalar OsgEarthNet.uav[38] utilizationEnergyMaintenance 505399.83989897
scalar OsgEarthNet.uav[38] utilizationEnergyCharge 1410810.3164062
scalar OsgEarthNet.uav[38] utilizationEnergyOverdrawMission 0
scalar OsgEarthNet.uav[38] utilizationEnergyOverdrawMaintenance 0
scalar OsgEarthNet.uav[38] utilizationCountMissions 341
scalar OsgEarthNet.uav[38] utilizationCountManeuversMission 5922
scalar OsgEarthNet.uav[38] utilizationCountManeuversMaintenance 682
scalar OsgEarthNet.uav[38] utilizationCountChargeState 340
scalar OsgEarthNet.uav[38] utilizationCountOverdrawnAfterMission 0
scalar OsgEarthNet.uav[38] utilizationCountIdleState 1
scalar OsgEarthNet.uav[38] utilizationFail 0
scalar OsgEarthNet.uav[38] simulationTime 1209600
scalar OsgEarthNet.uav[39] utilizationSecMission 186518.05253687
scalar OsgEarthNet.uav[39] utilizationSecMaintenance 109569.94646313
scalar OsgEarthNet.uav[39] utilizationSecCharge 913290
scalar OsgEarthNet.uav[39] utilizationSecIdle 222
scalar OsgEarthNet.uav[39] utilizationEnergyMission 902981.46625952
scalar OsgEarthNet.uav[39] utilizationEnergyMaintenance 519221.69467163
scalar OsgEarthNet.uav[39] utilizationEnergyCharge 1419809.9902344
scalar OsgEarthNet.uav[39] utilizationEnergyOverdrawMission 0
scalar OsgEarthNet.uav[39] utilizationEnergyOverdrawMaintenance 0
scalar OsgEarthNet.uav[39] utilizationCountMissions 338
scalar OsgEarthNet.uav[39] utilizationCountManeuversMission 5769
scalar OsgEarthNet.uav[39] utilizationCountManeuversMaintenance 676
scalar OsgEarthNet.uav[39] utilizationCountChargeState 338
scalar OsgEarthNet.uav[39] utilizationCountOverdrawnAfterMission 0
scalar OsgEarthNet.uav[39] utilizationCountIdleState 4
scalar OsgEarthNet.uav[39] utilizationFail 0
scalar OsgEarthNet.uav[39] simulationTime 1209600
scalar OsgEarthNet.uav[40] utilizationSecMission 180857.64538209
scalar OsgEarthNet.uav[40] utilizationSecMaintenance 115029.42524592
scalar OsgEarthNet.uav[40] utilizationSecCharge 910603.01022944
scalar OsgEarthNet.uav[40] utilizationSecIdle 3109.9181425466
scalar OsgEarthNet.uav[40] utilizationEnergyMission 876505.91059113
scalar OsgEarthNet.uav[40] utilizationEnergyMaintenance 541995.99475861
scalar OsgEarthNet.uav[40] utilizationEnergyCharge 1414212.8466797
scalar OsgEarthNet.uav[40] utilizationEnergyOverdrawMission 0
scalar OsgEarthNet.uav[40] utilizationEnergyOverdrawMaintenance 0
scalar OsgEarthNet.uav[40] utilizationCountMissions 343
scalar OsgEarthNet.uav[40] utilizationCountManeuversMission 5756
scalar OsgEarthNet.uav[40] utilizationCountManeuversMaintenance 686
scalar OsgEarthNet.uav[40] utilizationCountChargeState 343
scalar OsgEarthNet.uav[40] utilizationCountOverdrawnAfterMission 0
scalar OsgEarthNet.uav[40] utilizationCountIdleState 4
scalar OsgEarthNet.uav[40] utilizationFail 0
scalar OsgEarthNet.uav[40] simulationTime 1209600
scalar OsgEarthNet.uav[41] utilizationSecMission 195486.29364857
scalar OsgEarthNet.uav[41] utilizationSecMaintenance 100537.61019775
scalar OsgEarthNet.uav[41] utilizationSecCharge 910954.09015368
scalar OsgEarthNet.uav[41] utilizationSecIdle 2622.005
scalar OsgEarthNet.uav[41] utilizationEnergyMission 949634.7902298
scalar OsgEarthNet.uav[41] utilizationEnergyMaintenance 473855.5667305
scalar OsgEarthNet.uav[41] utilizationEnergyCharge 1417674.8000488
scalar OsgEarthNet.uav[41] utilizationEnergyOverdrawMission 0
scalar OsgEarthNet.uav[41] utilizationEnergyOverdrawMaintenance 0
scalar OsgEarthNet.uav[41] utilizationCountMissions 331
scalar OsgEarthNet.uav[41] utilizationCountManeuversMission 6348
scalar OsgEarthNet.uav[41] utilizationCountManeuversMaintenance 662
scalar OsgEarthNet.uav[41] utilizationCountChargeState 331
scalar OsgEarthNet.uav[41] utilizationCountOverdrawnAfterMission 0
scalar OsgEarthNet.uav[41] utilizationCountIdleState 1
scalar OsgEarthNet.uav[41] utilizationFail 0
scalar OsgEarthNet.uav[41] simulationTime 1209600
scalar OsgEarthNet.uav[42] utilizationSecMission 200006.68319784
scalar OsgEarthNet.uav[42] utilizationSecMaintenance 93087.179394761
scalar OsgEarthNet.uav[42] utilizationSecCharge 914424.1324074
scalar OsgEarthNet.uav[42] utilizationSecIdle 2082.004
scalar OsgEarthNet.uav[42] utilizationEnergyMission 965727.90298843
scalar OsgEarthNet.uav[42] utilizationEnergyMaintenance 435959.14102936
scalar OsgEarthNet.uav[42] utilizationEnergyCharge 1402927.4980469
scalar OsgEarthNet.uav[42] utilizationEnergyOverdrawMission 0
scalar OsgEarthNet.uav[42] utilizationEnergyOverdrawMaintenance 0
scalar OsgEarthNet.uav[42] utilizationCountMissions 326
scalar OsgEarthNet.uav[42] utilizationCountManeuversMission 5774
scalar OsgEarthNet.uav[42] utilizationCountManeuversMaintenance 652
scalar OsgEarthNet.uav[42] utilizationCountChargeState 326
scalar OsgEarthNet.uav[42] utilizationCountOverdrawnAfterMission 0
scalar OsgEarthNet.uav[42] utilizationCountIdleState 1
scalar OsgEarthNet.uav[42] utilizationFail 0
scalar OsgEarthNet.uav[42] simulationTime 1209600
scalar OsgEarthNet.uav[43] utilizationSecMission 184699.7001109
scalar OsgEarthNet.uav[43] utilizationSecMaintenance 105038.2988891
scalar OsgEarthNet.uav[43] utilizationSecCharge 919860
scalar OsgEarthNet.uav[43] utilizationSecIdle 2
scalar OsgEarthNet.uav[43] utilizationEnergyMission 887089.10337386
scalar OsgEarthNet.uav[43] utilizationEnergyMaintenance 498195.10374451
scalar OsgEarthNet.uav[43] utilizationEnergyCharge 1379652.7785645
scalar OsgEarthNet.uav[43] utilizationEnergyOverdrawMission 0
scalar OsgEarthNet.uav[43] utilizationEnergyOverdrawMaintenance 0
scalar OsgEarthNet.uav[43] utilizationCountMissions 338
scalar OsgEarthNet.uav[43] utilizationCountManeuversMission 5344
scalar OsgEarthNet.uav[43] utilizationCountManeuversMaintenance 677
scalar OsgEarthNet.uav[43] utilizationCountChargeState 338
scalar OsgEarthNet.uav[43] utilizationCountOverdrawnAfterMission 0
scalar OsgEarthNet.uav[43] utilizationCountIdleState 1
scalar OsgEarthNet.uav[43] utilizationFail 0
scalar OsgEarthNet.uav[43] simulationTime 1209600
scalar OsgEarthNet.uav[44] utilizationSecMission 186383.40998933
scalar OsgEarthNet.uav[44] utilizationSecMaintenance 105808.2669102
scalar OsgEarthNet.uav[44] utilizationSecCharge 914962.88001177
scalar OsgEarthNet.uav[44] utilizationSecIdle 2445.4420886909
scalar OsgEarthNet.uav[44] utilizationEnergyMission 900613.71852875
scalar OsgEarthNet.uav[44] utilizationEnergyMaintenance 499643.99492264
scalar OsgEarthNet.uav[44] utilizationEnergyCharge 1396691.8586426
scalar OsgEarthNet.uav[44] utilizationEnergyOverdrawMission 0
scalar OsgEarthNet.uav[44] utilizationEnergyOverdrawMaintenance 0
scalar OsgEarthNet.uav[44] utilizationCountMissions 337
scalar OsgEarthNet.uav[44] utilizationCountManeuversMission 5483
scalar OsgEarthNet.uav[44] utilizationCountManeuversMaintenance 674
scalar OsgEarthNet.uav[44] utilizationCountChargeState 337
scalar OsgEarthNet.uav[44] utilizationCountOverdrawnAfterMission 0
scalar OsgEarthNet.uav[44] utilizationCountIdleState 3
scalar OsgEarthNet.uav[44] utilizationFail 0
scalar OsgEarthNet.uav[44] simulationTime 1209600
scalar OsgEarthNet.uav[45] utilizationSecMission 192512.1805033
scalar OsgEarthNet.uav[45] utilizationSecMaintenance 106994.22171894
scalar OsgEarthNet.uav[45] utilizationSecCharge 908791.59477776
scalar OsgEarthNet.uav[45] utilizationSecIdle 1302.002
scalar OsgEarthNet.uav[45] utilizationEnergyMission 940760.1256218
scalar OsgEarthNet.uav[45] utilizationEnergyMaintenance 503854.35736084
scalar OsgEarthNet.uav[45] utilizationEnergyCharge 1442209.630127
scalar OsgEarthNet.uav[45] utilizationEnergyOverdrawMission 0
scalar OsgEarthNet.uav[45] utilizationEnergyOverdrawMaintenance 0
scalar OsgEarthNet.uav[45] utilizationCountMissions 335
scalar OsgEarthNet.uav[45] utilizationCountManeuversMission 6240
scalar OsgEarthNet.uav[45] utilizationCountManeuversMaintenance 670
scalar OsgEarthNet.uav[45] utilizationCountChargeState 335
scalar OsgEarthNet.uav[45] utilizationCountOverdrawnAfterMission 0
scalar OsgEarthNet.uav[45] utilizationCountIdleState 2
scalar OsgEarthNet.uav[45] utilizationFail 0
scalar OsgEarthNet.uav[45] simulationTime 1209600
scalar OsgEarthNet.uav[46] utilizationSecMission 202842.54489359
scalar OsgEarthNet.uav[46] utilizationSecMaintenance 96642.338861337
scalar OsgEarthNet.uav[46] utilizationSecCharge 907694.1669894
scalar OsgEarthNet.uav[46] utilizationSecIdle 2420.9482556647
scalar OsgEarthNet.uav[46] utilizationEnergyMission 985035.01891708
scalar OsgEarthNet.uav[46] utilizationEnergyMaintenance 450663.11880112
scalar OsgEarthNet.uav[46] utilizationEnergyCharge 1430493.2614746
scalar OsgEarthNet.uav[46] utilizationEnergyOverdrawMission 0
scalar OsgEarthNet.uav[46] utilizationEnergyOverdrawMaintenance 0
scalar OsgEarthNet.uav[46] utilizationCountMissions 328
scalar OsgEarthNet.uav[46] utilizationCountManeuversMission 6530
scalar OsgEarthNet.uav[46] utilizationCountManeuversMaintenance 656
scalar OsgEarthNet.uav[46] utilizationCountChargeState 328
scalar OsgEarthNet.uav[46] utilizationCountOverdrawnAfterMission 0
scalar OsgEarthNet.uav[46] utilizationCountIdleState 2
scalar OsgEarthNet.uav[46] utilizationFail 0
scalar OsgEarthNet.uav[46] simulationTime 1209600
scalar OsgEarthNet.uav[47] utilizationSecMission 191269.49687894
scalar OsgEarthNet.uav[47] utilizationSecMaintenance 108590.41416371
scalar OsgEarthNet.uav[47] utilizationSecCharge 909668.08795735
scalar OsgEarthNet.uav[47] utilizationSecIdle 72
scalar OsgEarthNet.uav[47] utilizationEnergyMission 928772.66268158
scalar OsgEarthNet.uav[47] utilizationEnergyMaintenance 511635.03445053
scalar OsgEarthNet.uav[47] utilizationEnergyCharge 1431996.5400391
scalar OsgEarthNet.uav[47] utilizationEnergyOverdrawMission 0
scalar OsgEarthNet.uav[47] utilizationEnergyOverdrawMaintenance 0
scalar OsgEarthNet.uav[47] utilizationCountMissions 336
scalar OsgEarthNet.uav[47] utilizationCountManeuversMission 6017
scalar OsgEarthNet.uav[47] utilizationCountManeuversMaintenance 672
scalar OsgEarthNet.uav[47] utilizationCountChargeState 336
scalar OsgEarthNet.uav[47] utilizationCountOverdrawnAfterMission 0
scalar OsgEarthNet.uav[47] utilizationCountIdleState 2
scalar OsgEarthNet.uav[47] utilizationFail 0
scalar OsgEarthNet.uav[47] simulationTime 1209600
scalar OsgEarthNet.uav[48] utilizationSecMission 181863.99487968
scalar OsgEarthNet.uav[48] utilizationSecMaintenance 117458.78363709
scalar OsgEarthNet.uav[48] utilizationSecCharge 908375.21748323
scalar OsgEarthNet.uav[48] utilizationSecIdle 1902.003
scalar OsgEarthNet.uav[48] utilizationEnergyMission 880732.15484238
scalar OsgEarthNet.uav[48] utilizationEnergyMaintenance 558263.18217468
scalar OsgEarthNet.uav[48] utilizationEnergyCharge 1441116.7893066
scalar OsgEarthNet.uav[48] utilizationEnergyOverdrawMission 0
scalar OsgEarthNet.uav[48] utilizationEnergyOverdrawMaintenance 0
scalar OsgEarthNet.uav[48] utilizationCountMissions 345
scalar OsgEarthNet.uav[48] utilizationCountManeuversMission 5755
scalar OsgEarthNet.uav[48] utilizationCountManeuversMaintenance 690
scalar OsgEarthNet.uav[48] utilizationCountChargeState 345
scalar OsgEarthNet.uav[48] utilizationCountOverdrawnAfterMission 0
scalar OsgEarthNet.uav[48] utilizationCountIdleState 1
scalar OsgEarthNet.uav[48] utilizationFail 0
scalar OsgEarthNet.uav[48] simulationTime 1209600
scalar OsgEarthNet.uav[49] utilizationSecMission 191522.75856627
scalar OsgEarthNet.uav[49] utilizationSecMaintenance 106745.24043373
scalar OsgEarthNet.uav[49] utilizationSecCharge 911180
scalar OsgEarthNet.uav[49] utilizationSecIdle 152
scalar OsgEarthNet.uav[49] utilizationEnergyMission 934098.99950332
scalar OsgEarthNet.uav[49] utilizationEnergyMaintenance 501381.97055054
scalar OsgEarthNet.uav[49] utilizationEnergyCharge 1432580.2473145
scalar OsgEarthNet.uav[49] utilizationEnergyOverdrawMission 0
scalar OsgEarthNet.uav[49] utilizationEnergyOverdrawMaintenance 0
scalar OsgEarthNet.uav[49] utilizationCountMissions 335
scalar OsgEarthNet.uav[49] utilizationCountManeuversMission 6159
scalar OsgEarthNet.uav[49] utilizationCountManeuversMaintenance 670
scalar OsgEarthNet.uav[49] utilizationCountChargeState 335
scalar OsgEarthNet.uav[49] utilizationCountOverdrawnAfterMission 0
scalar OsgEarthNet.uav[49] utilizationCountIdleState 5
scalar OsgEarthNet.uav[49] utilizationFail 0
scalar OsgEarthNet.uav[49] simulationTime 1209600
scalar OsgEarthNet.uav[50] utilizationSecMission 194186.00170833
scalar OsgEarthNet.uav[50] utilizationSecMaintenance 100559.0702124
scalar OsgEarthNet.uav[50] utilizationSecCharge 911706.84409947
scalar OsgEarthNet.uav[50] utilizationSecIdle 3148.0829797894
scalar OsgEarthNet.uav[50] utilizationEnergyMission 940874.17218399
scalar OsgEarthNet.uav[50] utilizationEnergyMaintenance 471764.74541855
scalar OsgEarthNet.uav[50] utilizationEnergyCharge 1412876.1420898
scalar OsgEarthNet.uav[50] utilizationEnergyOverdrawMission 0
scalar OsgEarthNet.uav[50] utilizationEnergyOverdrawMaintenance 0
scalar OsgEarthNet.uav[50] utilizationCountMissions 331
scalar OsgEarthNet.uav[50] utilizationCountManeuversMission 6112
scalar OsgEarthNet.uav[50] utilizationCountManeuversMaintenance 662
scalar OsgEarthNet.uav[50] utilizationCountChargeState 331
scalar OsgEarthNet.uav[50] utilizationCountOverdrawnAfterMission 0
scalar OsgEarthNet.uav[50] utilizationCountIdleState 1
scalar OsgEarthNet.uav[50] utilizationFail 0
scalar OsgEarthNet.uav[50] simulationTime 1209600
scalar OsgEarthNet.uav[51] utilizationSecMission 181626.15506422
scalar OsgEarthNet.uav[51] utilizationSecMaintenance 108628.77127023
scalar OsgEarthNet.uav[51] utilizationSecCharge 919113.07266555
scalar OsgEarthNet.uav[51] utilizationSecIdle 232
scalar OsgEarthNet.uav[51] utilizationEnergyMission 871423.71540833
scalar OsgEarthNet.uav[51] utilizationEnergyMaintenance 515569.42143631
scalar OsgEarthNet.uav[51] utilizationEnergyCharge 1387707.0305176
scalar OsgEarthNet.uav[51] utilizationEnergyOverdrawMission 0
scalar OsgEarthNet.uav[51] utilizationEnergyOverdrawMaintenance 0
scalar OsgEarthNet.uav[51] utilizationCountMissions 339
scalar OsgEarthNet.uav[51] utilizationCountManeuversMission 5407
scalar OsgEarthNet.uav[51] utilizationCountManeuversMaintenance 677
scalar OsgEarthNet.uav[51] utilizationCountChargeState 339
scalar OsgEarthNet.uav[51] utilizationCountOverdrawnAfterMission 0
scalar OsgEarthNet.uav[51] utilizationCountIdleState 4
scalar OsgEarthNet.uav[51] utilizationFail 0
scalar OsgEarthNet.uav[51] simulationTime 1209600
scalar OsgEarthNet.uav[52] utilizationSecMission 193623.75703478
scalar OsgEarthNet.uav[52] utilizationSecMaintenance 108343.9611631
scalar OsgEarthNet.uav[52] utilizationSecCharge 907110.27980212
scalar OsgEarthNet.uav[52] utilizationSecIdle 522.001
scalar OsgEarthNet.uav[52] utilizationEnergyMission 944679.66971588
scalar OsgEarthNet.uav[52] utilizationEnergyMaintenance 508979.99673462
scalar OsgEarthNet.uav[52] utilizationEnergyCharge 1445958.8352051
scalar OsgEarthNet.uav[52] utilizationEnergyOverdrawMission 0
scalar OsgEarthNet.uav[52] utilizationEnergyOverdrawMaintenance 0
scalar OsgEarthNet.uav[52] utilizationCountMissions 337
scalar OsgEarthNet.uav[52] utilizationCountManeuversMission 5810
scalar OsgEarthNet.uav[52] utilizationCountManeuversMaintenance 674
scalar OsgEarthNet.uav[52] utilizationCountChargeState 337
scalar OsgEarthNet.uav[52] utilizationCountOverdrawnAfterMission 0
scalar OsgEarthNet.uav[52] utilizationCountIdleState 1
scalar OsgEarthNet.uav[52] utilizationFail 0
scalar OsgEarthNet.uav[52] simulationTime 1209600
scalar OsgEarthNet.uav[53] utilizationSecMission 189672.79057177
scalar OsgEarthNet.uav[53] utilizationSecMaintenance 108715.20142823
scalar OsgEarthNet.uav[53] utilizationSecCharge 908000
scalar OsgEarthNet.uav[53] utilizationSecIdle 3212.007
scalar OsgEarthNet.uav[53] utilizationEnergyMission 917435.74274898
scalar OsgEarthNet.uav[53] utilizationEnergyMaintenance 509169.39476776
scalar OsgEarthNet.uav[53] utilizationEnergyCharge 1427840.4604492
scalar OsgEarthNet.uav[53] utilizationEnergyOverdrawMission 0
scalar OsgEarthNet.uav[53] utilizationEnergyOverdrawMaintenance 0
scalar OsgEarthNet.uav[53] utilizationCountMissions 338
scalar OsgEarthNet.uav[53] utilizationCountManeuversMission 5929
scalar OsgEarthNet.uav[53] utilizationCountManeuversMaintenance 677
scalar OsgEarthNet.uav[53] utilizationCountChargeState 338
scalar OsgEarthNet.uav[53] utilizationCountOverdrawnAfterMission 0
scalar OsgEarthNet.uav[53] utilizationCountIdleState 2
scalar OsgEarthNet.uav[53] utilizationFail 0
scalar OsgEarthNet.uav[53] simulationTime 1209600
scalar OsgEarthNet.uav[54] utilizationSecMission 182388.34250584
scalar OsgEarthNet.uav[54] utilizationSecMaintenance 114733.46421695
scalar OsgEarthNet.uav[54] utilizationSecCharge 911506.19077049
scalar OsgEarthNet.uav[54] utilizationSecIdle 972.00150672213
scalar OsgEarthNet.uav[54] utilizationEnergyMission 887854.88975525
scalar OsgEarthNet.uav[54] utilizationEnergyMaintenance 544274.98780823
scalar OsgEarthNet.uav[54] utilizationEnergyCharge 1423471.7388306
scalar OsgEarthNet.uav[54] utilizationEnergyOverdrawMission 0
scalar OsgEarthNet.uav[54] utilizationEnergyOverdrawMaintenance 0
scalar OsgEarthNet.uav[54] utilizationCountMissions 343
scalar OsgEarthNet.uav[54] utilizationCountManeuversMission 5696
scalar OsgEarthNet.uav[54] utilizationCountManeuversMaintenance 686
scalar OsgEarthNet.uav[54] utilizationCountChargeState 343
scalar OsgEarthNet.uav[54] utilizationCountOverdrawnAfterMission 0
scalar OsgEarthNet.uav[54] utilizationCountIdleState 4
scalar OsgEarthNet.uav[54] utilizationFail 0
scalar OsgEarthNet.uav[54] simulationTime 1209600
scalar OsgEarthNet.uav[55] utilizationSecMission 199758.02788195
scalar OsgEarthNet.uav[55] utilizationSecMaintenance 98295.620897232
scalar OsgEarthNet.uav[55] utilizationSecCharge 909770
scalar OsgEarthNet.uav[55] utilizationSecIdle 1776.3502208215
scalar OsgEarthNet.uav[55] utilizationEnergyMission 972673.53680028
scalar OsgEarthNet.uav[55] utilizationEnergyMaintenance 461007.50659943
scalar OsgEarthNet.uav[55] utilizationEnergyCharge 1429656.1594238
scalar OsgEarthNet.uav[55] utilizationEnergyOverdrawMission 0
scalar OsgEarthNet.uav[55] utilizationEnergyOverdrawMaintenance 0
scalar OsgEarthNet.uav[55] utilizationCountMissions 329
scalar OsgEarthNet.uav[55] utilizationCountManeuversMission 6096
scalar OsgEarthNet.uav[55] utilizationCountManeuversMaintenance 659
scalar OsgEarthNet.uav[55] utilizationCountChargeState 329
scalar OsgEarthNet.uav[55] utilizationCountOverdrawnAfterMission 0
scalar OsgEarthNet.uav[55] utilizationCountIdleState 1
scalar OsgEarthNet.uav[55] utilizationFail 0
scalar OsgEarthNet.uav[55] simulationTime 1209600
scalar OsgEarthNet.cs[0] usedPower 19747353.842803
scalar OsgEarthNet.cs[0] chargedPower 19747353.842803
scalar OsgEarthNet.cs[0] chargedMobileNodes 3
scalar OsgEarthNet.cs[0] reservations 4634
scalar OsgEarthNet.cs[1] usedPower 27103602.946302
scalar OsgEarthNet.cs[1] chargedPower 27103602.946302
scalar OsgEarthNet.cs[1] chargedMobileNodes 37
scalar OsgEarthNet.cs[1] reservations 6715
scalar OsgEarthNet.cs[2] usedPower 32959611.49033
scalar OsgEarthNet.cs[2] chargedPower 32959611.49033
scalar OsgEarthNet.cs[2] chargedMobileNodes 5
scalar OsgEarthNet.cs[2] reservations 7412

