version 2
run Szenario_Hotel_Gabelbach-85-20180719-00:23:58-10908
attr configname Szenario_Hotel_Gabelbach
attr datetime 20180719-00:23:58
attr experiment Szenario_Hotel_Gabelbach
attr inifile omnetpp.ini
attr iterationvars "$replM=2, $biWeight=0.35, $replSearchM=1, $numUAVs=56"
attr iterationvarsf replM=2,biWeight=0.35,replSearchM=1,numUAVs=56-
attr measurement "$replM=2, $biWeight=0.35, $replSearchM=1, $numUAVs=56"
attr network OsgEarthNet
attr processid 10908
attr repetition 37
attr replication #37
attr resultdir results
attr runnumber 85
attr seedset 85
itervar biWeight 0.35
itervar numUAVs 56
itervar replM 2
itervar replSearchM 1
param *.osgEarthScene.scene "\"Szenario_Hotel_Gabelbach.earth\""
param *.playgroundLatitude 50.6830269
param *.playgroundLongitude 10.8538055
param *.playgroundWidth 3500m
param *.playgroundHeight 3500m
param *.cs[0].posX 3537m
param *.cs[0].posY 965m
param *.cs[0].posZ 538m
param *.cs[1].posX 312m
param *.cs[1].posY 1262m
param *.cs[1].posZ 539m
param *.cs[2].posX 2185m
param *.cs[2].posY 3026m
param *.cs[2].posZ 777m
param *.cs[3].posX 10m
param *.cs[3].posY 2200m
param *.cs[3].posZ 560m
param *.cs[4].posX 750m
param *.cs[4].posY 200m
param *.cs[4].posZ 540m
param *.cs[5].posX 2450m
param *.cs[5].posY 180m
param *.cs[5].posZ 524m
param *.cs[6].posX 3140m
param *.cs[6].posY 1790m
param *.cs[6].posZ 606m
param *.numCSs 3
param *.uav[*].replacementMethod 2
param *.uav[*].weightedSumWeight 0.35
param *.missionControl.replacementSearchMethod 1
param *.numUAVs 56
param *.*.timeStep 10s
param *.uav[*].commandPreviewCommandCount 20
param *.missionControl.missionFiles "\"missions\\\\Szenario_WB_Hotel_Gabelbach_Mission_Hotel.waypoints,missions\\\\Szenario_WB_Hotel_Gabelbach_Mission_Kickelhahn.waypoints,missions\\\\Szenario_WB_Hotel_Gabelbach_Mission_Ilmenau_Sportplatz.waypoints,missions\\\\Szenario_WB_Hotel_Gabelbach_Mission_Manebach_Mitte.waypoints,missions\\\\Szenario_WB_Hotel_Gabelbach_Mission_Manebach_Sued.waypoints,missions\\\\Szenario_WB_Hotel_Gabelbach_Hover_HoheSchlaufe.waypoints,missions\\\\Szenario_WB_Hotel_Gabelbach_Hover_Kickelhahn.waypoints,missions\\\\Szenario_WB_Hotel_Gabelbach_Hover_Gabelbachskopf.waypoints,missions\\\\Szenario_WB_Hotel_Gabelbach_Hover_Dachskopf.waypoints\""
param *.uav[0].startX 3537m
param *.uav[0].startY 965m
param *.uav[0].startZ 539m
param *.uav[1].startX 312m
param *.uav[1].startY 1262m
param *.uav[1].startZ 540m
param *.uav[2].startX 2185m
param *.uav[2].startY 3026m
param *.uav[2].startZ 778m
param *.uav[3].startX 3537m
param *.uav[3].startY 965m
param *.uav[3].startZ 539m
param *.uav[4].startX 312m
param *.uav[4].startY 1262m
param *.uav[4].startZ 540m
param *.uav[5].startX 2185m
param *.uav[5].startY 3026m
param *.uav[5].startZ 778m
param *.uav[6].startX 3537m
param *.uav[6].startY 965m
param *.uav[6].startZ 539m
param *.uav[7].startX 312m
param *.uav[7].startY 1262m
param *.uav[7].startZ 540m
param *.uav[8].startX 2185m
param *.uav[8].startY 3026m
param *.uav[8].startZ 778m
param *.uav[9].startX 3537m
param *.uav[9].startY 965m
param *.uav[9].startZ 539m
param *.uav[10].startX 3537m
param *.uav[10].startY 965m
param *.uav[10].startZ 539m
param *.uav[11].startX 312m
param *.uav[11].startY 1262m
param *.uav[11].startZ 540m
param *.uav[12].startX 2185m
param *.uav[12].startY 3026m
param *.uav[12].startZ 778m
param *.uav[13].startX 3537m
param *.uav[13].startY 965m
param *.uav[13].startZ 539m
param *.uav[14].startX 312m
param *.uav[14].startY 1262m
param *.uav[14].startZ 540m
param *.uav[15].startX 2185m
param *.uav[15].startY 3026m
param *.uav[15].startZ 778m
param *.uav[16].startX 3537m
param *.uav[16].startY 965m
param *.uav[16].startZ 539m
param *.uav[17].startX 312m
param *.uav[17].startY 1262m
param *.uav[17].startZ 540m
param *.uav[18].startX 2185m
param *.uav[18].startY 3026m
param *.uav[18].startZ 778m
param *.uav[19].startX 3537m
param *.uav[19].startY 965m
param *.uav[19].startZ 539m
param *.uav[20].startX 3537m
param *.uav[20].startY 965m
param *.uav[20].startZ 539m
param *.uav[21].startX 312m
param *.uav[21].startY 1262m
param *.uav[21].startZ 540m
param *.uav[22].startX 2185m
param *.uav[22].startY 3026m
param *.uav[22].startZ 778m
param *.uav[23].startX 3537m
param *.uav[23].startY 965m
param *.uav[23].startZ 539m
param *.uav[24].startX 312m
param *.uav[24].startY 1262m
param *.uav[24].startZ 540m
param *.uav[25].startX 2185m
param *.uav[25].startY 3026m
param *.uav[25].startZ 778m
param *.uav[26].startX 3537m
param *.uav[26].startY 965m
param *.uav[26].startZ 539m
param *.uav[27].startX 312m
param *.uav[27].startY 1262m
param *.uav[27].startZ 540m
param *.uav[28].startX 2185m
param *.uav[28].startY 3026m
param *.uav[28].startZ 778m
param *.uav[29].startX 3537m
param *.uav[29].startY 965m
param *.uav[29].startZ 539m
param *.uav[30].startX 3537m
param *.uav[30].startY 965m
param *.uav[30].startZ 539m
param *.uav[31].startX 312m
param *.uav[31].startY 1262m
param *.uav[31].startZ 540m
param *.uav[32].startX 2185m
param *.uav[32].startY 3026m
param *.uav[32].startZ 778m
param *.uav[33].startX 3537m
param *.uav[33].startY 965m
param *.uav[33].startZ 539m
param *.uav[34].startX 312m
param *.uav[34].startY 1262m
param *.uav[34].startZ 540m
param *.uav[35].startX 2185m
param *.uav[35].startY 3026m
param *.uav[35].startZ 778m
param *.uav[36].startX 3537m
param *.uav[36].startY 965m
param *.uav[36].startZ 539m
param *.uav[37].startX 312m
param *.uav[37].startY 1262m
param *.uav[37].startZ 540m
param *.uav[38].startX 2185m
param *.uav[38].startY 3026m
param *.uav[38].startZ 778m
param *.uav[39].startX 3537m
param *.uav[39].startY 965m
param *.uav[39].startZ 539m
param *.uav[40].startX 3537m
param *.uav[40].startY 965m
param *.uav[40].startZ 539m
param *.uav[41].startX 312m
param *.uav[41].startY 1262m
param *.uav[41].startZ 540m
param *.uav[42].startX 2185m
param *.uav[42].startY 3026m
param *.uav[42].startZ 778m
param *.uav[43].startX 3537m
param *.uav[43].startY 965m
param *.uav[43].startZ 539m
param *.uav[44].startX 312m
param *.uav[44].startY 1262m
param *.uav[44].startZ 540m
param *.uav[45].startX 2185m
param *.uav[45].startY 3026m
param *.uav[45].startZ 778m
param *.uav[46].startX 3537m
param *.uav[46].startY 965m
param *.uav[46].startZ 539m
param *.uav[47].startX 312m
param *.uav[47].startY 1262m
param *.uav[47].startZ 540m
param *.uav[48].startX 2185m
param *.uav[48].startY 3026m
param *.uav[48].startZ 778m
param *.uav[49].startX 3537m
param *.uav[49].startY 965m
param *.uav[49].startZ 539m
param *.uav[50].startX 3537m
param *.uav[50].startY 965m
param *.uav[50].startZ 539m
param *.uav[51].startX 312m
param *.uav[51].startY 1262m
param *.uav[51].startZ 540m
param *.uav[52].startX 2185m
param *.uav[52].startY 3026m
param *.uav[52].startZ 778m
param *.uav[53].startX 3537m
param *.uav[53].startY 965m
param *.uav[53].startZ 539m
param *.uav[54].startX 312m
param *.uav[54].startY 1262m
param *.uav[54].startZ 540m
param *.uav[55].startX 2185m
param *.uav[55].startY 3026m
param *.uav[55].startZ 778m
param *.uav[56].startX 3537m
param *.uav[56].startY 965m
param *.uav[56].startZ 539m
param *.uav[57].startX 312m
param *.uav[57].startY 1262m
param *.uav[57].startZ 540m
param *.uav[58].startX 2185m
param *.uav[58].startY 3026m
param *.uav[58].startZ 778m
param *.uav[59].startX 3537m
param *.uav[59].startY 965m
param *.uav[59].startZ 539m
param *.uav[60].startX 3537m
param *.uav[60].startY 965m
param *.uav[60].startZ 539m
param *.uav[61].startX 312m
param *.uav[61].startY 1262m
param *.uav[61].startZ 540m
param *.uav[62].startX 2185m
param *.uav[62].startY 3026m
param *.uav[62].startZ 778m
param *.uav[63].startX 3537m
param *.uav[63].startY 965m
param *.uav[63].startZ 539m
param *.uav[64].startX 312m
param *.uav[64].startY 1262m
param *.uav[64].startZ 540m
param *.uav[65].startX 2185m
param *.uav[65].startY 3026m
param *.uav[65].startZ 778m
param *.uav[66].startX 3537m
param *.uav[66].startY 965m
param *.uav[66].startZ 539m
param *.uav[67].startX 312m
param *.uav[67].startY 1262m
param *.uav[67].startZ 540m
param *.uav[68].startX 2185m
param *.uav[68].startY 3026m
param *.uav[68].startZ 778m
param *.uav[69].startX 3537m
param *.uav[69].startY 965m
param *.uav[69].startZ 539m
param *.uav[70].startX 3537m
param *.uav[70].startY 965m
param *.uav[70].startZ 539m
param *.uav[71].startX 312m
param *.uav[71].startY 1262m
param *.uav[71].startZ 540m
param *.uav[72].startX 2185m
param *.uav[72].startY 3026m
param *.uav[72].startZ 778m
param *.uav[73].startX 3537m
param *.uav[73].startY 965m
param *.uav[73].startZ 539m
param *.uav[74].startX 312m
param *.uav[74].startY 1262m
param *.uav[74].startZ 540m
param *.uav[75].startX 2185m
param *.uav[75].startY 3026m
param *.uav[75].startZ 778m
param *.uav[76].startX 3537m
param *.uav[76].startY 965m
param *.uav[76].startZ 539m
param *.uav[77].startX 312m
param *.uav[77].startY 1262m
param *.uav[77].startZ 540m
param *.uav[78].startX 2185m
param *.uav[78].startY 3026m
param *.uav[78].startZ 778m
param *.uav[79].startX 3537m
param *.uav[79].startY 965m
param *.uav[79].startZ 539m
param *.uav[80].startX 3537m
param *.uav[80].startY 965m
param *.uav[80].startZ 539m
param *.uav[81].startX 312m
param *.uav[81].startY 1262m
param *.uav[81].startZ 540m
param *.uav[82].startX 2185m
param *.uav[82].startY 3026m
param *.uav[82].startZ 778m
param *.uav[83].startX 3537m
param *.uav[83].startY 965m
param *.uav[83].startZ 539m
param *.uav[84].startX 312m
param *.uav[84].startY 1262m
param *.uav[84].startZ 540m
param *.uav[85].startX 2185m
param *.uav[85].startY 3026m
param *.uav[85].startZ 778m
param *.uav[86].startX 3537m
param *.uav[86].startY 965m
param *.uav[86].startZ 539m
param *.uav[87].startX 312m
param *.uav[87].startY 1262m
param *.uav[87].startZ 540m
param *.uav[88].startX 2185m
param *.uav[88].startY 3026m
param *.uav[88].startZ 778m
param *.uav[89].startX 3537m
param *.uav[89].startY 965m
param *.uav[89].startZ 539m
param *.uav[90].startX 3537m
param *.uav[90].startY 965m
param *.uav[90].startZ 539m
param *.uav[91].startX 312m
param *.uav[91].startY 1262m
param *.uav[91].startZ 540m
param *.uav[92].startX 2185m
param *.uav[92].startY 3026m
param *.uav[92].startZ 778m
param *.uav[93].startX 3537m
param *.uav[93].startY 965m
param *.uav[93].startZ 539m
param *.uav[94].startX 312m
param *.uav[94].startY 1262m
param *.uav[94].startZ 540m
param *.uav[95].startX 2185m
param *.uav[95].startY 3026m
param *.uav[95].startZ 778m
param *.uav[96].startX 3537m
param *.uav[96].startY 965m
param *.uav[96].startZ 539m
param *.uav[97].startX 312m
param *.uav[97].startY 1262m
param *.uav[97].startZ 540m
param *.uav[98].startX 2185m
param *.uav[98].startY 3026m
param *.uav[98].startZ 778m
param *.uav[99].startX 3537m
param *.uav[99].startY 965m
param *.uav[99].startZ 539m
param *.osgEarthScene.scene "\"boston.earth\""
param *.playgroundLatitude 42.3558
param *.playgroundLongitude -71.0677
param *.playgroundWidth 400m
param *.playgroundHeight 200m
param *.channelController.connectionColor "\"#0000FF40\""
param *.channelController.showConnections false
param *.uav[*].modelURL "\"quadrocopter.small.obj.15.scale.0,0,90.rot\""
param *.uav[*].labelColor "\"#FF7C00CC\""
param *.uav[*].label2Color "\"#FF7C00EE\""
param *.uav[*].batteryCapacity 5200mAh
param *.uav[*].batteryRemaining uav[index].batteryCapacity
param *.uav[*].predictionQuantile 0.95
param *.uav[*].replacementMethod 2
param *.uav[*].weightedSumWeight 0.5
param *.cs[*].modelURL "\"chargingstation_v1.osgt.2.scale.0,0,0.rot.0,0,-15e-1.trans\""
param *.cs[*].spotsWaiting 999
param *.cs[*].spotsCharging 999
param *.cs[*].chargeEffectivenessPercentage 100
param *.cs[*].nonLinearPhaseStartPercentage 85
param *.cs[*].chargeCurrent 6.0A
param *.cs[*].prioritizeFastCharge true
param *.missionControl.replacementSearchMethod 0
param *.*.timeStep 9s

scalar OsgEarthNet.uav[0] utilizationSecMission 181818.1047732
scalar OsgEarthNet.uav[0] utilizationSecMaintenance 112638.78982889
scalar OsgEarthNet.uav[0] utilizationSecCharge 913061.16539133
scalar OsgEarthNet.uav[0] utilizationSecIdle 2081.939006574
scalar OsgEarthNet.uav[0] utilizationEnergyMission 886536.71925354
scalar OsgEarthNet.uav[0] utilizationEnergyMaintenance 532569.1687355
scalar OsgEarthNet.uav[0] utilizationEnergyCharge 1414622.7050781
scalar OsgEarthNet.uav[0] utilizationEnergyOverdrawMission 0
scalar OsgEarthNet.uav[0] utilizationEnergyOverdrawMaintenance 0
scalar OsgEarthNet.uav[0] utilizationCountMissions 341
scalar OsgEarthNet.uav[0] utilizationCountManeuversMission 5730
scalar OsgEarthNet.uav[0] utilizationCountManeuversMaintenance 682
scalar OsgEarthNet.uav[0] utilizationCountChargeState 341
scalar OsgEarthNet.uav[0] utilizationCountOverdrawnAfterMission 0
scalar OsgEarthNet.uav[0] utilizationCountIdleState 1
scalar OsgEarthNet.uav[0] utilizationFail 0
scalar OsgEarthNet.uav[0] simulationTime 1209600
scalar OsgEarthNet.uav[1] utilizationSecMission 190932.02041796
scalar OsgEarthNet.uav[1] utilizationSecMaintenance 110007.12008127
scalar OsgEarthNet.uav[1] utilizationSecCharge 908658.85850076
scalar OsgEarthNet.uav[1] utilizationSecIdle 2
scalar OsgEarthNet.uav[1] utilizationEnergyMission 923169.08882523
scalar OsgEarthNet.uav[1] utilizationEnergyMaintenance 515650.17832947
scalar OsgEarthNet.uav[1] utilizationEnergyCharge 1444108.0222168
scalar OsgEarthNet.uav[1] utilizationEnergyOverdrawMission 0
scalar OsgEarthNet.uav[1] utilizationEnergyOverdrawMaintenance 0
scalar OsgEarthNet.uav[1] utilizationCountMissions 339
scalar OsgEarthNet.uav[1] utilizationCountManeuversMission 6215
scalar OsgEarthNet.uav[1] utilizationCountManeuversMaintenance 677
scalar OsgEarthNet.uav[1] utilizationCountChargeState 339
scalar OsgEarthNet.uav[1] utilizationCountOverdrawnAfterMission 0
scalar OsgEarthNet.uav[1] utilizationCountIdleState 1
scalar OsgEarthNet.uav[1] utilizationFail 0
scalar OsgEarthNet.uav[1] simulationTime 1209600
scalar OsgEarthNet.uav[2] utilizationSecMission 193073.32676301
scalar OsgEarthNet.uav[2] utilizationSecMaintenance 109424.64798961
scalar OsgEarthNet.uav[2] utilizationSecCharge 905350.351198
scalar OsgEarthNet.uav[2] utilizationSecIdle 1751.673049383
scalar OsgEarthNet.uav[2] utilizationEnergyMission 940587.72863388
scalar OsgEarthNet.uav[2] utilizationEnergyMaintenance 513347.39442062
scalar OsgEarthNet.uav[2] utilizationEnergyCharge 1450334.982666
scalar OsgEarthNet.uav[2] utilizationEnergyOverdrawMission 0
scalar OsgEarthNet.uav[2] utilizationEnergyOverdrawMaintenance 0
scalar OsgEarthNet.uav[2] utilizationCountMissions 335
scalar OsgEarthNet.uav[2] utilizationCountManeuversMission 6440
scalar OsgEarthNet.uav[2] utilizationCountManeuversMaintenance 670
scalar OsgEarthNet.uav[2] utilizationCountChargeState 335
scalar OsgEarthNet.uav[2] utilizationCountOverdrawnAfterMission 0
scalar OsgEarthNet.uav[2] utilizationCountIdleState 1
scalar OsgEarthNet.uav[2] utilizationFail 0
scalar OsgEarthNet.uav[2] simulationTime 1209600
scalar OsgEarthNet.uav[3] utilizationSecMission 191915.99049071
scalar OsgEarthNet.uav[3] utilizationSecMaintenance 105952.00450929
scalar OsgEarthNet.uav[3] utilizationSecCharge 909870
scalar OsgEarthNet.uav[3] utilizationSecIdle 1862.004
scalar OsgEarthNet.uav[3] utilizationEnergyMission 935218.51937067
scalar OsgEarthNet.uav[3] utilizationEnergyMaintenance 497310.7888298
scalar OsgEarthNet.uav[3] utilizationEnergyCharge 1427958.310791
scalar OsgEarthNet.uav[3] utilizationEnergyOverdrawMission 0
scalar OsgEarthNet.uav[3] utilizationEnergyOverdrawMaintenance 0
scalar OsgEarthNet.uav[3] utilizationCountMissions 333
scalar OsgEarthNet.uav[3] utilizationCountManeuversMission 6239
scalar OsgEarthNet.uav[3] utilizationCountManeuversMaintenance 667
scalar OsgEarthNet.uav[3] utilizationCountChargeState 333
scalar OsgEarthNet.uav[3] utilizationCountOverdrawnAfterMission 0
scalar OsgEarthNet.uav[3] utilizationCountIdleState 2
scalar OsgEarthNet.uav[3] utilizationFail 0
scalar OsgEarthNet.uav[3] simulationTime 1209600
scalar OsgEarthNet.uav[4] utilizationSecMission 200784.75275903
scalar OsgEarthNet.uav[4] utilizationSecMaintenance 97306.892638087
scalar OsgEarthNet.uav[4] utilizationSecCharge 909580
scalar OsgEarthNet.uav[4] utilizationSecIdle 1928.3536028792
scalar OsgEarthNet.uav[4] utilizationEnergyMission 970322.13900134
scalar OsgEarthNet.uav[4] utilizationEnergyMaintenance 454664.62018967
scalar OsgEarthNet.uav[4] utilizationEnergyCharge 1423712.0566406
scalar OsgEarthNet.uav[4] utilizationEnergyOverdrawMission 0
scalar OsgEarthNet.uav[4] utilizationEnergyOverdrawMaintenance 0
scalar OsgEarthNet.uav[4] utilizationCountMissions 326
scalar OsgEarthNet.uav[4] utilizationCountManeuversMission 6101
scalar OsgEarthNet.uav[4] utilizationCountManeuversMaintenance 653
scalar OsgEarthNet.uav[4] utilizationCountChargeState 326
scalar OsgEarthNet.uav[4] utilizationCountOverdrawnAfterMission 0
scalar OsgEarthNet.uav[4] utilizationCountIdleState 3
scalar OsgEarthNet.uav[4] utilizationFail 0
scalar OsgEarthNet.uav[4] simulationTime 1209600
scalar OsgEarthNet.uav[5] utilizationSecMission 192843.53897
scalar OsgEarthNet.uav[5] utilizationSecMaintenance 106110.44155111
scalar OsgEarthNet.uav[5] utilizationSecCharge 909791.52053771
scalar OsgEarthNet.uav[5] utilizationSecIdle 854.49794117561
scalar OsgEarthNet.uav[5] utilizationEnergyMission 927926.41003036
scalar OsgEarthNet.uav[5] utilizationEnergyMaintenance 499258.29851151
scalar OsgEarthNet.uav[5] utilizationEnergyCharge 1429513.4494629
scalar OsgEarthNet.uav[5] utilizationEnergyOverdrawMission 0
scalar OsgEarthNet.uav[5] utilizationEnergyOverdrawMaintenance 0
scalar OsgEarthNet.uav[5] utilizationCountMissions 339
scalar OsgEarthNet.uav[5] utilizationCountManeuversMission 5600
scalar OsgEarthNet.uav[5] utilizationCountManeuversMaintenance 678
scalar OsgEarthNet.uav[5] utilizationCountChargeState 339
scalar OsgEarthNet.uav[5] utilizationCountOverdrawnAfterMission 0
scalar OsgEarthNet.uav[5] utilizationCountIdleState 1
scalar OsgEarthNet.uav[5] utilizationFail 0
scalar OsgEarthNet.uav[5] simulationTime 1209600
scalar OsgEarthNet.uav[6] utilizationSecMission 188597.63384339
scalar OsgEarthNet.uav[6] utilizationSecMaintenance 111758.66995165
scalar OsgEarthNet.uav[6] utilizationSecCharge 908687.07652683
scalar OsgEarthNet.uav[6] utilizationSecIdle 556.61867814046
scalar OsgEarthNet.uav[6] utilizationEnergyMission 919970.41957092
scalar OsgEarthNet.uav[6] utilizationEnergyMaintenance 524539.76481247
scalar OsgEarthNet.uav[6] utilizationEnergyCharge 1441105.0883789
scalar OsgEarthNet.uav[6] utilizationEnergyOverdrawMission 0
scalar OsgEarthNet.uav[6] utilizationEnergyOverdrawMaintenance 0
scalar OsgEarthNet.uav[6] utilizationCountMissions 339
scalar OsgEarthNet.uav[6] utilizationCountManeuversMission 6123
scalar OsgEarthNet.uav[6] utilizationCountManeuversMaintenance 678
scalar OsgEarthNet.uav[6] utilizationCountChargeState 339
scalar OsgEarthNet.uav[6] utilizationCountOverdrawnAfterMission 0
scalar OsgEarthNet.uav[6] utilizationCountIdleState 2
scalar OsgEarthNet.uav[6] utilizationFail 0
scalar OsgEarthNet.uav[6] simulationTime 1209600
scalar OsgEarthNet.uav[7] utilizationSecMission 192425.98541392
scalar OsgEarthNet.uav[7] utilizationSecMaintenance 102834.21336748
scalar OsgEarthNet.uav[7] utilizationSecCharge 911690
scalar OsgEarthNet.uav[7] utilizationSecIdle 2649.8002186065
scalar OsgEarthNet.uav[7] utilizationEnergyMission 932175.73663494
scalar OsgEarthNet.uav[7] utilizationEnergyMaintenance 482850.74887466
scalar OsgEarthNet.uav[7] utilizationEnergyCharge 1415438.7519531
scalar OsgEarthNet.uav[7] utilizationEnergyOverdrawMission 0
scalar OsgEarthNet.uav[7] utilizationEnergyOverdrawMaintenance 0
scalar OsgEarthNet.uav[7] utilizationCountMissions 334
scalar OsgEarthNet.uav[7] utilizationCountManeuversMission 5768
scalar OsgEarthNet.uav[7] utilizationCountManeuversMaintenance 669
scalar OsgEarthNet.uav[7] utilizationCountChargeState 334
scalar OsgEarthNet.uav[7] utilizationCountOverdrawnAfterMission 0
scalar OsgEarthNet.uav[7] utilizationCountIdleState 2
scalar OsgEarthNet.uav[7] utilizationFail 0
scalar OsgEarthNet.uav[7] simulationTime 1209600
scalar OsgEarthNet.uav[8] utilizationSecMission 200507.60347636
scalar OsgEarthNet.uav[8] utilizationSecMaintenance 97768.952093822
scalar OsgEarthNet.uav[8] utilizationSecCharge 909361.44042981
scalar OsgEarthNet.uav[8] utilizationSecIdle 1962.003
scalar OsgEarthNet.uav[8] utilizationEnergyMission 972508.30070496
scalar OsgEarthNet.uav[8] utilizationEnergyMaintenance 455954.42110062
scalar OsgEarthNet.uav[8] utilizationEnergyCharge 1420103.5377808
scalar OsgEarthNet.uav[8] utilizationEnergyOverdrawMission 0
scalar OsgEarthNet.uav[8] utilizationEnergyOverdrawMaintenance 0
scalar OsgEarthNet.uav[8] utilizationCountMissions 330
scalar OsgEarthNet.uav[8] utilizationCountManeuversMission 6269
scalar OsgEarthNet.uav[8] utilizationCountManeuversMaintenance 660
scalar OsgEarthNet.uav[8] utilizationCountChargeState 330
scalar OsgEarthNet.uav[8] utilizationCountOverdrawnAfterMission 0
scalar OsgEarthNet.uav[8] utilizationCountIdleState 1
scalar OsgEarthNet.uav[8] utilizationFail 0
scalar OsgEarthNet.uav[8] simulationTime 1209600
scalar OsgEarthNet.uav[9] utilizationSecMission 201256.6463324
scalar OsgEarthNet.uav[9] utilizationSecMaintenance 96983.672298597
scalar OsgEarthNet.uav[9] utilizationSecCharge 909097.675369
scalar OsgEarthNet.uav[9] utilizationSecIdle 2262.005
scalar OsgEarthNet.uav[9] utilizationEnergyMission 974296.41435623
scalar OsgEarthNet.uav[9] utilizationEnergyMaintenance 453680.3265419
scalar OsgEarthNet.uav[9] utilizationEnergyCharge 1425421.2458496
scalar OsgEarthNet.uav[9] utilizationEnergyOverdrawMission 0
scalar OsgEarthNet.uav[9] utilizationEnergyOverdrawMaintenance 0
scalar OsgEarthNet.uav[9] utilizationCountMissions 329
scalar OsgEarthNet.uav[9] utilizationCountManeuversMission 5992
scalar OsgEarthNet.uav[9] utilizationCountManeuversMaintenance 658
scalar OsgEarthNet.uav[9] utilizationCountChargeState 329
scalar OsgEarthNet.uav[9] utilizationCountOverdrawnAfterMission 0
scalar OsgEarthNet.uav[9] utilizationCountIdleState 2
scalar OsgEarthNet.uav[9] utilizationFail 0
scalar OsgEarthNet.uav[9] simulationTime 1209600
scalar OsgEarthNet.uav[10] utilizationSecMission 186115.76472374
scalar OsgEarthNet.uav[10] utilizationSecMaintenance 108302.3217358
scalar OsgEarthNet.uav[10] utilizationSecCharge 914289.91054046
scalar OsgEarthNet.uav[10] utilizationSecIdle 892.002
scalar OsgEarthNet.uav[10] utilizationEnergyMission 894936.56839752
scalar OsgEarthNet.uav[10] utilizationEnergyMaintenance 513935.58595657
scalar OsgEarthNet.uav[10] utilizationEnergyCharge 1407357.8666992
scalar OsgEarthNet.uav[10] utilizationEnergyOverdrawMission 0
scalar OsgEarthNet.uav[10] utilizationEnergyOverdrawMaintenance 0
scalar OsgEarthNet.uav[10] utilizationCountMissions 342
scalar OsgEarthNet.uav[10] utilizationCountManeuversMission 5513
scalar OsgEarthNet.uav[10] utilizationCountManeuversMaintenance 684
scalar OsgEarthNet.uav[10] utilizationCountChargeState 342
scalar OsgEarthNet.uav[10] utilizationCountOverdrawnAfterMission 0
scalar OsgEarthNet.uav[10] utilizationCountIdleState 2
scalar OsgEarthNet.uav[10] utilizationFail 0
scalar OsgEarthNet.uav[10] simulationTime 1209600
scalar OsgEarthNet.uav[11] utilizationSecMission 188768.25901968
scalar OsgEarthNet.uav[11] utilizationSecMaintenance 112709.73998032
scalar OsgEarthNet.uav[11] utilizationSecCharge 908040
scalar OsgEarthNet.uav[11] utilizationSecIdle 82
scalar OsgEarthNet.uav[11] utilizationEnergyMission 917193.5944456
scalar OsgEarthNet.uav[11] utilizationEnergyMaintenance 532817.92975235
scalar OsgEarthNet.uav[11] utilizationEnergyCharge 1449429.284668
scalar OsgEarthNet.uav[11] utilizationEnergyOverdrawMission 0
scalar OsgEarthNet.uav[11] utilizationEnergyOverdrawMaintenance 0
scalar OsgEarthNet.uav[11] utilizationCountMissions 338
scalar OsgEarthNet.uav[11] utilizationCountManeuversMission 6023
scalar OsgEarthNet.uav[11] utilizationCountManeuversMaintenance 677
scalar OsgEarthNet.uav[11] utilizationCountChargeState 338
scalar OsgEarthNet.uav[11] utilizationCountOverdrawnAfterMission 0
scalar OsgEarthNet.uav[11] utilizationCountIdleState 2
scalar OsgEarthNet.uav[11] utilizationFail 0
scalar OsgEarthNet.uav[11] simulationTime 1209600
scalar OsgEarthNet.uav[12] utilizationSecMission 196199.32575329
scalar OsgEarthNet.uav[12] utilizationSecMaintenance 105364.01354764
scalar OsgEarthNet.uav[12] utilizationSecCharge 906714.65769907
scalar OsgEarthNet.uav[12] utilizationSecIdle 1322.002
scalar OsgEarthNet.uav[12] utilizationEnergyMission 951986.68106842
scalar OsgEarthNet.uav[12] utilizationEnergyMaintenance 492647.53754425
scalar OsgEarthNet.uav[12] utilizationEnergyCharge 1443722.7939453
scalar OsgEarthNet.uav[12] utilizationEnergyOverdrawMission 0
scalar OsgEarthNet.uav[12] utilizationEnergyOverdrawMaintenance 0
scalar OsgEarthNet.uav[12] utilizationCountMissions 333
scalar OsgEarthNet.uav[12] utilizationCountManeuversMission 6201
scalar OsgEarthNet.uav[12] utilizationCountManeuversMaintenance 666
scalar OsgEarthNet.uav[12] utilizationCountChargeState 333
scalar OsgEarthNet.uav[12] utilizationCountOverdrawnAfterMission 0
scalar OsgEarthNet.uav[12] utilizationCountIdleState 2
scalar OsgEarthNet.uav[12] utilizationFail 0
scalar OsgEarthNet.uav[12] simulationTime 1209600
scalar OsgEarthNet.uav[13] utilizationSecMission 189750.44782868
scalar OsgEarthNet.uav[13] utilizationSecMaintenance 106016.35786453
scalar OsgEarthNet.uav[13] utilizationSecCharge 910924.61264991
scalar OsgEarthNet.uav[13] utilizationSecIdle 2908.5806568717
scalar OsgEarthNet.uav[13] utilizationEnergyMission 920731.77830887
scalar OsgEarthNet.uav[13] utilizationEnergyMaintenance 499740.63093185
scalar OsgEarthNet.uav[13] utilizationEnergyCharge 1417718.9306641
scalar OsgEarthNet.uav[13] utilizationEnergyOverdrawMission 0
scalar OsgEarthNet.uav[13] utilizationEnergyOverdrawMaintenance 0
scalar OsgEarthNet.uav[13] utilizationCountMissions 337
scalar OsgEarthNet.uav[13] utilizationCountManeuversMission 6078
scalar OsgEarthNet.uav[13] utilizationCountManeuversMaintenance 674
scalar OsgEarthNet.uav[13] utilizationCountChargeState 337
scalar OsgEarthNet.uav[13] utilizationCountOverdrawnAfterMission 0
scalar OsgEarthNet.uav[13] utilizationCountIdleState 2
scalar OsgEarthNet.uav[13] utilizationFail 0
scalar OsgEarthNet.uav[13] simulationTime 1209600
scalar OsgEarthNet.uav[14] utilizationSecMission 194016.71923088
scalar OsgEarthNet.uav[14] utilizationSecMaintenance 103899.04842023
scalar OsgEarthNet.uav[14] utilizationSecCharge 910792.22984217
scalar OsgEarthNet.uav[14] utilizationSecIdle 892.00150672213
scalar OsgEarthNet.uav[14] utilizationEnergyMission 944770.61388016
scalar OsgEarthNet.uav[14] utilizationEnergyMaintenance 485441.35266113
scalar OsgEarthNet.uav[14] utilizationEnergyCharge 1422677.9985352
scalar OsgEarthNet.uav[14] utilizationEnergyOverdrawMission 0
scalar OsgEarthNet.uav[14] utilizationEnergyOverdrawMaintenance 0
scalar OsgEarthNet.uav[14] utilizationCountMissions 335
scalar OsgEarthNet.uav[14] utilizationCountManeuversMission 6114
scalar OsgEarthNet.uav[14] utilizationCountManeuversMaintenance 670
scalar OsgEarthNet.uav[14] utilizationCountChargeState 335
scalar OsgEarthNet.uav[14] utilizationCountOverdrawnAfterMission 0
scalar OsgEarthNet.uav[14] utilizationCountIdleState 1
scalar OsgEarthNet.uav[14] utilizationFail 0
scalar OsgEarthNet.uav[14] simulationTime 1209600
scalar OsgEarthNet.uav[15] utilizationSecMission 194568.54976263
scalar OsgEarthNet.uav[15] utilizationSecMaintenance 107809.16512509
scalar OsgEarthNet.uav[15] utilizationSecCharge 906163.31539663
scalar OsgEarthNet.uav[15] utilizationSecIdle 1058.9687156399
scalar OsgEarthNet.uav[15] utilizationEnergyMission 951378.67352676
scalar OsgEarthNet.uav[15] utilizationEnergyMaintenance 503313.83341598
scalar OsgEarthNet.uav[15] utilizationEnergyCharge 1459246.6003418
scalar OsgEarthNet.uav[15] utilizationEnergyOverdrawMission 0
scalar OsgEarthNet.uav[15] utilizationEnergyOverdrawMaintenance 0
scalar OsgEarthNet.uav[15] utilizationCountMissions 334
scalar OsgEarthNet.uav[15] utilizationCountManeuversMission 6855
scalar OsgEarthNet.uav[15] utilizationCountManeuversMaintenance 668
scalar OsgEarthNet.uav[15] utilizationCountChargeState 334
scalar OsgEarthNet.uav[15] utilizationCountOverdrawnAfterMission 0
scalar OsgEarthNet.uav[15] utilizationCountIdleState 1
scalar OsgEarthNet.uav[15] utilizationFail 0
scalar OsgEarthNet.uav[15] simulationTime 1209600
scalar OsgEarthNet.uav[16] utilizationSecMission 184068.8890285
scalar OsgEarthNet.uav[16] utilizationSecMaintenance 111462.27827455
scalar OsgEarthNet.uav[16] utilizationSecCharge 912706.82869695
scalar OsgEarthNet.uav[16] utilizationSecIdle 1362.003
scalar OsgEarthNet.uav[16] utilizationEnergyMission 895975.00390625
scalar OsgEarthNet.uav[16] utilizationEnergyMaintenance 527217.18003464
scalar OsgEarthNet.uav[16] utilizationEnergyCharge 1417498.6201172
scalar OsgEarthNet.uav[16] utilizationEnergyOverdrawMission 0
scalar OsgEarthNet.uav[16] utilizationEnergyOverdrawMaintenance 0
scalar OsgEarthNet.uav[16] utilizationCountMissions 342
scalar OsgEarthNet.uav[16] utilizationCountManeuversMission 5467
scalar OsgEarthNet.uav[16] utilizationCountManeuversMaintenance 684
scalar OsgEarthNet.uav[16] utilizationCountChargeState 342
scalar OsgEarthNet.uav[16] utilizationCountOverdrawnAfterMission 0
scalar OsgEarthNet.uav[16] utilizationCountIdleState 1
scalar OsgEarthNet.uav[16] utilizationFail 0
scalar OsgEarthNet.uav[16] simulationTime 1209600
scalar OsgEarthNet.uav[17] utilizationSecMission 205301.05131589
scalar OsgEarthNet.uav[17] utilizationSecMaintenance 96091.694028127
scalar OsgEarthNet.uav[17] utilizationSecCharge 906231.8125673
scalar OsgEarthNet.uav[17] utilizationSecIdle 1975.4410886909
scalar OsgEarthNet.uav[17] utilizationEnergyMission 992909.27129364
scalar OsgEarthNet.uav[17] utilizationEnergyMaintenance 442347.44020843
scalar OsgEarthNet.uav[17] utilizationEnergyCharge 1436881.6279297
scalar OsgEarthNet.uav[17] utilizationEnergyOverdrawMission 0
scalar OsgEarthNet.uav[17] utilizationEnergyOverdrawMaintenance 0
scalar OsgEarthNet.uav[17] utilizationCountMissions 326
scalar OsgEarthNet.uav[17] utilizationCountManeuversMission 6335
scalar OsgEarthNet.uav[17] utilizationCountManeuversMaintenance 652
scalar OsgEarthNet.uav[17] utilizationCountChargeState 326
scalar OsgEarthNet.uav[17] utilizationCountOverdrawnAfterMission 0
scalar OsgEarthNet.uav[17] utilizationCountIdleState 2
scalar OsgEarthNet.uav[17] utilizationFail 0
scalar OsgEarthNet.uav[17] simulationTime 1209600
scalar OsgEarthNet.uav[18] utilizationSecMission 191456.09872273
scalar OsgEarthNet.uav[18] utilizationSecMaintenance 107942.44341127
scalar OsgEarthNet.uav[18] utilizationSecCharge 909699.45586599
scalar OsgEarthNet.uav[18] utilizationSecIdle 502.001
scalar OsgEarthNet.uav[18] utilizationEnergyMission 926211.34926605
scalar OsgEarthNet.uav[18] utilizationEnergyMaintenance 510560.06281662
scalar OsgEarthNet.uav[18] utilizationEnergyCharge 1430384.7224121
scalar OsgEarthNet.uav[18] utilizationEnergyOverdrawMission 0
scalar OsgEarthNet.uav[18] utilizationEnergyOverdrawMaintenance 0
scalar OsgEarthNet.uav[18] utilizationCountMissions 339
scalar OsgEarthNet.uav[18] utilizationCountManeuversMission 5606
scalar OsgEarthNet.uav[18] utilizationCountManeuversMaintenance 678
scalar OsgEarthNet.uav[18] utilizationCountChargeState 339
scalar OsgEarthNet.uav[18] utilizationCountOverdrawnAfterMission 0
scalar OsgEarthNet.uav[18] utilizationCountIdleState 1
scalar OsgEarthNet.uav[18] utilizationFail 0
scalar OsgEarthNet.uav[18] simulationTime 1209600
scalar OsgEarthNet.uav[19] utilizationSecMission 202557.22678733
scalar OsgEarthNet.uav[19] utilizationSecMaintenance 99125.720485349
scalar OsgEarthNet.uav[19] utilizationSecCharge 907815.05172732
scalar OsgEarthNet.uav[19] utilizationSecIdle 102
scalar OsgEarthNet.uav[19] utilizationEnergyMission 987866.96146011
scalar OsgEarthNet.uav[19] utilizationEnergyMaintenance 461476.05405045
scalar OsgEarthNet.uav[19] utilizationEnergyCharge 1444637.9667969
scalar OsgEarthNet.uav[19] utilizationEnergyOverdrawMission 0
scalar OsgEarthNet.uav[19] utilizationEnergyOverdrawMaintenance 0
scalar OsgEarthNet.uav[19] utilizationCountMissions 329
scalar OsgEarthNet.uav[19] utilizationCountManeuversMission 6449
scalar OsgEarthNet.uav[19] utilizationCountManeuversMaintenance 658
scalar OsgEarthNet.uav[19] utilizationCountChargeState 329
scalar OsgEarthNet.uav[19] utilizationCountOverdrawnAfterMission 0
scalar OsgEarthNet.uav[19] utilizationCountIdleState 2
scalar OsgEarthNet.uav[19] utilizationFail 0
scalar OsgEarthNet.uav[19] simulationTime 1209600
scalar OsgEarthNet.uav[20] utilizationSecMission 197429.39510864
scalar OsgEarthNet.uav[20] utilizationSecMaintenance 102884.15028401
scalar OsgEarthNet.uav[20] utilizationSecCharge 906562.49556781
scalar OsgEarthNet.uav[20] utilizationSecIdle 2723.9580395329
scalar OsgEarthNet.uav[20] utilizationEnergyMission 964454.70134354
scalar OsgEarthNet.uav[20] utilizationEnergyMaintenance 480393.15733719
scalar OsgEarthNet.uav[20] utilizationEnergyCharge 1438118.0582886
scalar OsgEarthNet.uav[20] utilizationEnergyOverdrawMission 0
scalar OsgEarthNet.uav[20] utilizationEnergyOverdrawMaintenance 0
scalar OsgEarthNet.uav[20] utilizationCountMissions 331
scalar OsgEarthNet.uav[20] utilizationCountManeuversMission 6455
scalar OsgEarthNet.uav[20] utilizationCountManeuversMaintenance 662
scalar OsgEarthNet.uav[20] utilizationCountChargeState 331
scalar OsgEarthNet.uav[20] utilizationCountOverdrawnAfterMission 0
scalar OsgEarthNet.uav[20] utilizationCountIdleState 1
scalar OsgEarthNet.uav[20] utilizationFail 0
scalar OsgEarthNet.uav[20] simulationTime 1209600
scalar OsgEarthNet.uav[21] utilizationSecMission 185608.27827794
scalar OsgEarthNet.uav[21] utilizationSecMaintenance 113766.65954262
scalar OsgEarthNet.uav[21] utilizationSecCharge 909203.05917944
scalar OsgEarthNet.uav[21] utilizationSecIdle 1022.002
scalar OsgEarthNet.uav[21] utilizationEnergyMission 906143.84521866
scalar OsgEarthNet.uav[21] utilizationEnergyMaintenance 536710.7162056
scalar OsgEarthNet.uav[21] utilizationEnergyCharge 1436836.3540649
scalar OsgEarthNet.uav[21] utilizationEnergyOverdrawMission 0
scalar OsgEarthNet.uav[21] utilizationEnergyOverdrawMaintenance 0
scalar OsgEarthNet.uav[21] utilizationCountMissions 341
scalar OsgEarthNet.uav[21] utilizationCountManeuversMission 5840
scalar OsgEarthNet.uav[21] utilizationCountManeuversMaintenance 682
scalar OsgEarthNet.uav[21] utilizationCountChargeState 341
scalar OsgEarthNet.uav[21] utilizationCountOverdrawnAfterMission 0
scalar OsgEarthNet.uav[21] utilizationCountIdleState 1
scalar OsgEarthNet.uav[21] utilizationFail 0
scalar OsgEarthNet.uav[21] simulationTime 1209600
scalar OsgEarthNet.uav[22] utilizationSecMission 189284.00513994
scalar OsgEarthNet.uav[22] utilizationSecMaintenance 105502.27021037
scalar OsgEarthNet.uav[22] utilizationSecCharge 914761.72364968
scalar OsgEarthNet.uav[22] utilizationSecIdle 52
scalar OsgEarthNet.uav[22] utilizationEnergyMission 924345.9883194
scalar OsgEarthNet.uav[22] utilizationEnergyMaintenance 494961.70313644
scalar OsgEarthNet.uav[22] utilizationEnergyCharge 1417047.5605469
scalar OsgEarthNet.uav[22] utilizationEnergyOverdrawMission 0
scalar OsgEarthNet.uav[22] utilizationEnergyOverdrawMaintenance 0
scalar OsgEarthNet.uav[22] utilizationCountMissions 336
scalar OsgEarthNet.uav[22] utilizationCountManeuversMission 6290
scalar OsgEarthNet.uav[22] utilizationCountManeuversMaintenance 672
scalar OsgEarthNet.uav[22] utilizationCountChargeState 336
scalar OsgEarthNet.uav[22] utilizationCountOverdrawnAfterMission 0
scalar OsgEarthNet.uav[22] utilizationCountIdleState 2
scalar OsgEarthNet.uav[22] utilizationFail 0
scalar OsgEarthNet.uav[22] simulationTime 1209600
scalar OsgEarthNet.uav[23] utilizationSecMission 192958.11628979
scalar OsgEarthNet.uav[23] utilizationSecMaintenance 103574.49625314
scalar OsgEarthNet.uav[23] utilizationSecCharge 910070
scalar OsgEarthNet.uav[23] utilizationSecIdle 2997.3864570703
scalar OsgEarthNet.uav[23] utilizationEnergyMission 937608.12585072
scalar OsgEarthNet.uav[23] utilizationEnergyMaintenance 486516.53129196
scalar OsgEarthNet.uav[23] utilizationEnergyCharge 1423224.8833008
scalar OsgEarthNet.uav[23] utilizationEnergyOverdrawMission 0
scalar OsgEarthNet.uav[23] utilizationEnergyOverdrawMaintenance 0
scalar OsgEarthNet.uav[23] utilizationCountMissions 333
scalar OsgEarthNet.uav[23] utilizationCountManeuversMission 6189
scalar OsgEarthNet.uav[23] utilizationCountManeuversMaintenance 667
scalar OsgEarthNet.uav[23] utilizationCountChargeState 333
scalar OsgEarthNet.uav[23] utilizationCountOverdrawnAfterMission 0
scalar OsgEarthNet.uav[23] utilizationCountIdleState 2
scalar OsgEarthNet.uav[23] utilizationFail 0
scalar OsgEarthNet.uav[23] simulationTime 1209600
scalar OsgEarthNet.uav[24] utilizationSecMission 189757.54398794
scalar OsgEarthNet.uav[24] utilizationSecMaintenance 102434.68448199
scalar OsgEarthNet.uav[24] utilizationSecCharge 914822.32744138
scalar OsgEarthNet.uav[24] utilizationSecIdle 2585.443088691
scalar OsgEarthNet.uav[24] utilizationEnergyMission 916534.70370483
scalar OsgEarthNet.uav[24] utilizationEnergyMaintenance 485512.25183105
scalar OsgEarthNet.uav[24] utilizationEnergyCharge 1400259.251709
scalar OsgEarthNet.uav[24] utilizationEnergyOverdrawMission 0
scalar OsgEarthNet.uav[24] utilizationEnergyOverdrawMaintenance 0
scalar OsgEarthNet.uav[24] utilizationCountMissions 332
scalar OsgEarthNet.uav[24] utilizationCountManeuversMission 5562
scalar OsgEarthNet.uav[24] utilizationCountManeuversMaintenance 664
scalar OsgEarthNet.uav[24] utilizationCountChargeState 332
scalar OsgEarthNet.uav[24] utilizationCountOverdrawnAfterMission 0
scalar OsgEarthNet.uav[24] utilizationCountIdleState 2
scalar OsgEarthNet.uav[24] utilizationFail 0
scalar OsgEarthNet.uav[24] simulationTime 1209600
scalar OsgEarthNet.uav[25] utilizationSecMission 207239.10069218
scalar OsgEarthNet.uav[25] utilizationSecMaintenance 95993.376872721
scalar OsgEarthNet.uav[25] utilizationSecCharge 904896.06847638
scalar OsgEarthNet.uav[25] utilizationSecIdle 1471.4529587171
scalar OsgEarthNet.uav[25] utilizationEnergyMission 1002426.776741
scalar OsgEarthNet.uav[25] utilizationEnergyMaintenance 445376.54105759
scalar OsgEarthNet.uav[25] utilizationEnergyCharge 1442456.2752686
scalar OsgEarthNet.uav[25] utilizationEnergyOverdrawMission 0
scalar OsgEarthNet.uav[25] utilizationEnergyOverdrawMaintenance 0
scalar OsgEarthNet.uav[25] utilizationCountMissions 327
scalar OsgEarthNet.uav[25] utilizationCountManeuversMission 6307
scalar OsgEarthNet.uav[25] utilizationCountManeuversMaintenance 654
scalar OsgEarthNet.uav[25] utilizationCountChargeState 327
scalar OsgEarthNet.uav[25] utilizationCountOverdrawnAfterMission 0
scalar OsgEarthNet.uav[25] utilizationCountIdleState 1
scalar OsgEarthNet.uav[25] utilizationFail 0
scalar OsgEarthNet.uav[25] simulationTime 1209600
scalar OsgEarthNet.uav[26] utilizationSecMission 182438.41205859
scalar OsgEarthNet.uav[26] utilizationSecMaintenance 113074.37422789
scalar OsgEarthNet.uav[26] utilizationSecCharge 911586.26445786
scalar OsgEarthNet.uav[26] utilizationSecIdle 2500.9482556647
scalar OsgEarthNet.uav[26] utilizationEnergyMission 874674.34174347
scalar OsgEarthNet.uav[26] utilizationEnergyMaintenance 536538.22026443
scalar OsgEarthNet.uav[26] utilizationEnergyCharge 1411542.614502
scalar OsgEarthNet.uav[26] utilizationEnergyOverdrawMission 0
scalar OsgEarthNet.uav[26] utilizationEnergyOverdrawMaintenance 0
scalar OsgEarthNet.uav[26] utilizationCountMissions 347
scalar OsgEarthNet.uav[26] utilizationCountManeuversMission 5471
scalar OsgEarthNet.uav[26] utilizationCountManeuversMaintenance 694
scalar OsgEarthNet.uav[26] utilizationCountChargeState 347
scalar OsgEarthNet.uav[26] utilizationCountOverdrawnAfterMission 0
scalar OsgEarthNet.uav[26] utilizationCountIdleState 1
scalar OsgEarthNet.uav[26] utilizationFail 0
scalar OsgEarthNet.uav[26] simulationTime 1209600
scalar OsgEarthNet.uav[27] utilizationSecMission 193119.41000362
scalar OsgEarthNet.uav[27] utilizationSecMaintenance 102409.36152878
scalar OsgEarthNet.uav[27] utilizationSecCharge 913539.2264676
scalar OsgEarthNet.uav[27] utilizationSecIdle 532.001
scalar OsgEarthNet.uav[27] utilizationEnergyMission 935152.16773987
scalar OsgEarthNet.uav[27] utilizationEnergyMaintenance 481710.61741638
scalar OsgEarthNet.uav[27] utilizationEnergyCharge 1416120.8378906
scalar OsgEarthNet.uav[27] utilizationEnergyOverdrawMission 0
scalar OsgEarthNet.uav[27] utilizationEnergyOverdrawMaintenance 0
scalar OsgEarthNet.uav[27] utilizationCountMissions 334
scalar OsgEarthNet.uav[27] utilizationCountManeuversMission 5925
scalar OsgEarthNet.uav[27] utilizationCountManeuversMaintenance 668
scalar OsgEarthNet.uav[27] utilizationCountChargeState 334
scalar OsgEarthNet.uav[27] utilizationCountOverdrawnAfterMission 0
scalar OsgEarthNet.uav[27] utilizationCountIdleState 2
scalar OsgEarthNet.uav[27] utilizationFail 0
scalar OsgEarthNet.uav[27] simulationTime 1209600
scalar OsgEarthNet.uav[28] utilizationSecMission 191536.07647618
scalar OsgEarthNet.uav[28] utilizationSecMaintenance 108452.45544629
scalar OsgEarthNet.uav[28] utilizationSecCharge 908479.46507753
scalar OsgEarthNet.uav[28] utilizationSecIdle 1132.002
scalar OsgEarthNet.uav[28] utilizationEnergyMission 929743.52728271
scalar OsgEarthNet.uav[28] utilizationEnergyMaintenance 507587.045784
scalar OsgEarthNet.uav[28] utilizationEnergyCharge 1432964.5002441
scalar OsgEarthNet.uav[28] utilizationEnergyOverdrawMission 0
scalar OsgEarthNet.uav[28] utilizationEnergyOverdrawMaintenance 0
scalar OsgEarthNet.uav[28] utilizationCountMissions 336
scalar OsgEarthNet.uav[28] utilizationCountManeuversMission 6028
scalar OsgEarthNet.uav[28] utilizationCountManeuversMaintenance 672
scalar OsgEarthNet.uav[28] utilizationCountChargeState 336
scalar OsgEarthNet.uav[28] utilizationCountOverdrawnAfterMission 0
scalar OsgEarthNet.uav[28] utilizationCountIdleState 3
scalar OsgEarthNet.uav[28] utilizationFail 0
scalar OsgEarthNet.uav[28] simulationTime 1209600
scalar OsgEarthNet.uav[29] utilizationSecMission 201022.18034355
scalar OsgEarthNet.uav[29] utilizationSecMaintenance 97800.103831275
scalar OsgEarthNet.uav[29] utilizationSecCharge 910755.71482518
scalar OsgEarthNet.uav[29] utilizationSecIdle 22
scalar OsgEarthNet.uav[29] utilizationEnergyMission 972485.50174713
scalar OsgEarthNet.uav[29] utilizationEnergyMaintenance 456085.47402573
scalar OsgEarthNet.uav[29] utilizationEnergyCharge 1428128.697998
scalar OsgEarthNet.uav[29] utilizationEnergyOverdrawMission 0
scalar OsgEarthNet.uav[29] utilizationEnergyOverdrawMaintenance 0
scalar OsgEarthNet.uav[29] utilizationCountMissions 328
scalar OsgEarthNet.uav[29] utilizationCountManeuversMission 6327
scalar OsgEarthNet.uav[29] utilizationCountManeuversMaintenance 655
scalar OsgEarthNet.uav[29] utilizationCountChargeState 328
scalar OsgEarthNet.uav[29] utilizationCountOverdrawnAfterMission 0
scalar OsgEarthNet.uav[29] utilizationCountIdleState 2
scalar OsgEarthNet.uav[29] utilizationFail 0
scalar OsgEarthNet.uav[29] simulationTime 1209600
scalar OsgEarthNet.uav[30] utilizationSecMission 195982.02004584
scalar OsgEarthNet.uav[30] utilizationSecMaintenance 105649.07755975
scalar OsgEarthNet.uav[30] utilizationSecCharge 907526.90039441
scalar OsgEarthNet.uav[30] utilizationSecIdle 442.001
scalar OsgEarthNet.uav[30] utilizationEnergyMission 960408.18186951
scalar OsgEarthNet.uav[30] utilizationEnergyMaintenance 492729.74346924
scalar OsgEarthNet.uav[30] utilizationEnergyCharge 1447797.185791
scalar OsgEarthNet.uav[30] utilizationEnergyOverdrawMission 0
scalar OsgEarthNet.uav[30] utilizationEnergyOverdrawMaintenance 0
scalar OsgEarthNet.uav[30] utilizationCountMissions 334
scalar OsgEarthNet.uav[30] utilizationCountManeuversMission 6490
scalar OsgEarthNet.uav[30] utilizationCountManeuversMaintenance 668
scalar OsgEarthNet.uav[30] utilizationCountChargeState 334
scalar OsgEarthNet.uav[30] utilizationCountOverdrawnAfterMission 0
scalar OsgEarthNet.uav[30] utilizationCountIdleState 1
scalar OsgEarthNet.uav[30] utilizationFail 0
scalar OsgEarthNet.uav[30] simulationTime 1209600
scalar OsgEarthNet.uav[31] utilizationSecMission 193504.17836936
scalar OsgEarthNet.uav[31] utilizationSecMaintenance 104621.20874112
scalar OsgEarthNet.uav[31] utilizationSecCharge 910890
scalar OsgEarthNet.uav[31] utilizationSecIdle 584.61188951643
scalar OsgEarthNet.uav[31] utilizationEnergyMission 941316.84340426
scalar OsgEarthNet.uav[31] utilizationEnergyMaintenance 489487.11585617
scalar OsgEarthNet.uav[31] utilizationEnergyCharge 1431827.9711914
scalar OsgEarthNet.uav[31] utilizationEnergyOverdrawMission 0
scalar OsgEarthNet.uav[31] utilizationEnergyOverdrawMaintenance 0
scalar OsgEarthNet.uav[31] utilizationCountMissions 336
scalar OsgEarthNet.uav[31] utilizationCountManeuversMission 6178
scalar OsgEarthNet.uav[31] utilizationCountManeuversMaintenance 673
scalar OsgEarthNet.uav[31] utilizationCountChargeState 336
scalar OsgEarthNet.uav[31] utilizationCountOverdrawnAfterMission 0
scalar OsgEarthNet.uav[31] utilizationCountIdleState 1
scalar OsgEarthNet.uav[31] utilizationFail 0
scalar OsgEarthNet.uav[31] simulationTime 1209600
scalar OsgEarthNet.uav[32] utilizationSecMission 190739.7302648
scalar OsgEarthNet.uav[32] utilizationSecMaintenance 109046.79717602
scalar OsgEarthNet.uav[32] utilizationSecCharge 909034.25194526
scalar OsgEarthNet.uav[32] utilizationSecIdle 779.21961391566
scalar OsgEarthNet.uav[32] utilizationEnergyMission 926050.10242462
scalar OsgEarthNet.uav[32] utilizationEnergyMaintenance 513241.10472107
scalar OsgEarthNet.uav[32] utilizationEnergyCharge 1434716.6987305
scalar OsgEarthNet.uav[32] utilizationEnergyOverdrawMission 0
scalar OsgEarthNet.uav[32] utilizationEnergyOverdrawMaintenance 0
scalar OsgEarthNet.uav[32] utilizationCountMissions 339
scalar OsgEarthNet.uav[32] utilizationCountManeuversMission 6023
scalar OsgEarthNet.uav[32] utilizationCountManeuversMaintenance 678
scalar OsgEarthNet.uav[32] utilizationCountChargeState 339
scalar OsgEarthNet.uav[32] utilizationCountOverdrawnAfterMission 0
scalar OsgEarthNet.uav[32] utilizationCountIdleState 2
scalar OsgEarthNet.uav[32] utilizationFail 0
scalar OsgEarthNet.uav[32] simulationTime 1209600
scalar OsgEarthNet.uav[33] utilizationSecMission 195599.72046767
scalar OsgEarthNet.uav[33] utilizationSecMaintenance 103778.78219671
scalar OsgEarthNet.uav[33] utilizationSecCharge 907509.49033561
scalar OsgEarthNet.uav[33] utilizationSecIdle 2712.006
scalar OsgEarthNet.uav[33] utilizationEnergyMission 950308.00290298
scalar OsgEarthNet.uav[33] utilizationEnergyMaintenance 483328.00330353
scalar OsgEarthNet.uav[33] utilizationEnergyCharge 1429874.8537598
scalar OsgEarthNet.uav[33] utilizationEnergyOverdrawMission 0
scalar OsgEarthNet.uav[33] utilizationEnergyOverdrawMaintenance 0
scalar OsgEarthNet.uav[33] utilizationCountMissions 336
scalar OsgEarthNet.uav[33] utilizationCountManeuversMission 6170
scalar OsgEarthNet.uav[33] utilizationCountManeuversMaintenance 672
scalar OsgEarthNet.uav[33] utilizationCountChargeState 336
scalar OsgEarthNet.uav[33] utilizationCountOverdrawnAfterMission 0
scalar OsgEarthNet.uav[33] utilizationCountIdleState 2
scalar OsgEarthNet.uav[33] utilizationFail 0
scalar OsgEarthNet.uav[33] simulationTime 1209600
scalar OsgEarthNet.uav[34] utilizationSecMission 191246.28007955
scalar OsgEarthNet.uav[34] utilizationSecMaintenance 105801.71392045
scalar OsgEarthNet.uav[34] utilizationSecCharge 909790
scalar OsgEarthNet.uav[34] utilizationSecIdle 2762.005
scalar OsgEarthNet.uav[34] utilizationEnergyMission 921214.07818985
scalar OsgEarthNet.uav[34] utilizationEnergyMaintenance 496418.24783372
scalar OsgEarthNet.uav[34] utilizationEnergyCharge 1416367.3305664
scalar OsgEarthNet.uav[34] utilizationEnergyOverdrawMission 0
scalar OsgEarthNet.uav[34] utilizationEnergyOverdrawMaintenance 0
scalar OsgEarthNet.uav[34] utilizationCountMissions 336
scalar OsgEarthNet.uav[34] utilizationCountManeuversMission 5860
scalar OsgEarthNet.uav[34] utilizationCountManeuversMaintenance 672
scalar OsgEarthNet.uav[34] utilizationCountChargeState 335
scalar OsgEarthNet.uav[34] utilizationCountOverdrawnAfterMission 0
scalar OsgEarthNet.uav[34] utilizationCountIdleState 2
scalar OsgEarthNet.uav[34] utilizationFail 0
scalar OsgEarthNet.uav[34] simulationTime 1209600
scalar OsgEarthNet.uav[35] utilizationSecMission 193047.39374691
scalar OsgEarthNet.uav[35] utilizationSecMaintenance 103730.60525309
scalar OsgEarthNet.uav[35] utilizationSecCharge 912820
scalar OsgEarthNet.uav[35] utilizationSecIdle 2
scalar OsgEarthNet.uav[35] utilizationEnergyMission 925148.53713638
scalar OsgEarthNet.uav[35] utilizationEnergyMaintenance 487603.01728439
scalar OsgEarthNet.uav[35] utilizationEnergyCharge 1411630.7758789
scalar OsgEarthNet.uav[35] utilizationEnergyOverdrawMission 0
scalar OsgEarthNet.uav[35] utilizationEnergyOverdrawMaintenance 0
scalar OsgEarthNet.uav[35] utilizationCountMissions 339
scalar OsgEarthNet.uav[35] utilizationCountManeuversMission 5469
scalar OsgEarthNet.uav[35] utilizationCountManeuversMaintenance 679
scalar OsgEarthNet.uav[35] utilizationCountChargeState 339
scalar OsgEarthNet.uav[35] utilizationCountOverdrawnAfterMission 0
scalar OsgEarthNet.uav[35] utilizationCountIdleState 1
scalar OsgEarthNet.uav[35] utilizationFail 0
scalar OsgEarthNet.uav[35] simulationTime 1209600
scalar OsgEarthNet.uav[36] utilizationSecMission 197583.72485621
scalar OsgEarthNet.uav[36] utilizationSecMaintenance 102080.03698951
scalar OsgEarthNet.uav[36] utilizationSecCharge 909934.23715427
scalar OsgEarthNet.uav[36] utilizationSecIdle 2
scalar OsgEarthNet.uav[36] utilizationEnergyMission 954437.61404419
scalar OsgEarthNet.uav[36] utilizationEnergyMaintenance 476975.44276047
scalar OsgEarthNet.uav[36] utilizationEnergyCharge 1423809.6375732
scalar OsgEarthNet.uav[36] utilizationEnergyOverdrawMission 0
scalar OsgEarthNet.uav[36] utilizationEnergyOverdrawMaintenance 0
scalar OsgEarthNet.uav[36] utilizationCountMissions 331
scalar OsgEarthNet.uav[36] utilizationCountManeuversMission 5985
scalar OsgEarthNet.uav[36] utilizationCountManeuversMaintenance 661
scalar OsgEarthNet.uav[36] utilizationCountChargeState 331
scalar OsgEarthNet.uav[36] utilizationCountOverdrawnAfterMission 0
scalar OsgEarthNet.uav[36] utilizationCountIdleState 1
scalar OsgEarthNet.uav[36] utilizationFail 0
scalar OsgEarthNet.uav[36] simulationTime 1209600
scalar OsgEarthNet.uav[37] utilizationSecMission 182524.41665938
scalar OsgEarthNet.uav[37] utilizationSecMaintenance 120003.57934062
scalar OsgEarthNet.uav[37] utilizationSecCharge 905510
scalar OsgEarthNet.uav[37] utilizationSecIdle 1562.003
scalar OsgEarthNet.uav[37] utilizationEnergyMission 890669.86082458
scalar OsgEarthNet.uav[37] utilizationEnergyMaintenance 568482.50607701
scalar OsgEarthNet.uav[37] utilizationEnergyCharge 1455001.2507324
scalar OsgEarthNet.uav[37] utilizationEnergyOverdrawMission 0
scalar OsgEarthNet.uav[37] utilizationEnergyOverdrawMaintenance 0
scalar OsgEarthNet.uav[37] utilizationCountMissions 343
scalar OsgEarthNet.uav[37] utilizationCountManeuversMission 6132
scalar OsgEarthNet.uav[37] utilizationCountManeuversMaintenance 686
scalar OsgEarthNet.uav[37] utilizationCountChargeState 342
scalar OsgEarthNet.uav[37] utilizationCountOverdrawnAfterMission 0
scalar OsgEarthNet.uav[37] utilizationCountIdleState 1
scalar OsgEarthNet.uav[37] utilizationFail 0
scalar OsgEarthNet.uav[37] simulationTime 1209600
scalar OsgEarthNet.uav[38] utilizationSecMission 188276.23732785
scalar OsgEarthNet.uav[38] utilizationSecMaintenance 106039.37471723
scalar OsgEarthNet.uav[38] utilizationSecCharge 914622.38595491
scalar OsgEarthNet.uav[38] utilizationSecIdle 662.001
scalar OsgEarthNet.uav[38] utilizationEnergyMission 908238.62549973
scalar OsgEarthNet.uav[38] utilizationEnergyMaintenance 499325.50358963
scalar OsgEarthNet.uav[38] utilizationEnergyCharge 1406285.8554688
scalar OsgEarthNet.uav[38] utilizationEnergyOverdrawMission 0
scalar OsgEarthNet.uav[38] utilizationEnergyOverdrawMaintenance 0
scalar OsgEarthNet.uav[38] utilizationCountMissions 341
scalar OsgEarthNet.uav[38] utilizationCountManeuversMission 5604
scalar OsgEarthNet.uav[38] utilizationCountManeuversMaintenance 682
scalar OsgEarthNet.uav[38] utilizationCountChargeState 341
scalar OsgEarthNet.uav[38] utilizationCountOverdrawnAfterMission 0
scalar OsgEarthNet.uav[38] utilizationCountIdleState 2
scalar OsgEarthNet.uav[38] utilizationFail 0
scalar OsgEarthNet.uav[38] simulationTime 1209600
scalar OsgEarthNet.uav[39] utilizationSecMission 191239.37839012
scalar OsgEarthNet.uav[39] utilizationSecMaintenance 108957.22650201
scalar OsgEarthNet.uav[39] utilizationSecCharge 907654.07600655
scalar OsgEarthNet.uav[39] utilizationSecIdle 1749.3181013329
scalar OsgEarthNet.uav[39] utilizationEnergyMission 926630.18883514
scalar OsgEarthNet.uav[39] utilizationEnergyMaintenance 512044.02550888
scalar OsgEarthNet.uav[39] utilizationEnergyCharge 1441861.565918
scalar OsgEarthNet.uav[39] utilizationEnergyOverdrawMission 0
scalar OsgEarthNet.uav[39] utilizationEnergyOverdrawMaintenance 0
scalar OsgEarthNet.uav[39] utilizationCountMissions 336
scalar OsgEarthNet.uav[39] utilizationCountManeuversMission 5873
scalar OsgEarthNet.uav[39] utilizationCountManeuversMaintenance 672
scalar OsgEarthNet.uav[39] utilizationCountChargeState 336
scalar OsgEarthNet.uav[39] utilizationCountOverdrawnAfterMission 0
scalar OsgEarthNet.uav[39] utilizationCountIdleState 1
scalar OsgEarthNet.uav[39] utilizationFail 0
scalar OsgEarthNet.uav[39] simulationTime 1209600
scalar OsgEarthNet.uav[40] utilizationSecMission 181895.52938523
scalar OsgEarthNet.uav[40] utilizationSecMaintenance 117492.79382689
scalar OsgEarthNet.uav[40] utilizationSecCharge 906979.66878787
scalar OsgEarthNet.uav[40] utilizationSecIdle 3232.007
scalar OsgEarthNet.uav[40] utilizationEnergyMission 889406.00990677
scalar OsgEarthNet.uav[40] utilizationEnergyMaintenance 557382.69709396
scalar OsgEarthNet.uav[40] utilizationEnergyCharge 1444231.6323242
scalar OsgEarthNet.uav[40] utilizationEnergyOverdrawMission 0
scalar OsgEarthNet.uav[40] utilizationEnergyOverdrawMaintenance 0
scalar OsgEarthNet.uav[40] utilizationCountMissions 344
scalar OsgEarthNet.uav[40] utilizationCountManeuversMission 6036
scalar OsgEarthNet.uav[40] utilizationCountManeuversMaintenance 688
scalar OsgEarthNet.uav[40] utilizationCountChargeState 344
scalar OsgEarthNet.uav[40] utilizationCountOverdrawnAfterMission 0
scalar OsgEarthNet.uav[40] utilizationCountIdleState 2
scalar OsgEarthNet.uav[40] utilizationFail 0
scalar OsgEarthNet.uav[40] simulationTime 1209600
scalar OsgEarthNet.uav[41] utilizationSecMission 192399.62766479
scalar OsgEarthNet.uav[41] utilizationSecMaintenance 103166.57798293
scalar OsgEarthNet.uav[41] utilizationSecCharge 911891.78935228
scalar OsgEarthNet.uav[41] utilizationSecIdle 2142.004
scalar OsgEarthNet.uav[41] utilizationEnergyMission 926585.32027054
scalar OsgEarthNet.uav[41] utilizationEnergyMaintenance 484280.5767746
scalar OsgEarthNet.uav[41] utilizationEnergyCharge 1414320.338623
scalar OsgEarthNet.uav[41] utilizationEnergyOverdrawMission 0
scalar OsgEarthNet.uav[41] utilizationEnergyOverdrawMaintenance 0
scalar OsgEarthNet.uav[41] utilizationCountMissions 334
scalar OsgEarthNet.uav[41] utilizationCountManeuversMission 5651
scalar OsgEarthNet.uav[41] utilizationCountManeuversMaintenance 668
scalar OsgEarthNet.uav[41] utilizationCountChargeState 334
scalar OsgEarthNet.uav[41] utilizationCountOverdrawnAfterMission 0
scalar OsgEarthNet.uav[41] utilizationCountIdleState 1
scalar OsgEarthNet.uav[41] utilizationFail 0
scalar OsgEarthNet.uav[41] simulationTime 1209600
scalar OsgEarthNet.uav[42] utilizationSecMission 181670.15006823
scalar OsgEarthNet.uav[42] utilizationSecMaintenance 117287.84893177
scalar OsgEarthNet.uav[42] utilizationSecCharge 910640
scalar OsgEarthNet.uav[42] utilizationSecIdle 2
scalar OsgEarthNet.uav[42] utilizationEnergyMission 879031.46380279
scalar OsgEarthNet.uav[42] utilizationEnergyMaintenance 554450.29826442
scalar OsgEarthNet.uav[42] utilizationEnergyCharge 1433878.4897461
scalar OsgEarthNet.uav[42] utilizationEnergyOverdrawMission 0
scalar OsgEarthNet.uav[42] utilizationEnergyOverdrawMaintenance 0
scalar OsgEarthNet.uav[42] utilizationCountMissions 346
scalar OsgEarthNet.uav[42] utilizationCountManeuversMission 5768
scalar OsgEarthNet.uav[42] utilizationCountManeuversMaintenance 691
scalar OsgEarthNet.uav[42] utilizationCountChargeState 345
scalar OsgEarthNet.uav[42] utilizationCountOverdrawnAfterMission 0
scalar OsgEarthNet.uav[42] utilizationCountIdleState 1
scalar OsgEarthNet.uav[42] utilizationFail 0
scalar OsgEarthNet.uav[42] simulationTime 1209600
scalar OsgEarthNet.uav[43] utilizationSecMission 193571.65180802
scalar OsgEarthNet.uav[43] utilizationSecMaintenance 104447.77678023
scalar OsgEarthNet.uav[43] utilizationSecCharge 908310
scalar OsgEarthNet.uav[43] utilizationSecIdle 3270.570411756
scalar OsgEarthNet.uav[43] utilizationEnergyMission 932337.69979095
scalar OsgEarthNet.uav[43] utilizationEnergyMaintenance 492095.80261961
scalar OsgEarthNet.uav[43] utilizationEnergyCharge 1423922.1044922
scalar OsgEarthNet.uav[43] utilizationEnergyOverdrawMission 0
scalar OsgEarthNet.uav[43] utilizationEnergyOverdrawMaintenance 0
scalar OsgEarthNet.uav[43] utilizationCountMissions 334
scalar OsgEarthNet.uav[43] utilizationCountManeuversMission 5824
scalar OsgEarthNet.uav[43] utilizationCountManeuversMaintenance 669
scalar OsgEarthNet.uav[43] utilizationCountChargeState 334
scalar OsgEarthNet.uav[43] utilizationCountOverdrawnAfterMission 0
scalar OsgEarthNet.uav[43] utilizationCountIdleState 1
scalar OsgEarthNet.uav[43] utilizationFail 0
scalar OsgEarthNet.uav[43] simulationTime 1209600
scalar OsgEarthNet.uav[44] utilizationSecMission 198727.31501684
scalar OsgEarthNet.uav[44] utilizationSecMaintenance 102338.3941361
scalar OsgEarthNet.uav[44] utilizationSecCharge 906526.28999654
scalar OsgEarthNet.uav[44] utilizationSecIdle 2007.9998505245
scalar OsgEarthNet.uav[44] utilizationEnergyMission 968211.22208023
scalar OsgEarthNet.uav[44] utilizationEnergyMaintenance 477580.76670456
scalar OsgEarthNet.uav[44] utilizationEnergyCharge 1444985.6943359
scalar OsgEarthNet.uav[44] utilizationEnergyOverdrawMission 0
scalar OsgEarthNet.uav[44] utilizationEnergyOverdrawMaintenance 0
scalar OsgEarthNet.uav[44] utilizationCountMissions 331
scalar OsgEarthNet.uav[44] utilizationCountManeuversMission 6545
scalar OsgEarthNet.uav[44] utilizationCountManeuversMaintenance 662
scalar OsgEarthNet.uav[44] utilizationCountChargeState 331
scalar OsgEarthNet.uav[44] utilizationCountOverdrawnAfterMission 0
scalar OsgEarthNet.uav[44] utilizationCountIdleState 1
scalar OsgEarthNet.uav[44] utilizationFail 0
scalar OsgEarthNet.uav[44] simulationTime 1209600
scalar OsgEarthNet.uav[45] utilizationSecMission 193084.64218164
scalar OsgEarthNet.uav[45] utilizationSecMaintenance 105552.45575459
scalar OsgEarthNet.uav[45] utilizationSecCharge 909330.89806377
scalar OsgEarthNet.uav[45] utilizationSecIdle 1632.003
scalar OsgEarthNet.uav[45] utilizationEnergyMission 936175.17263412
scalar OsgEarthNet.uav[45] utilizationEnergyMaintenance 496481.67682266
scalar OsgEarthNet.uav[45] utilizationEnergyCharge 1431061.2834473
scalar OsgEarthNet.uav[45] utilizationEnergyOverdrawMission 0
scalar OsgEarthNet.uav[45] utilizationEnergyOverdrawMaintenance 0
scalar OsgEarthNet.uav[45] utilizationCountMissions 336
scalar OsgEarthNet.uav[45] utilizationCountManeuversMission 6017
scalar OsgEarthNet.uav[45] utilizationCountManeuversMaintenance 672
scalar OsgEarthNet.uav[45] utilizationCountChargeState 336
scalar OsgEarthNet.uav[45] utilizationCountOverdrawnAfterMission 0
scalar OsgEarthNet.uav[45] utilizationCountIdleState 2
scalar OsgEarthNet.uav[45] utilizationFail 0
scalar OsgEarthNet.uav[45] simulationTime 1209600
scalar OsgEarthNet.uav[46] utilizationSecMission 187241.14209887
scalar OsgEarthNet.uav[46] utilizationSecMaintenance 110074.9455102
scalar OsgEarthNet.uav[46] utilizationSecCharge 909773.96713438
scalar OsgEarthNet.uav[46] utilizationSecIdle 2509.9442565444
scalar OsgEarthNet.uav[46] utilizationEnergyMission 905423.50951385
scalar OsgEarthNet.uav[46] utilizationEnergyMaintenance 518163.59809113
scalar OsgEarthNet.uav[46] utilizationEnergyCharge 1424327.1572266
scalar OsgEarthNet.uav[46] utilizationEnergyOverdrawMission 0
scalar OsgEarthNet.uav[46] utilizationEnergyOverdrawMaintenance 0
scalar OsgEarthNet.uav[46] utilizationCountMissions 342
scalar OsgEarthNet.uav[46] utilizationCountManeuversMission 5831
scalar OsgEarthNet.uav[46] utilizationCountManeuversMaintenance 684
scalar OsgEarthNet.uav[46] utilizationCountChargeState 342
scalar OsgEarthNet.uav[46] utilizationCountOverdrawnAfterMission 0
scalar OsgEarthNet.uav[46] utilizationCountIdleState 1
scalar OsgEarthNet.uav[46] utilizationFail 0
scalar OsgEarthNet.uav[46] simulationTime 1209600
scalar OsgEarthNet.uav[47] utilizationSecMission 193053.89053278
scalar OsgEarthNet.uav[47] utilizationSecMaintenance 107758.79238539
scalar OsgEarthNet.uav[47] utilizationSecCharge 906370
scalar OsgEarthNet.uav[47] utilizationSecIdle 2417.3160818306
scalar OsgEarthNet.uav[47] utilizationEnergyMission 948163.25831868
scalar OsgEarthNet.uav[47] utilizationEnergyMaintenance 505924.37295151
scalar OsgEarthNet.uav[47] utilizationEnergyCharge 1447746.0224609
scalar OsgEarthNet.uav[47] utilizationEnergyOverdrawMission 0
scalar OsgEarthNet.uav[47] utilizationEnergyOverdrawMaintenance 0
scalar OsgEarthNet.uav[47] utilizationCountMissions 335
scalar OsgEarthNet.uav[47] utilizationCountManeuversMission 6298
scalar OsgEarthNet.uav[47] utilizationCountManeuversMaintenance 671
scalar OsgEarthNet.uav[47] utilizationCountChargeState 335
scalar OsgEarthNet.uav[47] utilizationCountOverdrawnAfterMission 0
scalar OsgEarthNet.uav[47] utilizationCountIdleState 1
scalar OsgEarthNet.uav[47] utilizationFail 0
scalar OsgEarthNet.uav[47] simulationTime 1209600
scalar OsgEarthNet.uav[48] utilizationSecMission 197329.72694538
scalar OsgEarthNet.uav[48] utilizationSecMaintenance 103127.69285248
scalar OsgEarthNet.uav[48] utilizationSecCharge 909080.57920214
scalar OsgEarthNet.uav[48] utilizationSecIdle 62
scalar OsgEarthNet.uav[48] utilizationEnergyMission 959226.24882128
scalar OsgEarthNet.uav[48] utilizationEnergyMaintenance 482314.35728455
scalar OsgEarthNet.uav[48] utilizationEnergyCharge 1435098.6191406
scalar OsgEarthNet.uav[48] utilizationEnergyOverdrawMission 0
scalar OsgEarthNet.uav[48] utilizationEnergyOverdrawMaintenance 0
scalar OsgEarthNet.uav[48] utilizationCountMissions 333
scalar OsgEarthNet.uav[48] utilizationCountManeuversMission 6136
scalar OsgEarthNet.uav[48] utilizationCountManeuversMaintenance 665
scalar OsgEarthNet.uav[48] utilizationCountChargeState 333
scalar OsgEarthNet.uav[48] utilizationCountOverdrawnAfterMission 0
scalar OsgEarthNet.uav[48] utilizationCountIdleState 2
scalar OsgEarthNet.uav[48] utilizationFail 0
scalar OsgEarthNet.uav[48] simulationTime 1209600
scalar OsgEarthNet.uav[49] utilizationSecMission 192334.42315493
scalar OsgEarthNet.uav[49] utilizationSecMaintenance 106917.17837125
scalar OsgEarthNet.uav[49] utilizationSecCharge 907190.31449403
scalar OsgEarthNet.uav[49] utilizationSecIdle 3158.0829797894
scalar OsgEarthNet.uav[49] utilizationEnergyMission 924160.60845566
scalar OsgEarthNet.uav[49] utilizationEnergyMaintenance 505131.23156357
scalar OsgEarthNet.uav[49] utilizationEnergyCharge 1431324.8737793
scalar OsgEarthNet.uav[49] utilizationEnergyOverdrawMission 0
scalar OsgEarthNet.uav[49] utilizationEnergyOverdrawMaintenance 0
scalar OsgEarthNet.uav[49] utilizationCountMissions 336
scalar OsgEarthNet.uav[49] utilizationCountManeuversMission 5598
scalar OsgEarthNet.uav[49] utilizationCountManeuversMaintenance 672
scalar OsgEarthNet.uav[49] utilizationCountChargeState 336
scalar OsgEarthNet.uav[49] utilizationCountOverdrawnAfterMission 0
scalar OsgEarthNet.uav[49] utilizationCountIdleState 2
scalar OsgEarthNet.uav[49] utilizationFail 0
scalar OsgEarthNet.uav[49] simulationTime 1209600
scalar OsgEarthNet.uav[50] utilizationSecMission 185944.84554655
scalar OsgEarthNet.uav[50] utilizationSecMaintenance 110359.21839281
scalar OsgEarthNet.uav[50] utilizationSecCharge 910274.98580498
scalar OsgEarthNet.uav[50] utilizationSecIdle 3020.9492556647
scalar OsgEarthNet.uav[50] utilizationEnergyMission 893427.25703812
scalar OsgEarthNet.uav[50] utilizationEnergyMaintenance 522314.16956329
scalar OsgEarthNet.uav[50] utilizationEnergyCharge 1417899.5158691
scalar OsgEarthNet.uav[50] utilizationEnergyOverdrawMission 0
scalar OsgEarthNet.uav[50] utilizationEnergyOverdrawMaintenance 0
scalar OsgEarthNet.uav[50] utilizationCountMissions 341
scalar OsgEarthNet.uav[50] utilizationCountManeuversMission 5418
scalar OsgEarthNet.uav[50] utilizationCountManeuversMaintenance 682
scalar OsgEarthNet.uav[50] utilizationCountChargeState 341
scalar OsgEarthNet.uav[50] utilizationCountOverdrawnAfterMission 0
scalar OsgEarthNet.uav[50] utilizationCountIdleState 2
scalar OsgEarthNet.uav[50] utilizationFail 0
scalar OsgEarthNet.uav[50] simulationTime 1209600
scalar OsgEarthNet.uav[51] utilizationSecMission 191297.82803159
scalar OsgEarthNet.uav[51] utilizationSecMaintenance 106471.18868239
scalar OsgEarthNet.uav[51] utilizationSecCharge 910330.01830034
scalar OsgEarthNet.uav[51] utilizationSecIdle 1500.9639856735
scalar OsgEarthNet.uav[51] utilizationEnergyMission 938122.85445023
scalar OsgEarthNet.uav[51] utilizationEnergyMaintenance 501467.21321869
scalar OsgEarthNet.uav[51] utilizationEnergyCharge 1434425.5202637
scalar OsgEarthNet.uav[51] utilizationEnergyOverdrawMission 0
scalar OsgEarthNet.uav[51] utilizationEnergyOverdrawMaintenance 0
scalar OsgEarthNet.uav[51] utilizationCountMissions 336
scalar OsgEarthNet.uav[51] utilizationCountManeuversMission 6546
scalar OsgEarthNet.uav[51] utilizationCountManeuversMaintenance 672
scalar OsgEarthNet.uav[51] utilizationCountChargeState 336
scalar OsgEarthNet.uav[51] utilizationCountOverdrawnAfterMission 0
scalar OsgEarthNet.uav[51] utilizationCountIdleState 1
scalar OsgEarthNet.uav[51] utilizationFail 0
scalar OsgEarthNet.uav[51] simulationTime 1209600
scalar OsgEarthNet.uav[52] utilizationSecMission 202963.87508365
scalar OsgEarthNet.uav[52] utilizationSecMaintenance 96845.040874137
scalar OsgEarthNet.uav[52] utilizationSecCharge 908351.65769492
scalar OsgEarthNet.uav[52] utilizationSecIdle 1439.4253472904
scalar OsgEarthNet.uav[52] utilizationEnergyMission 981191.22312927
scalar OsgEarthNet.uav[52] utilizationEnergyMaintenance 451719.53916168
scalar OsgEarthNet.uav[52] utilizationEnergyCharge 1429618.5789795
scalar OsgEarthNet.uav[52] utilizationEnergyOverdrawMission 0
scalar OsgEarthNet.uav[52] utilizationEnergyOverdrawMaintenance 0
scalar OsgEarthNet.uav[52] utilizationCountMissions 329
scalar OsgEarthNet.uav[52] utilizationCountManeuversMission 6303
scalar OsgEarthNet.uav[52] utilizationCountManeuversMaintenance 658
scalar OsgEarthNet.uav[52] utilizationCountChargeState 329
scalar OsgEarthNet.uav[52] utilizationCountOverdrawnAfterMission 0
scalar OsgEarthNet.uav[52] utilizationCountIdleState 1
scalar OsgEarthNet.uav[52] utilizationFail 0
scalar OsgEarthNet.uav[52] simulationTime 1209600
scalar OsgEarthNet.uav[53] utilizationSecMission 200519.88680436
scalar OsgEarthNet.uav[53] utilizationSecMaintenance 94871.4489171
scalar OsgEarthNet.uav[53] utilizationSecCharge 911765.07262123
scalar OsgEarthNet.uav[53] utilizationSecIdle 2443.5906573018
scalar OsgEarthNet.uav[53] utilizationEnergyMission 971446.27071381
scalar OsgEarthNet.uav[53] utilizationEnergyMaintenance 444976.02869797
scalar OsgEarthNet.uav[53] utilizationEnergyCharge 1415623.8857422
scalar OsgEarthNet.uav[53] utilizationEnergyOverdrawMission 0
scalar OsgEarthNet.uav[53] utilizationEnergyOverdrawMaintenance 0
scalar OsgEarthNet.uav[53] utilizationCountMissions 326
scalar OsgEarthNet.uav[53] utilizationCountManeuversMission 6120
scalar OsgEarthNet.uav[53] utilizationCountManeuversMaintenance 652
scalar OsgEarthNet.uav[53] utilizationCountChargeState 326
scalar OsgEarthNet.uav[53] utilizationCountOverdrawnAfterMission 0
scalar OsgEarthNet.uav[53] utilizationCountIdleState 1
scalar OsgEarthNet.uav[53] utilizationFail 0
scalar OsgEarthNet.uav[53] simulationTime 1209600
scalar OsgEarthNet.uav[54] utilizationSecMission 196405.7969199
scalar OsgEarthNet.uav[54] utilizationSecMaintenance 100639.61152973
scalar OsgEarthNet.uav[54] utilizationSecCharge 910309.14846167
scalar OsgEarthNet.uav[54] utilizationSecIdle 2245.4420886909
scalar OsgEarthNet.uav[54] utilizationEnergyMission 950220.60622406
scalar OsgEarthNet.uav[54] utilizationEnergyMaintenance 470948.52892303
scalar OsgEarthNet.uav[54] utilizationEnergyCharge 1416480.9342041
scalar OsgEarthNet.uav[54] utilizationEnergyOverdrawMission 0
scalar OsgEarthNet.uav[54] utilizationEnergyOverdrawMaintenance 0
scalar OsgEarthNet.uav[54] utilizationCountMissions 331
scalar OsgEarthNet.uav[54] utilizationCountManeuversMission 5917
scalar OsgEarthNet.uav[54] utilizationCountManeuversMaintenance 662
scalar OsgEarthNet.uav[54] utilizationCountChargeState 331
scalar OsgEarthNet.uav[54] utilizationCountOverdrawnAfterMission 0
scalar OsgEarthNet.uav[54] utilizationCountIdleState 1
scalar OsgEarthNet.uav[54] utilizationFail 0
scalar OsgEarthNet.uav[54] simulationTime 1209600
scalar OsgEarthNet.uav[55] utilizationSecMission 185584.13533672
scalar OsgEarthNet.uav[55] utilizationSecMaintenance 113408.41339925
scalar OsgEarthNet.uav[55] utilizationSecCharge 909840
scalar OsgEarthNet.uav[55] utilizationSecIdle 767.4502640309
scalar OsgEarthNet.uav[55] utilizationEnergyMission 904786.23157115
scalar OsgEarthNet.uav[55] utilizationEnergyMaintenance 531764.39417267
scalar OsgEarthNet.uav[55] utilizationEnergyCharge 1433302.9868164
scalar OsgEarthNet.uav[55] utilizationEnergyOverdrawMission 0
scalar OsgEarthNet.uav[55] utilizationEnergyOverdrawMaintenance 0
scalar OsgEarthNet.uav[55] utilizationCountMissions 337
scalar OsgEarthNet.uav[55] utilizationCountManeuversMission 6162
scalar OsgEarthNet.uav[55] utilizationCountManeuversMaintenance 675
scalar OsgEarthNet.uav[55] utilizationCountChargeState 337
scalar OsgEarthNet.uav[55] utilizationCountOverdrawnAfterMission 0
scalar OsgEarthNet.uav[55] utilizationCountIdleState 1
scalar OsgEarthNet.uav[55] utilizationFail 0
scalar OsgEarthNet.uav[55] simulationTime 1209600
scalar OsgEarthNet.cs[0] usedPower 19836250.206236
scalar OsgEarthNet.cs[0] chargedPower 19836250.206236
scalar OsgEarthNet.cs[0] chargedMobileNodes 0
scalar OsgEarthNet.cs[0] reservations 4643
scalar OsgEarthNet.cs[1] usedPower 26300793.797721
scalar OsgEarthNet.cs[1] chargedPower 26300793.797721
scalar OsgEarthNet.cs[1] chargedMobileNodes 20
scalar OsgEarthNet.cs[1] reservations 6521
scalar OsgEarthNet.cs[2] usedPower 33908882.467753
scalar OsgEarthNet.cs[2] chargedPower 33908882.467753
scalar OsgEarthNet.cs[2] chargedMobileNodes 12
scalar OsgEarthNet.cs[2] reservations 7623

