version 2
run Szenario_Hotel_Gabelbach-61-20180718-21:00:48-1604
attr configname Szenario_Hotel_Gabelbach
attr datetime 20180718-21:00:48
attr experiment Szenario_Hotel_Gabelbach
attr inifile omnetpp.ini
attr iterationvars "$replM=2, $biWeight=0.35, $replSearchM=1, $numUAVs=56"
attr iterationvarsf replM=2,biWeight=0.35,replSearchM=1,numUAVs=56-
attr measurement "$replM=2, $biWeight=0.35, $replSearchM=1, $numUAVs=56"
attr network OsgEarthNet
attr processid 1604
attr repetition 13
attr replication #13
attr resultdir results
attr runnumber 61
attr seedset 61
itervar biWeight 0.35
itervar numUAVs 56
itervar replM 2
itervar replSearchM 1
param *.osgEarthScene.scene "\"Szenario_Hotel_Gabelbach.earth\""
param *.playgroundLatitude 50.6830269
param *.playgroundLongitude 10.8538055
param *.playgroundWidth 3500m
param *.playgroundHeight 3500m
param *.cs[0].posX 3537m
param *.cs[0].posY 965m
param *.cs[0].posZ 538m
param *.cs[1].posX 312m
param *.cs[1].posY 1262m
param *.cs[1].posZ 539m
param *.cs[2].posX 2185m
param *.cs[2].posY 3026m
param *.cs[2].posZ 777m
param *.cs[3].posX 10m
param *.cs[3].posY 2200m
param *.cs[3].posZ 560m
param *.cs[4].posX 750m
param *.cs[4].posY 200m
param *.cs[4].posZ 540m
param *.cs[5].posX 2450m
param *.cs[5].posY 180m
param *.cs[5].posZ 524m
param *.cs[6].posX 3140m
param *.cs[6].posY 1790m
param *.cs[6].posZ 606m
param *.numCSs 3
param *.uav[*].replacementMethod 2
param *.uav[*].weightedSumWeight 0.35
param *.missionControl.replacementSearchMethod 1
param *.numUAVs 56
param *.*.timeStep 10s
param *.uav[*].commandPreviewCommandCount 20
param *.missionControl.missionFiles "\"missions\\\\Szenario_WB_Hotel_Gabelbach_Mission_Hotel.waypoints,missions\\\\Szenario_WB_Hotel_Gabelbach_Mission_Kickelhahn.waypoints,missions\\\\Szenario_WB_Hotel_Gabelbach_Mission_Ilmenau_Sportplatz.waypoints,missions\\\\Szenario_WB_Hotel_Gabelbach_Mission_Manebach_Mitte.waypoints,missions\\\\Szenario_WB_Hotel_Gabelbach_Mission_Manebach_Sued.waypoints,missions\\\\Szenario_WB_Hotel_Gabelbach_Hover_HoheSchlaufe.waypoints,missions\\\\Szenario_WB_Hotel_Gabelbach_Hover_Kickelhahn.waypoints,missions\\\\Szenario_WB_Hotel_Gabelbach_Hover_Gabelbachskopf.waypoints,missions\\\\Szenario_WB_Hotel_Gabelbach_Hover_Dachskopf.waypoints\""
param *.uav[0].startX 3537m
param *.uav[0].startY 965m
param *.uav[0].startZ 539m
param *.uav[1].startX 312m
param *.uav[1].startY 1262m
param *.uav[1].startZ 540m
param *.uav[2].startX 2185m
param *.uav[2].startY 3026m
param *.uav[2].startZ 778m
param *.uav[3].startX 3537m
param *.uav[3].startY 965m
param *.uav[3].startZ 539m
param *.uav[4].startX 312m
param *.uav[4].startY 1262m
param *.uav[4].startZ 540m
param *.uav[5].startX 2185m
param *.uav[5].startY 3026m
param *.uav[5].startZ 778m
param *.uav[6].startX 3537m
param *.uav[6].startY 965m
param *.uav[6].startZ 539m
param *.uav[7].startX 312m
param *.uav[7].startY 1262m
param *.uav[7].startZ 540m
param *.uav[8].startX 2185m
param *.uav[8].startY 3026m
param *.uav[8].startZ 778m
param *.uav[9].startX 3537m
param *.uav[9].startY 965m
param *.uav[9].startZ 539m
param *.uav[10].startX 3537m
param *.uav[10].startY 965m
param *.uav[10].startZ 539m
param *.uav[11].startX 312m
param *.uav[11].startY 1262m
param *.uav[11].startZ 540m
param *.uav[12].startX 2185m
param *.uav[12].startY 3026m
param *.uav[12].startZ 778m
param *.uav[13].startX 3537m
param *.uav[13].startY 965m
param *.uav[13].startZ 539m
param *.uav[14].startX 312m
param *.uav[14].startY 1262m
param *.uav[14].startZ 540m
param *.uav[15].startX 2185m
param *.uav[15].startY 3026m
param *.uav[15].startZ 778m
param *.uav[16].startX 3537m
param *.uav[16].startY 965m
param *.uav[16].startZ 539m
param *.uav[17].startX 312m
param *.uav[17].startY 1262m
param *.uav[17].startZ 540m
param *.uav[18].startX 2185m
param *.uav[18].startY 3026m
param *.uav[18].startZ 778m
param *.uav[19].startX 3537m
param *.uav[19].startY 965m
param *.uav[19].startZ 539m
param *.uav[20].startX 3537m
param *.uav[20].startY 965m
param *.uav[20].startZ 539m
param *.uav[21].startX 312m
param *.uav[21].startY 1262m
param *.uav[21].startZ 540m
param *.uav[22].startX 2185m
param *.uav[22].startY 3026m
param *.uav[22].startZ 778m
param *.uav[23].startX 3537m
param *.uav[23].startY 965m
param *.uav[23].startZ 539m
param *.uav[24].startX 312m
param *.uav[24].startY 1262m
param *.uav[24].startZ 540m
param *.uav[25].startX 2185m
param *.uav[25].startY 3026m
param *.uav[25].startZ 778m
param *.uav[26].startX 3537m
param *.uav[26].startY 965m
param *.uav[26].startZ 539m
param *.uav[27].startX 312m
param *.uav[27].startY 1262m
param *.uav[27].startZ 540m
param *.uav[28].startX 2185m
param *.uav[28].startY 3026m
param *.uav[28].startZ 778m
param *.uav[29].startX 3537m
param *.uav[29].startY 965m
param *.uav[29].startZ 539m
param *.uav[30].startX 3537m
param *.uav[30].startY 965m
param *.uav[30].startZ 539m
param *.uav[31].startX 312m
param *.uav[31].startY 1262m
param *.uav[31].startZ 540m
param *.uav[32].startX 2185m
param *.uav[32].startY 3026m
param *.uav[32].startZ 778m
param *.uav[33].startX 3537m
param *.uav[33].startY 965m
param *.uav[33].startZ 539m
param *.uav[34].startX 312m
param *.uav[34].startY 1262m
param *.uav[34].startZ 540m
param *.uav[35].startX 2185m
param *.uav[35].startY 3026m
param *.uav[35].startZ 778m
param *.uav[36].startX 3537m
param *.uav[36].startY 965m
param *.uav[36].startZ 539m
param *.uav[37].startX 312m
param *.uav[37].startY 1262m
param *.uav[37].startZ 540m
param *.uav[38].startX 2185m
param *.uav[38].startY 3026m
param *.uav[38].startZ 778m
param *.uav[39].startX 3537m
param *.uav[39].startY 965m
param *.uav[39].startZ 539m
param *.uav[40].startX 3537m
param *.uav[40].startY 965m
param *.uav[40].startZ 539m
param *.uav[41].startX 312m
param *.uav[41].startY 1262m
param *.uav[41].startZ 540m
param *.uav[42].startX 2185m
param *.uav[42].startY 3026m
param *.uav[42].startZ 778m
param *.uav[43].startX 3537m
param *.uav[43].startY 965m
param *.uav[43].startZ 539m
param *.uav[44].startX 312m
param *.uav[44].startY 1262m
param *.uav[44].startZ 540m
param *.uav[45].startX 2185m
param *.uav[45].startY 3026m
param *.uav[45].startZ 778m
param *.uav[46].startX 3537m
param *.uav[46].startY 965m
param *.uav[46].startZ 539m
param *.uav[47].startX 312m
param *.uav[47].startY 1262m
param *.uav[47].startZ 540m
param *.uav[48].startX 2185m
param *.uav[48].startY 3026m
param *.uav[48].startZ 778m
param *.uav[49].startX 3537m
param *.uav[49].startY 965m
param *.uav[49].startZ 539m
param *.uav[50].startX 3537m
param *.uav[50].startY 965m
param *.uav[50].startZ 539m
param *.uav[51].startX 312m
param *.uav[51].startY 1262m
param *.uav[51].startZ 540m
param *.uav[52].startX 2185m
param *.uav[52].startY 3026m
param *.uav[52].startZ 778m
param *.uav[53].startX 3537m
param *.uav[53].startY 965m
param *.uav[53].startZ 539m
param *.uav[54].startX 312m
param *.uav[54].startY 1262m
param *.uav[54].startZ 540m
param *.uav[55].startX 2185m
param *.uav[55].startY 3026m
param *.uav[55].startZ 778m
param *.uav[56].startX 3537m
param *.uav[56].startY 965m
param *.uav[56].startZ 539m
param *.uav[57].startX 312m
param *.uav[57].startY 1262m
param *.uav[57].startZ 540m
param *.uav[58].startX 2185m
param *.uav[58].startY 3026m
param *.uav[58].startZ 778m
param *.uav[59].startX 3537m
param *.uav[59].startY 965m
param *.uav[59].startZ 539m
param *.uav[60].startX 3537m
param *.uav[60].startY 965m
param *.uav[60].startZ 539m
param *.uav[61].startX 312m
param *.uav[61].startY 1262m
param *.uav[61].startZ 540m
param *.uav[62].startX 2185m
param *.uav[62].startY 3026m
param *.uav[62].startZ 778m
param *.uav[63].startX 3537m
param *.uav[63].startY 965m
param *.uav[63].startZ 539m
param *.uav[64].startX 312m
param *.uav[64].startY 1262m
param *.uav[64].startZ 540m
param *.uav[65].startX 2185m
param *.uav[65].startY 3026m
param *.uav[65].startZ 778m
param *.uav[66].startX 3537m
param *.uav[66].startY 965m
param *.uav[66].startZ 539m
param *.uav[67].startX 312m
param *.uav[67].startY 1262m
param *.uav[67].startZ 540m
param *.uav[68].startX 2185m
param *.uav[68].startY 3026m
param *.uav[68].startZ 778m
param *.uav[69].startX 3537m
param *.uav[69].startY 965m
param *.uav[69].startZ 539m
param *.uav[70].startX 3537m
param *.uav[70].startY 965m
param *.uav[70].startZ 539m
param *.uav[71].startX 312m
param *.uav[71].startY 1262m
param *.uav[71].startZ 540m
param *.uav[72].startX 2185m
param *.uav[72].startY 3026m
param *.uav[72].startZ 778m
param *.uav[73].startX 3537m
param *.uav[73].startY 965m
param *.uav[73].startZ 539m
param *.uav[74].startX 312m
param *.uav[74].startY 1262m
param *.uav[74].startZ 540m
param *.uav[75].startX 2185m
param *.uav[75].startY 3026m
param *.uav[75].startZ 778m
param *.uav[76].startX 3537m
param *.uav[76].startY 965m
param *.uav[76].startZ 539m
param *.uav[77].startX 312m
param *.uav[77].startY 1262m
param *.uav[77].startZ 540m
param *.uav[78].startX 2185m
param *.uav[78].startY 3026m
param *.uav[78].startZ 778m
param *.uav[79].startX 3537m
param *.uav[79].startY 965m
param *.uav[79].startZ 539m
param *.uav[80].startX 3537m
param *.uav[80].startY 965m
param *.uav[80].startZ 539m
param *.uav[81].startX 312m
param *.uav[81].startY 1262m
param *.uav[81].startZ 540m
param *.uav[82].startX 2185m
param *.uav[82].startY 3026m
param *.uav[82].startZ 778m
param *.uav[83].startX 3537m
param *.uav[83].startY 965m
param *.uav[83].startZ 539m
param *.uav[84].startX 312m
param *.uav[84].startY 1262m
param *.uav[84].startZ 540m
param *.uav[85].startX 2185m
param *.uav[85].startY 3026m
param *.uav[85].startZ 778m
param *.uav[86].startX 3537m
param *.uav[86].startY 965m
param *.uav[86].startZ 539m
param *.uav[87].startX 312m
param *.uav[87].startY 1262m
param *.uav[87].startZ 540m
param *.uav[88].startX 2185m
param *.uav[88].startY 3026m
param *.uav[88].startZ 778m
param *.uav[89].startX 3537m
param *.uav[89].startY 965m
param *.uav[89].startZ 539m
param *.uav[90].startX 3537m
param *.uav[90].startY 965m
param *.uav[90].startZ 539m
param *.uav[91].startX 312m
param *.uav[91].startY 1262m
param *.uav[91].startZ 540m
param *.uav[92].startX 2185m
param *.uav[92].startY 3026m
param *.uav[92].startZ 778m
param *.uav[93].startX 3537m
param *.uav[93].startY 965m
param *.uav[93].startZ 539m
param *.uav[94].startX 312m
param *.uav[94].startY 1262m
param *.uav[94].startZ 540m
param *.uav[95].startX 2185m
param *.uav[95].startY 3026m
param *.uav[95].startZ 778m
param *.uav[96].startX 3537m
param *.uav[96].startY 965m
param *.uav[96].startZ 539m
param *.uav[97].startX 312m
param *.uav[97].startY 1262m
param *.uav[97].startZ 540m
param *.uav[98].startX 2185m
param *.uav[98].startY 3026m
param *.uav[98].startZ 778m
param *.uav[99].startX 3537m
param *.uav[99].startY 965m
param *.uav[99].startZ 539m
param *.osgEarthScene.scene "\"boston.earth\""
param *.playgroundLatitude 42.3558
param *.playgroundLongitude -71.0677
param *.playgroundWidth 400m
param *.playgroundHeight 200m
param *.channelController.connectionColor "\"#0000FF40\""
param *.channelController.showConnections false
param *.uav[*].modelURL "\"quadrocopter.small.obj.15.scale.0,0,90.rot\""
param *.uav[*].labelColor "\"#FF7C00CC\""
param *.uav[*].label2Color "\"#FF7C00EE\""
param *.uav[*].batteryCapacity 5200mAh
param *.uav[*].batteryRemaining uav[index].batteryCapacity
param *.uav[*].predictionQuantile 0.95
param *.uav[*].replacementMethod 2
param *.uav[*].weightedSumWeight 0.5
param *.cs[*].modelURL "\"chargingstation_v1.osgt.2.scale.0,0,0.rot.0,0,-15e-1.trans\""
param *.cs[*].spotsWaiting 999
param *.cs[*].spotsCharging 999
param *.cs[*].chargeEffectivenessPercentage 100
param *.cs[*].nonLinearPhaseStartPercentage 85
param *.cs[*].chargeCurrent 6.0A
param *.cs[*].prioritizeFastCharge true
param *.missionControl.replacementSearchMethod 0
param *.*.timeStep 9s

scalar OsgEarthNet.uav[0] utilizationSecMission 203455.82852516
scalar OsgEarthNet.uav[0] utilizationSecMaintenance 98596.318014319
scalar OsgEarthNet.uav[0] utilizationSecCharge 904277.28203162
scalar OsgEarthNet.uav[0] utilizationSecIdle 3270.5704289012
scalar OsgEarthNet.uav[0] utilizationEnergyMission 976901.2987442
scalar OsgEarthNet.uav[0] utilizationEnergyMaintenance 456871.93776321
scalar OsgEarthNet.uav[0] utilizationEnergyCharge 1432650.8151245
scalar OsgEarthNet.uav[0] utilizationEnergyOverdrawMission 0
scalar OsgEarthNet.uav[0] utilizationEnergyOverdrawMaintenance 0
scalar OsgEarthNet.uav[0] utilizationCountMissions 328
scalar OsgEarthNet.uav[0] utilizationCountManeuversMission 6245
scalar OsgEarthNet.uav[0] utilizationCountManeuversMaintenance 656
scalar OsgEarthNet.uav[0] utilizationCountChargeState 328
scalar OsgEarthNet.uav[0] utilizationCountOverdrawnAfterMission 0
scalar OsgEarthNet.uav[0] utilizationCountIdleState 1
scalar OsgEarthNet.uav[0] utilizationFail 0
scalar OsgEarthNet.uav[0] simulationTime 1209600
scalar OsgEarthNet.uav[1] utilizationSecMission 199687.56999057
scalar OsgEarthNet.uav[1] utilizationSecMaintenance 100255.81609482
scalar OsgEarthNet.uav[1] utilizationSecCharge 907554.60891461
scalar OsgEarthNet.uav[1] utilizationSecIdle 2102.004
scalar OsgEarthNet.uav[1] utilizationEnergyMission 967405.2397728
scalar OsgEarthNet.uav[1] utilizationEnergyMaintenance 468021.99341965
scalar OsgEarthNet.uav[1] utilizationEnergyCharge 1431787.7387695
scalar OsgEarthNet.uav[1] utilizationEnergyOverdrawMission 0
scalar OsgEarthNet.uav[1] utilizationEnergyOverdrawMaintenance 0
scalar OsgEarthNet.uav[1] utilizationCountMissions 332
scalar OsgEarthNet.uav[1] utilizationCountManeuversMission 6047
scalar OsgEarthNet.uav[1] utilizationCountManeuversMaintenance 664
scalar OsgEarthNet.uav[1] utilizationCountChargeState 332
scalar OsgEarthNet.uav[1] utilizationCountOverdrawnAfterMission 0
scalar OsgEarthNet.uav[1] utilizationCountIdleState 1
scalar OsgEarthNet.uav[1] utilizationFail 0
scalar OsgEarthNet.uav[1] simulationTime 1209600
scalar OsgEarthNet.uav[2] utilizationSecMission 195950.60057403
scalar OsgEarthNet.uav[2] utilizationSecMaintenance 102953.2920744
scalar OsgEarthNet.uav[2] utilizationSecCharge 910644.10635157
scalar OsgEarthNet.uav[2] utilizationSecIdle 52
scalar OsgEarthNet.uav[2] utilizationEnergyMission 951553.52950106
scalar OsgEarthNet.uav[2] utilizationEnergyMaintenance 477619.5079689
scalar OsgEarthNet.uav[2] utilizationEnergyCharge 1431870.6350098
scalar OsgEarthNet.uav[2] utilizationEnergyOverdrawMission 0
scalar OsgEarthNet.uav[2] utilizationEnergyOverdrawMaintenance 0
scalar OsgEarthNet.uav[2] utilizationCountMissions 331
scalar OsgEarthNet.uav[2] utilizationCountManeuversMission 6370
scalar OsgEarthNet.uav[2] utilizationCountManeuversMaintenance 661
scalar OsgEarthNet.uav[2] utilizationCountChargeState 331
scalar OsgEarthNet.uav[2] utilizationCountOverdrawnAfterMission 0
scalar OsgEarthNet.uav[2] utilizationCountIdleState 3
scalar OsgEarthNet.uav[2] utilizationFail 0
scalar OsgEarthNet.uav[2] simulationTime 1209600
scalar OsgEarthNet.uav[3] utilizationSecMission 187635.86999739
scalar OsgEarthNet.uav[3] utilizationSecMaintenance 111614.58797021
scalar OsgEarthNet.uav[3] utilizationSecCharge 907107.5340324
scalar OsgEarthNet.uav[3] utilizationSecIdle 3242.007
scalar OsgEarthNet.uav[3] utilizationEnergyMission 909653.823452
scalar OsgEarthNet.uav[3] utilizationEnergyMaintenance 524652.52602768
scalar OsgEarthNet.uav[3] utilizationEnergyCharge 1434307.4172363
scalar OsgEarthNet.uav[3] utilizationEnergyOverdrawMission 0
scalar OsgEarthNet.uav[3] utilizationEnergyOverdrawMaintenance 0
scalar OsgEarthNet.uav[3] utilizationCountMissions 337
scalar OsgEarthNet.uav[3] utilizationCountManeuversMission 6041
scalar OsgEarthNet.uav[3] utilizationCountManeuversMaintenance 674
scalar OsgEarthNet.uav[3] utilizationCountChargeState 337
scalar OsgEarthNet.uav[3] utilizationCountOverdrawnAfterMission 0
scalar OsgEarthNet.uav[3] utilizationCountIdleState 2
scalar OsgEarthNet.uav[3] utilizationFail 0
scalar OsgEarthNet.uav[3] simulationTime 1209600
scalar OsgEarthNet.uav[4] utilizationSecMission 178402.78721405
scalar OsgEarthNet.uav[4] utilizationSecMaintenance 116942.59793125
scalar OsgEarthNet.uav[4] utilizationSecCharge 913650.00196519
scalar OsgEarthNet.uav[4] utilizationSecIdle 604.61188951643
scalar OsgEarthNet.uav[4] utilizationEnergyMission 869570.52807617
scalar OsgEarthNet.uav[4] utilizationEnergyMaintenance 553546.76660919
scalar OsgEarthNet.uav[4] utilizationEnergyCharge 1416433.4903564
scalar OsgEarthNet.uav[4] utilizationEnergyOverdrawMission 0
scalar OsgEarthNet.uav[4] utilizationEnergyOverdrawMaintenance 0
scalar OsgEarthNet.uav[4] utilizationCountMissions 345
scalar OsgEarthNet.uav[4] utilizationCountManeuversMission 5678
scalar OsgEarthNet.uav[4] utilizationCountManeuversMaintenance 690
scalar OsgEarthNet.uav[4] utilizationCountChargeState 345
scalar OsgEarthNet.uav[4] utilizationCountOverdrawnAfterMission 0
scalar OsgEarthNet.uav[4] utilizationCountIdleState 2
scalar OsgEarthNet.uav[4] utilizationFail 0
scalar OsgEarthNet.uav[4] simulationTime 1209600
scalar OsgEarthNet.uav[5] utilizationSecMission 194256.81620308
scalar OsgEarthNet.uav[5] utilizationSecMaintenance 100135.60015976
scalar OsgEarthNet.uav[5] utilizationSecCharge 914440.13237313
scalar OsgEarthNet.uav[5] utilizationSecIdle 767.4502640309
scalar OsgEarthNet.uav[5] utilizationEnergyMission 937791.16169739
scalar OsgEarthNet.uav[5] utilizationEnergyMaintenance 469458.66881943
scalar OsgEarthNet.uav[5] utilizationEnergyCharge 1409053.1083984
scalar OsgEarthNet.uav[5] utilizationEnergyOverdrawMission 0
scalar OsgEarthNet.uav[5] utilizationEnergyOverdrawMaintenance 0
scalar OsgEarthNet.uav[5] utilizationCountMissions 332
scalar OsgEarthNet.uav[5] utilizationCountManeuversMission 5904
scalar OsgEarthNet.uav[5] utilizationCountManeuversMaintenance 664
scalar OsgEarthNet.uav[5] utilizationCountChargeState 332
scalar OsgEarthNet.uav[5] utilizationCountOverdrawnAfterMission 0
scalar OsgEarthNet.uav[5] utilizationCountIdleState 1
scalar OsgEarthNet.uav[5] utilizationFail 0
scalar OsgEarthNet.uav[5] simulationTime 1209600
scalar OsgEarthNet.uav[6] utilizationSecMission 184856.19001464
scalar OsgEarthNet.uav[6] utilizationSecMaintenance 112695.72600557
scalar OsgEarthNet.uav[6] utilizationSecCharge 908870
scalar OsgEarthNet.uav[6] utilizationSecIdle 3178.0829797894
scalar OsgEarthNet.uav[6] utilizationEnergyMission 897751.25033253
scalar OsgEarthNet.uav[6] utilizationEnergyMaintenance 530443.71195602
scalar OsgEarthNet.uav[6] utilizationEnergyCharge 1433808.9677734
scalar OsgEarthNet.uav[6] utilizationEnergyOverdrawMission 0
scalar OsgEarthNet.uav[6] utilizationEnergyOverdrawMaintenance 0
scalar OsgEarthNet.uav[6] utilizationCountMissions 339
scalar OsgEarthNet.uav[6] utilizationCountManeuversMission 6205
scalar OsgEarthNet.uav[6] utilizationCountManeuversMaintenance 679
scalar OsgEarthNet.uav[6] utilizationCountChargeState 339
scalar OsgEarthNet.uav[6] utilizationCountOverdrawnAfterMission 0
scalar OsgEarthNet.uav[6] utilizationCountIdleState 2
scalar OsgEarthNet.uav[6] utilizationFail 0
scalar OsgEarthNet.uav[6] simulationTime 1209600
scalar OsgEarthNet.uav[7] utilizationSecMission 189886.31180299
scalar OsgEarthNet.uav[7] utilizationSecMaintenance 105735.4977447
scalar OsgEarthNet.uav[7] utilizationSecCharge 912062.74836361
scalar OsgEarthNet.uav[7] utilizationSecIdle 1915.4410886909
scalar OsgEarthNet.uav[7] utilizationEnergyMission 917671.08132553
scalar OsgEarthNet.uav[7] utilizationEnergyMaintenance 497461.62023163
scalar OsgEarthNet.uav[7] utilizationEnergyCharge 1418609.6118164
scalar OsgEarthNet.uav[7] utilizationEnergyOverdrawMission 0
scalar OsgEarthNet.uav[7] utilizationEnergyOverdrawMaintenance 0
scalar OsgEarthNet.uav[7] utilizationCountMissions 334
scalar OsgEarthNet.uav[7] utilizationCountManeuversMission 5906
scalar OsgEarthNet.uav[7] utilizationCountManeuversMaintenance 668
scalar OsgEarthNet.uav[7] utilizationCountChargeState 334
scalar OsgEarthNet.uav[7] utilizationCountOverdrawnAfterMission 0
scalar OsgEarthNet.uav[7] utilizationCountIdleState 3
scalar OsgEarthNet.uav[7] utilizationFail 0
scalar OsgEarthNet.uav[7] simulationTime 1209600
scalar OsgEarthNet.uav[8] utilizationSecMission 179295.90131515
scalar OsgEarthNet.uav[8] utilizationSecMaintenance 122509.91714855
scalar OsgEarthNet.uav[8] utilizationSecCharge 907792.1805363
scalar OsgEarthNet.uav[8] utilizationSecIdle 2
scalar OsgEarthNet.uav[8] utilizationEnergyMission 867034.41840741
scalar OsgEarthNet.uav[8] utilizationEnergyMaintenance 581974.80482483
scalar OsgEarthNet.uav[8] utilizationEnergyCharge 1443882.1455078
scalar OsgEarthNet.uav[8] utilizationEnergyOverdrawMission 0
scalar OsgEarthNet.uav[8] utilizationEnergyOverdrawMaintenance 0
scalar OsgEarthNet.uav[8] utilizationCountMissions 348
scalar OsgEarthNet.uav[8] utilizationCountManeuversMission 5800
scalar OsgEarthNet.uav[8] utilizationCountManeuversMaintenance 695
scalar OsgEarthNet.uav[8] utilizationCountChargeState 348
scalar OsgEarthNet.uav[8] utilizationCountOverdrawnAfterMission 0
scalar OsgEarthNet.uav[8] utilizationCountIdleState 1
scalar OsgEarthNet.uav[8] utilizationFail 0
scalar OsgEarthNet.uav[8] simulationTime 1209600
scalar OsgEarthNet.uav[9] utilizationSecMission 193814.43613985
scalar OsgEarthNet.uav[9] utilizationSecMaintenance 105333.55886014
scalar OsgEarthNet.uav[9] utilizationSecCharge 908670
scalar OsgEarthNet.uav[9] utilizationSecIdle 1782.004
scalar OsgEarthNet.uav[9] utilizationEnergyMission 941116.92095947
scalar OsgEarthNet.uav[9] utilizationEnergyMaintenance 494512.59920821
scalar OsgEarthNet.uav[9] utilizationEnergyCharge 1437753.4550781
scalar OsgEarthNet.uav[9] utilizationEnergyOverdrawMission 0
scalar OsgEarthNet.uav[9] utilizationEnergyOverdrawMaintenance 0
scalar OsgEarthNet.uav[9] utilizationCountMissions 331
scalar OsgEarthNet.uav[9] utilizationCountManeuversMission 6489
scalar OsgEarthNet.uav[9] utilizationCountManeuversMaintenance 662
scalar OsgEarthNet.uav[9] utilizationCountChargeState 330
scalar OsgEarthNet.uav[9] utilizationCountOverdrawnAfterMission 0
scalar OsgEarthNet.uav[9] utilizationCountIdleState 1
scalar OsgEarthNet.uav[9] utilizationFail 0
scalar OsgEarthNet.uav[9] simulationTime 1209600
scalar OsgEarthNet.uav[10] utilizationSecMission 200608.19393296
scalar OsgEarthNet.uav[10] utilizationSecMaintenance 99834.441375682
scalar OsgEarthNet.uav[10] utilizationSecCharge 906216.46101119
scalar OsgEarthNet.uav[10] utilizationSecIdle 2940.9026801665
scalar OsgEarthNet.uav[10] utilizationEnergyMission 972698.45628738
scalar OsgEarthNet.uav[10] utilizationEnergyMaintenance 463552.1015892
scalar OsgEarthNet.uav[10] utilizationEnergyCharge 1433784.1392822
scalar OsgEarthNet.uav[10] utilizationEnergyOverdrawMission 0
scalar OsgEarthNet.uav[10] utilizationEnergyOverdrawMaintenance 0
scalar OsgEarthNet.uav[10] utilizationCountMissions 329
scalar OsgEarthNet.uav[10] utilizationCountManeuversMission 6475
scalar OsgEarthNet.uav[10] utilizationCountManeuversMaintenance 658
scalar OsgEarthNet.uav[10] utilizationCountChargeState 329
scalar OsgEarthNet.uav[10] utilizationCountOverdrawnAfterMission 0
scalar OsgEarthNet.uav[10] utilizationCountIdleState 1
scalar OsgEarthNet.uav[10] utilizationFail 0
scalar OsgEarthNet.uav[10] simulationTime 1209600
scalar OsgEarthNet.uav[11] utilizationSecMission 198633.73379191
scalar OsgEarthNet.uav[11] utilizationSecMaintenance 100746.78358472
scalar OsgEarthNet.uav[11] utilizationSecCharge 908718.51763769
scalar OsgEarthNet.uav[11] utilizationSecIdle 1500.9639856735
scalar OsgEarthNet.uav[11] utilizationEnergyMission 953590.03886414
scalar OsgEarthNet.uav[11] utilizationEnergyMaintenance 473355.38665009
scalar OsgEarthNet.uav[11] utilizationEnergyCharge 1426659.0283203
scalar OsgEarthNet.uav[11] utilizationEnergyOverdrawMission 0
scalar OsgEarthNet.uav[11] utilizationEnergyOverdrawMaintenance 0
scalar OsgEarthNet.uav[11] utilizationCountMissions 329
scalar OsgEarthNet.uav[11] utilizationCountManeuversMission 5811
scalar OsgEarthNet.uav[11] utilizationCountManeuversMaintenance 658
scalar OsgEarthNet.uav[11] utilizationCountChargeState 329
scalar OsgEarthNet.uav[11] utilizationCountOverdrawnAfterMission 0
scalar OsgEarthNet.uav[11] utilizationCountIdleState 1
scalar OsgEarthNet.uav[11] utilizationFail 0
scalar OsgEarthNet.uav[11] simulationTime 1209600
scalar OsgEarthNet.uav[12] utilizationSecMission 191048.53719255
scalar OsgEarthNet.uav[12] utilizationSecMaintenance 108861.43335784
scalar OsgEarthNet.uav[12] utilizationSecCharge 908208.57549089
scalar OsgEarthNet.uav[12] utilizationSecIdle 1481.4529587171
scalar OsgEarthNet.uav[12] utilizationEnergyMission 927773.79577637
scalar OsgEarthNet.uav[12] utilizationEnergyMaintenance 512263.30534744
scalar OsgEarthNet.uav[12] utilizationEnergyCharge 1437971.5354004
scalar OsgEarthNet.uav[12] utilizationEnergyOverdrawMission 0
scalar OsgEarthNet.uav[12] utilizationEnergyOverdrawMaintenance 0
scalar OsgEarthNet.uav[12] utilizationCountMissions 336
scalar OsgEarthNet.uav[12] utilizationCountManeuversMission 6103
scalar OsgEarthNet.uav[12] utilizationCountManeuversMaintenance 672
scalar OsgEarthNet.uav[12] utilizationCountChargeState 336
scalar OsgEarthNet.uav[12] utilizationCountOverdrawnAfterMission 0
scalar OsgEarthNet.uav[12] utilizationCountIdleState 2
scalar OsgEarthNet.uav[12] utilizationFail 0
scalar OsgEarthNet.uav[12] simulationTime 1209600
scalar OsgEarthNet.uav[13] utilizationSecMission 185802.49278325
scalar OsgEarthNet.uav[13] utilizationSecMaintenance 111820.45782105
scalar OsgEarthNet.uav[13] utilizationSecCharge 911975.04839569
scalar OsgEarthNet.uav[13] utilizationSecIdle 2
scalar OsgEarthNet.uav[13] utilizationEnergyMission 897446.70689392
scalar OsgEarthNet.uav[13] utilizationEnergyMaintenance 527034.71362686
scalar OsgEarthNet.uav[13] utilizationEnergyCharge 1423845.5384521
scalar OsgEarthNet.uav[13] utilizationEnergyOverdrawMission 0
scalar OsgEarthNet.uav[13] utilizationEnergyOverdrawMaintenance 0
scalar OsgEarthNet.uav[13] utilizationCountMissions 341
scalar OsgEarthNet.uav[13] utilizationCountManeuversMission 5731
scalar OsgEarthNet.uav[13] utilizationCountManeuversMaintenance 681
scalar OsgEarthNet.uav[13] utilizationCountChargeState 341
scalar OsgEarthNet.uav[13] utilizationCountOverdrawnAfterMission 0
scalar OsgEarthNet.uav[13] utilizationCountIdleState 1
scalar OsgEarthNet.uav[13] utilizationFail 0
scalar OsgEarthNet.uav[13] simulationTime 1209600
scalar OsgEarthNet.uav[14] utilizationSecMission 192676.95151593
scalar OsgEarthNet.uav[14] utilizationSecMaintenance 107761.04748407
scalar OsgEarthNet.uav[14] utilizationSecCharge 909160
scalar OsgEarthNet.uav[14] utilizationSecIdle 2
scalar OsgEarthNet.uav[14] utilizationEnergyMission 929781.21531912
scalar OsgEarthNet.uav[14] utilizationEnergyMaintenance 506179.45798874
scalar OsgEarthNet.uav[14] utilizationEnergyCharge 1433900.8381348
scalar OsgEarthNet.uav[14] utilizationEnergyOverdrawMission 0
scalar OsgEarthNet.uav[14] utilizationEnergyOverdrawMaintenance 0
scalar OsgEarthNet.uav[14] utilizationCountMissions 337
scalar OsgEarthNet.uav[14] utilizationCountManeuversMission 5727
scalar OsgEarthNet.uav[14] utilizationCountManeuversMaintenance 675
scalar OsgEarthNet.uav[14] utilizationCountChargeState 337
scalar OsgEarthNet.uav[14] utilizationCountOverdrawnAfterMission 0
scalar OsgEarthNet.uav[14] utilizationCountIdleState 1
scalar OsgEarthNet.uav[14] utilizationFail 0
scalar OsgEarthNet.uav[14] simulationTime 1209600
scalar OsgEarthNet.uav[15] utilizationSecMission 181641.81070222
scalar OsgEarthNet.uav[15] utilizationSecMaintenance 114359.28335812
scalar OsgEarthNet.uav[15] utilizationSecCharge 912506.15525719
scalar OsgEarthNet.uav[15] utilizationSecIdle 1092.749682471
scalar OsgEarthNet.uav[15] utilizationEnergyMission 887124.98555374
scalar OsgEarthNet.uav[15] utilizationEnergyMaintenance 540273.24191284
scalar OsgEarthNet.uav[15] utilizationEnergyCharge 1422578.4445801
scalar OsgEarthNet.uav[15] utilizationEnergyOverdrawMission 0
scalar OsgEarthNet.uav[15] utilizationEnergyOverdrawMaintenance 0
scalar OsgEarthNet.uav[15] utilizationCountMissions 341
scalar OsgEarthNet.uav[15] utilizationCountManeuversMission 6026
scalar OsgEarthNet.uav[15] utilizationCountManeuversMaintenance 682
scalar OsgEarthNet.uav[15] utilizationCountChargeState 341
scalar OsgEarthNet.uav[15] utilizationCountOverdrawnAfterMission 0
scalar OsgEarthNet.uav[15] utilizationCountIdleState 2
scalar OsgEarthNet.uav[15] utilizationFail 0
scalar OsgEarthNet.uav[15] simulationTime 1209600
scalar OsgEarthNet.uav[16] utilizationSecMission 185094.35371532
scalar OsgEarthNet.uav[16] utilizationSecMaintenance 110323.64528468
scalar OsgEarthNet.uav[16] utilizationSecCharge 914170
scalar OsgEarthNet.uav[16] utilizationSecIdle 12
scalar OsgEarthNet.uav[16] utilizationEnergyMission 898875.86835041
scalar OsgEarthNet.uav[16] utilizationEnergyMaintenance 520172.55151749
scalar OsgEarthNet.uav[16] utilizationEnergyCharge 1412996.6345215
scalar OsgEarthNet.uav[16] utilizationEnergyOverdrawMission 0
scalar OsgEarthNet.uav[16] utilizationEnergyOverdrawMaintenance 0
scalar OsgEarthNet.uav[16] utilizationCountMissions 339
scalar OsgEarthNet.uav[16] utilizationCountManeuversMission 5650
scalar OsgEarthNet.uav[16] utilizationCountManeuversMaintenance 678
scalar OsgEarthNet.uav[16] utilizationCountChargeState 339
scalar OsgEarthNet.uav[16] utilizationCountOverdrawnAfterMission 0
scalar OsgEarthNet.uav[16] utilizationCountIdleState 2
scalar OsgEarthNet.uav[16] utilizationFail 0
scalar OsgEarthNet.uav[16] simulationTime 1209600
scalar OsgEarthNet.uav[17] utilizationSecMission 188274.85730836
scalar OsgEarthNet.uav[17] utilizationSecMaintenance 110694.03313849
scalar OsgEarthNet.uav[17] utilizationSecCharge 910629.10855315
scalar OsgEarthNet.uav[17] utilizationSecIdle 2
scalar OsgEarthNet.uav[17] utilizationEnergyMission 920206.79028702
scalar OsgEarthNet.uav[17] utilizationEnergyMaintenance 518753.91361618
scalar OsgEarthNet.uav[17] utilizationEnergyCharge 1437743.9733887
scalar OsgEarthNet.uav[17] utilizationEnergyOverdrawMission 0
scalar OsgEarthNet.uav[17] utilizationEnergyOverdrawMaintenance 0
scalar OsgEarthNet.uav[17] utilizationCountMissions 337
scalar OsgEarthNet.uav[17] utilizationCountManeuversMission 6253
scalar OsgEarthNet.uav[17] utilizationCountManeuversMaintenance 673
scalar OsgEarthNet.uav[17] utilizationCountChargeState 337
scalar OsgEarthNet.uav[17] utilizationCountOverdrawnAfterMission 0
scalar OsgEarthNet.uav[17] utilizationCountIdleState 1
scalar OsgEarthNet.uav[17] utilizationFail 0
scalar OsgEarthNet.uav[17] simulationTime 1209600
scalar OsgEarthNet.uav[18] utilizationSecMission 205998.33331339
scalar OsgEarthNet.uav[18] utilizationSecMaintenance 97187.733572642
scalar OsgEarthNet.uav[18] utilizationSecCharge 905751.93111396
scalar OsgEarthNet.uav[18] utilizationSecIdle 662.001
scalar OsgEarthNet.uav[18] utilizationEnergyMission 996309.11328888
scalar OsgEarthNet.uav[18] utilizationEnergyMaintenance 450525.40533066
scalar OsgEarthNet.uav[18] utilizationEnergyCharge 1438673.3071289
scalar OsgEarthNet.uav[18] utilizationEnergyOverdrawMission 0
scalar OsgEarthNet.uav[18] utilizationEnergyOverdrawMaintenance 0
scalar OsgEarthNet.uav[18] utilizationCountMissions 325
scalar OsgEarthNet.uav[18] utilizationCountManeuversMission 5984
scalar OsgEarthNet.uav[18] utilizationCountManeuversMaintenance 650
scalar OsgEarthNet.uav[18] utilizationCountChargeState 325
scalar OsgEarthNet.uav[18] utilizationCountOverdrawnAfterMission 0
scalar OsgEarthNet.uav[18] utilizationCountIdleState 1
scalar OsgEarthNet.uav[18] utilizationFail 0
scalar OsgEarthNet.uav[18] simulationTime 1209600
scalar OsgEarthNet.uav[19] utilizationSecMission 211425.34853399
scalar OsgEarthNet.uav[19] utilizationSecMaintenance 90622.472533602
scalar OsgEarthNet.uav[19] utilizationSecCharge 905061.22967675
scalar OsgEarthNet.uav[19] utilizationSecIdle 2490.9482556647
scalar OsgEarthNet.uav[19] utilizationEnergyMission 1022125.525631
scalar OsgEarthNet.uav[19] utilizationEnergyMaintenance 415856.79038239
scalar OsgEarthNet.uav[19] utilizationEnergyCharge 1436020.4949341
scalar OsgEarthNet.uav[19] utilizationEnergyOverdrawMission 0
scalar OsgEarthNet.uav[19] utilizationEnergyOverdrawMaintenance 0
scalar OsgEarthNet.uav[19] utilizationCountMissions 322
scalar OsgEarthNet.uav[19] utilizationCountManeuversMission 6492
scalar OsgEarthNet.uav[19] utilizationCountManeuversMaintenance 644
scalar OsgEarthNet.uav[19] utilizationCountChargeState 322
scalar OsgEarthNet.uav[19] utilizationCountOverdrawnAfterMission 0
scalar OsgEarthNet.uav[19] utilizationCountIdleState 2
scalar OsgEarthNet.uav[19] utilizationFail 0
scalar OsgEarthNet.uav[19] simulationTime 1209600
scalar OsgEarthNet.uav[20] utilizationSecMission 191816.25817037
scalar OsgEarthNet.uav[20] utilizationSecMaintenance 104908.14253429
scalar OsgEarthNet.uav[20] utilizationSecCharge 909934.64903967
scalar OsgEarthNet.uav[20] utilizationSecIdle 2940.9492556647
scalar OsgEarthNet.uav[20] utilizationEnergyMission 929313.6250267
scalar OsgEarthNet.uav[20] utilizationEnergyMaintenance 492495.19001389
scalar OsgEarthNet.uav[20] utilizationEnergyCharge 1427496.8979492
scalar OsgEarthNet.uav[20] utilizationEnergyOverdrawMission 0
scalar OsgEarthNet.uav[20] utilizationEnergyOverdrawMaintenance 0
scalar OsgEarthNet.uav[20] utilizationCountMissions 332
scalar OsgEarthNet.uav[20] utilizationCountManeuversMission 6324
scalar OsgEarthNet.uav[20] utilizationCountManeuversMaintenance 664
scalar OsgEarthNet.uav[20] utilizationCountChargeState 332
scalar OsgEarthNet.uav[20] utilizationCountOverdrawnAfterMission 0
scalar OsgEarthNet.uav[20] utilizationCountIdleState 1
scalar OsgEarthNet.uav[20] utilizationFail 0
scalar OsgEarthNet.uav[20] simulationTime 1209600
scalar OsgEarthNet.uav[21] utilizationSecMission 178471.91352502
scalar OsgEarthNet.uav[21] utilizationSecMaintenance 114721.57562888
scalar OsgEarthNet.uav[21] utilizationSecCharge 914398.50999558
scalar OsgEarthNet.uav[21] utilizationSecIdle 2007.9998505245
scalar OsgEarthNet.uav[21] utilizationEnergyMission 868493.88341522
scalar OsgEarthNet.uav[21] utilizationEnergyMaintenance 541319.28171921
scalar OsgEarthNet.uav[21] utilizationEnergyCharge 1409630.2209473
scalar OsgEarthNet.uav[21] utilizationEnergyOverdrawMission 0
scalar OsgEarthNet.uav[21] utilizationEnergyOverdrawMaintenance 0
scalar OsgEarthNet.uav[21] utilizationCountMissions 342
scalar OsgEarthNet.uav[21] utilizationCountManeuversMission 5795
scalar OsgEarthNet.uav[21] utilizationCountManeuversMaintenance 684
scalar OsgEarthNet.uav[21] utilizationCountChargeState 342
scalar OsgEarthNet.uav[21] utilizationCountOverdrawnAfterMission 0
scalar OsgEarthNet.uav[21] utilizationCountIdleState 1
scalar OsgEarthNet.uav[21] utilizationFail 0
scalar OsgEarthNet.uav[21] simulationTime 1209600
scalar OsgEarthNet.uav[22] utilizationSecMission 205158.06809102
scalar OsgEarthNet.uav[22] utilizationSecMaintenance 93343.499947923
scalar OsgEarthNet.uav[22] utilizationSecCharge 910409.21134714
scalar OsgEarthNet.uav[22] utilizationSecIdle 689.21961391566
scalar OsgEarthNet.uav[22] utilizationEnergyMission 993919.72532654
scalar OsgEarthNet.uav[22] utilizationEnergyMaintenance 431272.47198105
scalar OsgEarthNet.uav[22] utilizationEnergyCharge 1428224.7307129
scalar OsgEarthNet.uav[22] utilizationEnergyOverdrawMission 0
scalar OsgEarthNet.uav[22] utilizationEnergyOverdrawMaintenance 0
scalar OsgEarthNet.uav[22] utilizationCountMissions 323
scalar OsgEarthNet.uav[22] utilizationCountManeuversMission 6519
scalar OsgEarthNet.uav[22] utilizationCountManeuversMaintenance 646
scalar OsgEarthNet.uav[22] utilizationCountChargeState 323
scalar OsgEarthNet.uav[22] utilizationCountOverdrawnAfterMission 0
scalar OsgEarthNet.uav[22] utilizationCountIdleState 1
scalar OsgEarthNet.uav[22] utilizationFail 0
scalar OsgEarthNet.uav[22] simulationTime 1209600
scalar OsgEarthNet.uav[23] utilizationSecMission 195102.24773541
scalar OsgEarthNet.uav[23] utilizationSecMaintenance 104108.96581911
scalar OsgEarthNet.uav[23] utilizationSecCharge 909906.78444548
scalar OsgEarthNet.uav[23] utilizationSecIdle 482.001
scalar OsgEarthNet.uav[23] utilizationEnergyMission 939157.45903778
scalar OsgEarthNet.uav[23] utilizationEnergyMaintenance 488801.92576981
scalar OsgEarthNet.uav[23] utilizationEnergyCharge 1429003.4523926
scalar OsgEarthNet.uav[23] utilizationEnergyOverdrawMission 0
scalar OsgEarthNet.uav[23] utilizationEnergyOverdrawMaintenance 0
scalar OsgEarthNet.uav[23] utilizationCountMissions 335
scalar OsgEarthNet.uav[23] utilizationCountManeuversMission 5873
scalar OsgEarthNet.uav[23] utilizationCountManeuversMaintenance 670
scalar OsgEarthNet.uav[23] utilizationCountChargeState 335
scalar OsgEarthNet.uav[23] utilizationCountOverdrawnAfterMission 0
scalar OsgEarthNet.uav[23] utilizationCountIdleState 1
scalar OsgEarthNet.uav[23] utilizationFail 0
scalar OsgEarthNet.uav[23] simulationTime 1209600
scalar OsgEarthNet.uav[24] utilizationSecMission 197251.47451137
scalar OsgEarthNet.uav[24] utilizationSecMaintenance 100300.06872683
scalar OsgEarthNet.uav[24] utilizationSecCharge 911156.45425508
scalar OsgEarthNet.uav[24] utilizationSecIdle 892.00150672213
scalar OsgEarthNet.uav[24] utilizationEnergyMission 950620.52017212
scalar OsgEarthNet.uav[24] utilizationEnergyMaintenance 469520.22430038
scalar OsgEarthNet.uav[24] utilizationEnergyCharge 1415471.4645996
scalar OsgEarthNet.uav[24] utilizationEnergyOverdrawMission 0
scalar OsgEarthNet.uav[24] utilizationEnergyOverdrawMaintenance 0
scalar OsgEarthNet.uav[24] utilizationCountMissions 329
scalar OsgEarthNet.uav[24] utilizationCountManeuversMission 5815
scalar OsgEarthNet.uav[24] utilizationCountManeuversMaintenance 658
scalar OsgEarthNet.uav[24] utilizationCountChargeState 329
scalar OsgEarthNet.uav[24] utilizationCountOverdrawnAfterMission 0
scalar OsgEarthNet.uav[24] utilizationCountIdleState 1
scalar OsgEarthNet.uav[24] utilizationFail 0
scalar OsgEarthNet.uav[24] simulationTime 1209600
scalar OsgEarthNet.uav[25] utilizationSecMission 188694.28266496
scalar OsgEarthNet.uav[25] utilizationSecMaintenance 108193.71433504
scalar OsgEarthNet.uav[25] utilizationSecCharge 911690
scalar OsgEarthNet.uav[25] utilizationSecIdle 1022.002
scalar OsgEarthNet.uav[25] utilizationEnergyMission 914517.14201101
scalar OsgEarthNet.uav[25] utilizationEnergyMaintenance 508762.50933456
scalar OsgEarthNet.uav[25] utilizationEnergyCharge 1419914.4421387
scalar OsgEarthNet.uav[25] utilizationEnergyOverdrawMission 0
scalar OsgEarthNet.uav[25] utilizationEnergyOverdrawMaintenance 0
scalar OsgEarthNet.uav[25] utilizationCountMissions 336
scalar OsgEarthNet.uav[25] utilizationCountManeuversMission 5507
scalar OsgEarthNet.uav[25] utilizationCountManeuversMaintenance 673
scalar OsgEarthNet.uav[25] utilizationCountChargeState 336
scalar OsgEarthNet.uav[25] utilizationCountOverdrawnAfterMission 0
scalar OsgEarthNet.uav[25] utilizationCountIdleState 1
scalar OsgEarthNet.uav[25] utilizationFail 0
scalar OsgEarthNet.uav[25] simulationTime 1209600
scalar OsgEarthNet.uav[26] utilizationSecMission 207222.55813983
scalar OsgEarthNet.uav[26] utilizationSecMaintenance 94849.219571723
scalar OsgEarthNet.uav[26] utilizationSecCharge 904804.26324892
scalar OsgEarthNet.uav[26] utilizationSecIdle 2723.9580395329
scalar OsgEarthNet.uav[26] utilizationEnergyMission 1000201.718956
scalar OsgEarthNet.uav[26] utilizationEnergyMaintenance 440401.44805527
scalar OsgEarthNet.uav[26] utilizationEnergyCharge 1441844.5168457
scalar OsgEarthNet.uav[26] utilizationEnergyOverdrawMission 0
scalar OsgEarthNet.uav[26] utilizationEnergyOverdrawMaintenance 0
scalar OsgEarthNet.uav[26] utilizationCountMissions 324
scalar OsgEarthNet.uav[26] utilizationCountManeuversMission 6284
scalar OsgEarthNet.uav[26] utilizationCountManeuversMaintenance 648
scalar OsgEarthNet.uav[26] utilizationCountChargeState 324
scalar OsgEarthNet.uav[26] utilizationCountOverdrawnAfterMission 0
scalar OsgEarthNet.uav[26] utilizationCountIdleState 1
scalar OsgEarthNet.uav[26] utilizationFail 0
scalar OsgEarthNet.uav[26] simulationTime 1209600
scalar OsgEarthNet.uav[27] utilizationSecMission 179274.71126498
scalar OsgEarthNet.uav[27] utilizationSecMaintenance 118217.79350721
scalar OsgEarthNet.uav[27] utilizationSecCharge 911035.49222782
scalar OsgEarthNet.uav[27] utilizationSecIdle 1072.002
scalar OsgEarthNet.uav[27] utilizationEnergyMission 872417.29043579
scalar OsgEarthNet.uav[27] utilizationEnergyMaintenance 559856.65412903
scalar OsgEarthNet.uav[27] utilizationEnergyCharge 1426970.8348389
scalar OsgEarthNet.uav[27] utilizationEnergyOverdrawMission 0
scalar OsgEarthNet.uav[27] utilizationEnergyOverdrawMaintenance 0
scalar OsgEarthNet.uav[27] utilizationCountMissions 344
scalar OsgEarthNet.uav[27] utilizationCountManeuversMission 5799
scalar OsgEarthNet.uav[27] utilizationCountManeuversMaintenance 688
scalar OsgEarthNet.uav[27] utilizationCountChargeState 344
scalar OsgEarthNet.uav[27] utilizationCountOverdrawnAfterMission 0
scalar OsgEarthNet.uav[27] utilizationCountIdleState 2
scalar OsgEarthNet.uav[27] utilizationFail 0
scalar OsgEarthNet.uav[27] simulationTime 1209600
scalar OsgEarthNet.uav[28] utilizationSecMission 194616.90260738
scalar OsgEarthNet.uav[28] utilizationSecMaintenance 106969.90575841
scalar OsgEarthNet.uav[28] utilizationSecCharge 906091.1876342
scalar OsgEarthNet.uav[28] utilizationSecIdle 1922.003
scalar OsgEarthNet.uav[28] utilizationEnergyMission 942793.82974243
scalar OsgEarthNet.uav[28] utilizationEnergyMaintenance 500887.84634399
scalar OsgEarthNet.uav[28] utilizationEnergyCharge 1437642.2228394
scalar OsgEarthNet.uav[28] utilizationEnergyOverdrawMission 0
scalar OsgEarthNet.uav[28] utilizationEnergyOverdrawMaintenance 0
scalar OsgEarthNet.uav[28] utilizationCountMissions 335
scalar OsgEarthNet.uav[28] utilizationCountManeuversMission 6150
scalar OsgEarthNet.uav[28] utilizationCountManeuversMaintenance 670
scalar OsgEarthNet.uav[28] utilizationCountChargeState 335
scalar OsgEarthNet.uav[28] utilizationCountOverdrawnAfterMission 0
scalar OsgEarthNet.uav[28] utilizationCountIdleState 1
scalar OsgEarthNet.uav[28] utilizationFail 0
scalar OsgEarthNet.uav[28] simulationTime 1209600
scalar OsgEarthNet.uav[29] utilizationSecMission 193859.91132368
scalar OsgEarthNet.uav[29] utilizationSecMaintenance 108015.77198651
scalar OsgEarthNet.uav[29] utilizationSecCharge 905612.37668324
scalar OsgEarthNet.uav[29] utilizationSecIdle 2111.939006574
scalar OsgEarthNet.uav[29] utilizationEnergyMission 938669.24863052
scalar OsgEarthNet.uav[29] utilizationEnergyMaintenance 506432.32225037
scalar OsgEarthNet.uav[29] utilizationEnergyCharge 1444785.501709
scalar OsgEarthNet.uav[29] utilizationEnergyOverdrawMission 0
scalar OsgEarthNet.uav[29] utilizationEnergyOverdrawMaintenance 0
scalar OsgEarthNet.uav[29] utilizationCountMissions 333
scalar OsgEarthNet.uav[29] utilizationCountManeuversMission 6102
scalar OsgEarthNet.uav[29] utilizationCountManeuversMaintenance 666
scalar OsgEarthNet.uav[29] utilizationCountChargeState 333
scalar OsgEarthNet.uav[29] utilizationCountOverdrawnAfterMission 0
scalar OsgEarthNet.uav[29] utilizationCountIdleState 2
scalar OsgEarthNet.uav[29] utilizationFail 0
scalar OsgEarthNet.uav[29] simulationTime 1209600
scalar OsgEarthNet.uav[30] utilizationSecMission 182806.77624852
scalar OsgEarthNet.uav[30] utilizationSecMaintenance 113758.22272004
scalar OsgEarthNet.uav[30] utilizationSecCharge 911672.99703144
scalar OsgEarthNet.uav[30] utilizationSecIdle 1362.003
scalar OsgEarthNet.uav[30] utilizationEnergyMission 888561.04032135
scalar OsgEarthNet.uav[30] utilizationEnergyMaintenance 539706.64230347
scalar OsgEarthNet.uav[30] utilizationEnergyCharge 1423518.4802246
scalar OsgEarthNet.uav[30] utilizationEnergyOverdrawMission 0
scalar OsgEarthNet.uav[30] utilizationEnergyOverdrawMaintenance 0
scalar OsgEarthNet.uav[30] utilizationCountMissions 341
scalar OsgEarthNet.uav[30] utilizationCountManeuversMission 5839
scalar OsgEarthNet.uav[30] utilizationCountManeuversMaintenance 682
scalar OsgEarthNet.uav[30] utilizationCountChargeState 341
scalar OsgEarthNet.uav[30] utilizationCountOverdrawnAfterMission 0
scalar OsgEarthNet.uav[30] utilizationCountIdleState 1
scalar OsgEarthNet.uav[30] utilizationFail 0
scalar OsgEarthNet.uav[30] simulationTime 1209600
scalar OsgEarthNet.uav[31] utilizationSecMission 178972.28269205
scalar OsgEarthNet.uav[31] utilizationSecMaintenance 116360.40022612
scalar OsgEarthNet.uav[31] utilizationSecCharge 911850
scalar OsgEarthNet.uav[31] utilizationSecIdle 2417.3160818306
scalar OsgEarthNet.uav[31] utilizationEnergyMission 868015.62615552
scalar OsgEarthNet.uav[31] utilizationEnergyMaintenance 552192.04699707
scalar OsgEarthNet.uav[31] utilizationEnergyCharge 1418991.7407227
scalar OsgEarthNet.uav[31] utilizationEnergyOverdrawMission 0
scalar OsgEarthNet.uav[31] utilizationEnergyOverdrawMaintenance 0
scalar OsgEarthNet.uav[31] utilizationCountMissions 350
scalar OsgEarthNet.uav[31] utilizationCountManeuversMission 5563
scalar OsgEarthNet.uav[31] utilizationCountManeuversMaintenance 701
scalar OsgEarthNet.uav[31] utilizationCountChargeState 350
scalar OsgEarthNet.uav[31] utilizationCountOverdrawnAfterMission 0
scalar OsgEarthNet.uav[31] utilizationCountIdleState 1
scalar OsgEarthNet.uav[31] utilizationFail 0
scalar OsgEarthNet.uav[31] simulationTime 1209600
scalar OsgEarthNet.uav[32] utilizationSecMission 203234.73259777
scalar OsgEarthNet.uav[32] utilizationSecMaintenance 99352.720656931
scalar OsgEarthNet.uav[32] utilizationSecCharge 906068.04780412
scalar OsgEarthNet.uav[32] utilizationSecIdle 944.49794117561
scalar OsgEarthNet.uav[32] utilizationEnergyMission 983556.42786407
scalar OsgEarthNet.uav[32] utilizationEnergyMaintenance 459681.56538391
scalar OsgEarthNet.uav[32] utilizationEnergyCharge 1444576.9726562
scalar OsgEarthNet.uav[32] utilizationEnergyOverdrawMission 0
scalar OsgEarthNet.uav[32] utilizationEnergyOverdrawMaintenance 0
scalar OsgEarthNet.uav[32] utilizationCountMissions 329
scalar OsgEarthNet.uav[32] utilizationCountManeuversMission 6179
scalar OsgEarthNet.uav[32] utilizationCountManeuversMaintenance 658
scalar OsgEarthNet.uav[32] utilizationCountChargeState 329
scalar OsgEarthNet.uav[32] utilizationCountOverdrawnAfterMission 0
scalar OsgEarthNet.uav[32] utilizationCountIdleState 2
scalar OsgEarthNet.uav[32] utilizationFail 0
scalar OsgEarthNet.uav[32] simulationTime 1209600
scalar OsgEarthNet.uav[33] utilizationSecMission 192071.04186654
scalar OsgEarthNet.uav[33] utilizationSecMaintenance 108391.57450514
scalar OsgEarthNet.uav[33] utilizationSecCharge 906791.48795373
scalar OsgEarthNet.uav[33] utilizationSecIdle 2345.8946745852
scalar OsgEarthNet.uav[33] utilizationEnergyMission 933765.66437912
scalar OsgEarthNet.uav[33] utilizationEnergyMaintenance 509034.27902985
scalar OsgEarthNet.uav[33] utilizationEnergyCharge 1445576.4833984
scalar OsgEarthNet.uav[33] utilizationEnergyOverdrawMission 0
scalar OsgEarthNet.uav[33] utilizationEnergyOverdrawMaintenance 0
scalar OsgEarthNet.uav[33] utilizationCountMissions 334
scalar OsgEarthNet.uav[33] utilizationCountManeuversMission 6028
scalar OsgEarthNet.uav[33] utilizationCountManeuversMaintenance 668
scalar OsgEarthNet.uav[33] utilizationCountChargeState 334
scalar OsgEarthNet.uav[33] utilizationCountOverdrawnAfterMission 0
scalar OsgEarthNet.uav[33] utilizationCountIdleState 1
scalar OsgEarthNet.uav[33] utilizationFail 0
scalar OsgEarthNet.uav[33] simulationTime 1209600
scalar OsgEarthNet.uav[34] utilizationSecMission 198736.52767852
scalar OsgEarthNet.uav[34] utilizationSecMaintenance 101104.71701069
scalar OsgEarthNet.uav[34] utilizationSecCharge 907196.74931079
scalar OsgEarthNet.uav[34] utilizationSecIdle 2562.005
scalar OsgEarthNet.uav[34] utilizationEnergyMission 965156.49836349
scalar OsgEarthNet.uav[34] utilizationEnergyMaintenance 472488.02483368
scalar OsgEarthNet.uav[34] utilizationEnergyCharge 1439506.0275879
scalar OsgEarthNet.uav[34] utilizationEnergyOverdrawMission 0
scalar OsgEarthNet.uav[34] utilizationEnergyOverdrawMaintenance 0
scalar OsgEarthNet.uav[34] utilizationCountMissions 328
scalar OsgEarthNet.uav[34] utilizationCountManeuversMission 6511
scalar OsgEarthNet.uav[34] utilizationCountManeuversMaintenance 656
scalar OsgEarthNet.uav[34] utilizationCountChargeState 328
scalar OsgEarthNet.uav[34] utilizationCountOverdrawnAfterMission 0
scalar OsgEarthNet.uav[34] utilizationCountIdleState 1
scalar OsgEarthNet.uav[34] utilizationFail 0
scalar OsgEarthNet.uav[34] simulationTime 1209600
scalar OsgEarthNet.uav[35] utilizationSecMission 203601.6810667
scalar OsgEarthNet.uav[35] utilizationSecMaintenance 96145.680160795
scalar OsgEarthNet.uav[35] utilizationSecCharge 908300.6347725
scalar OsgEarthNet.uav[35] utilizationSecIdle 1552.003
scalar OsgEarthNet.uav[35] utilizationEnergyMission 991858.93917847
scalar OsgEarthNet.uav[35] utilizationEnergyMaintenance 447513.7575531
scalar OsgEarthNet.uav[35] utilizationEnergyCharge 1431218.0138245
scalar OsgEarthNet.uav[35] utilizationEnergyOverdrawMission 0
scalar OsgEarthNet.uav[35] utilizationEnergyOverdrawMaintenance 0
scalar OsgEarthNet.uav[35] utilizationCountMissions 327
scalar OsgEarthNet.uav[35] utilizationCountManeuversMission 6313
scalar OsgEarthNet.uav[35] utilizationCountManeuversMaintenance 654
scalar OsgEarthNet.uav[35] utilizationCountChargeState 327
scalar OsgEarthNet.uav[35] utilizationCountOverdrawnAfterMission 0
scalar OsgEarthNet.uav[35] utilizationCountIdleState 2
scalar OsgEarthNet.uav[35] utilizationFail 0
scalar OsgEarthNet.uav[35] simulationTime 1209600
scalar OsgEarthNet.uav[36] utilizationSecMission 203323.83890274
scalar OsgEarthNet.uav[36] utilizationSecMaintenance 97235.805536392
scalar OsgEarthNet.uav[36] utilizationSecCharge 906530.41028718
scalar OsgEarthNet.uav[36] utilizationSecIdle 2509.9442736896
scalar OsgEarthNet.uav[36] utilizationEnergyMission 982505.0395546
scalar OsgEarthNet.uav[36] utilizationEnergyMaintenance 453696.10165024
scalar OsgEarthNet.uav[36] utilizationEnergyCharge 1438872.6162109
scalar OsgEarthNet.uav[36] utilizationEnergyOverdrawMission 0
scalar OsgEarthNet.uav[36] utilizationEnergyOverdrawMaintenance 0
scalar OsgEarthNet.uav[36] utilizationCountMissions 325
scalar OsgEarthNet.uav[36] utilizationCountManeuversMission 6139
scalar OsgEarthNet.uav[36] utilizationCountManeuversMaintenance 650
scalar OsgEarthNet.uav[36] utilizationCountChargeState 325
scalar OsgEarthNet.uav[36] utilizationCountOverdrawnAfterMission 0
scalar OsgEarthNet.uav[36] utilizationCountIdleState 1
scalar OsgEarthNet.uav[36] utilizationFail 0
scalar OsgEarthNet.uav[36] simulationTime 1209600
scalar OsgEarthNet.uav[37] utilizationSecMission 186931.23966928
scalar OsgEarthNet.uav[37] utilizationSecMaintenance 113103.31624203
scalar OsgEarthNet.uav[37] utilizationSecCharge 907020
scalar OsgEarthNet.uav[37] utilizationSecIdle 2545.443088691
scalar OsgEarthNet.uav[37] utilizationEnergyMission 917219.54444692
scalar OsgEarthNet.uav[37] utilizationEnergyMaintenance 533723.1055069
scalar OsgEarthNet.uav[37] utilizationEnergyCharge 1438880.3720703
scalar OsgEarthNet.uav[37] utilizationEnergyOverdrawMission 0
scalar OsgEarthNet.uav[37] utilizationEnergyOverdrawMaintenance 0
scalar OsgEarthNet.uav[37] utilizationCountMissions 339
scalar OsgEarthNet.uav[37] utilizationCountManeuversMission 5961
scalar OsgEarthNet.uav[37] utilizationCountManeuversMaintenance 679
scalar OsgEarthNet.uav[37] utilizationCountChargeState 339
scalar OsgEarthNet.uav[37] utilizationCountOverdrawnAfterMission 0
scalar OsgEarthNet.uav[37] utilizationCountIdleState 1
scalar OsgEarthNet.uav[37] utilizationFail 0
scalar OsgEarthNet.uav[37] simulationTime 1209600
scalar OsgEarthNet.uav[38] utilizationSecMission 192150.04646825
scalar OsgEarthNet.uav[38] utilizationSecMaintenance 105856.98449935
scalar OsgEarthNet.uav[38] utilizationSecCharge 911580.9680324
scalar OsgEarthNet.uav[38] utilizationSecIdle 12
scalar OsgEarthNet.uav[38] utilizationEnergyMission 928059.07420349
scalar OsgEarthNet.uav[38] utilizationEnergyMaintenance 496194.68190002
scalar OsgEarthNet.uav[38] utilizationEnergyCharge 1427662.032959
scalar OsgEarthNet.uav[38] utilizationEnergyOverdrawMission 0
scalar OsgEarthNet.uav[38] utilizationEnergyOverdrawMaintenance 0
scalar OsgEarthNet.uav[38] utilizationCountMissions 336
scalar OsgEarthNet.uav[38] utilizationCountManeuversMission 5920
scalar OsgEarthNet.uav[38] utilizationCountManeuversMaintenance 672
scalar OsgEarthNet.uav[38] utilizationCountChargeState 336
scalar OsgEarthNet.uav[38] utilizationCountOverdrawnAfterMission 0
scalar OsgEarthNet.uav[38] utilizationCountIdleState 2
scalar OsgEarthNet.uav[38] utilizationFail 0
scalar OsgEarthNet.uav[38] simulationTime 1209600
scalar OsgEarthNet.uav[39] utilizationSecMission 201959.00586069
scalar OsgEarthNet.uav[39] utilizationSecMaintenance 98582.412482433
scalar OsgEarthNet.uav[39] utilizationSecCharge 906190
scalar OsgEarthNet.uav[39] utilizationSecIdle 2868.5806568717
scalar OsgEarthNet.uav[39] utilizationEnergyMission 973394.90652466
scalar OsgEarthNet.uav[39] utilizationEnergyMaintenance 458386.53075982
scalar OsgEarthNet.uav[39] utilizationEnergyCharge 1432149.6394043
scalar OsgEarthNet.uav[39] utilizationEnergyOverdrawMission 0
scalar OsgEarthNet.uav[39] utilizationEnergyOverdrawMaintenance 0
scalar OsgEarthNet.uav[39] utilizationCountMissions 328
scalar OsgEarthNet.uav[39] utilizationCountManeuversMission 6080
scalar OsgEarthNet.uav[39] utilizationCountManeuversMaintenance 656
scalar OsgEarthNet.uav[39] utilizationCountChargeState 327
scalar OsgEarthNet.uav[39] utilizationCountOverdrawnAfterMission 0
scalar OsgEarthNet.uav[39] utilizationCountIdleState 2
scalar OsgEarthNet.uav[39] utilizationFail 0
scalar OsgEarthNet.uav[39] simulationTime 1209600
scalar OsgEarthNet.uav[40] utilizationSecMission 196091.17123423
scalar OsgEarthNet.uav[40] utilizationSecMaintenance 105560.06050618
scalar OsgEarthNet.uav[40] utilizationSecCharge 907026.76525959
scalar OsgEarthNet.uav[40] utilizationSecIdle 922.002
scalar OsgEarthNet.uav[40] utilizationEnergyMission 949914.26442337
scalar OsgEarthNet.uav[40] utilizationEnergyMaintenance 494670.79771805
scalar OsgEarthNet.uav[40] utilizationEnergyCharge 1444030.0969238
scalar OsgEarthNet.uav[40] utilizationEnergyOverdrawMission 0
scalar OsgEarthNet.uav[40] utilizationEnergyOverdrawMaintenance 0
scalar OsgEarthNet.uav[40] utilizationCountMissions 332
scalar OsgEarthNet.uav[40] utilizationCountManeuversMission 6211
scalar OsgEarthNet.uav[40] utilizationCountManeuversMaintenance 664
scalar OsgEarthNet.uav[40] utilizationCountChargeState 332
scalar OsgEarthNet.uav[40] utilizationCountOverdrawnAfterMission 0
scalar OsgEarthNet.uav[40] utilizationCountIdleState 2
scalar OsgEarthNet.uav[40] utilizationFail 0
scalar OsgEarthNet.uav[40] simulationTime 1209600
scalar OsgEarthNet.uav[41] utilizationSecMission 200430.03923625
scalar OsgEarthNet.uav[41] utilizationSecMaintenance 100831.60616087
scalar OsgEarthNet.uav[41] utilizationSecCharge 906530
scalar OsgEarthNet.uav[41] utilizationSecIdle 1808.3536028792
scalar OsgEarthNet.uav[41] utilizationEnergyMission 970348.31812612
scalar OsgEarthNet.uav[41] utilizationEnergyMaintenance 472378.52158737
scalar OsgEarthNet.uav[41] utilizationEnergyCharge 1441006.0578613
scalar OsgEarthNet.uav[41] utilizationEnergyOverdrawMission 0
scalar OsgEarthNet.uav[41] utilizationEnergyOverdrawMaintenance 0
scalar OsgEarthNet.uav[41] utilizationCountMissions 330
scalar OsgEarthNet.uav[41] utilizationCountManeuversMission 6006
scalar OsgEarthNet.uav[41] utilizationCountManeuversMaintenance 661
scalar OsgEarthNet.uav[41] utilizationCountChargeState 330
scalar OsgEarthNet.uav[41] utilizationCountOverdrawnAfterMission 0
scalar OsgEarthNet.uav[41] utilizationCountIdleState 1
scalar OsgEarthNet.uav[41] utilizationFail 0
scalar OsgEarthNet.uav[41] simulationTime 1209600
scalar OsgEarthNet.uav[42] utilizationSecMission 202499.6363367
scalar OsgEarthNet.uav[42] utilizationSecMaintenance 95548.625443854
scalar OsgEarthNet.uav[42] utilizationSecCharge 910229.73521945
scalar OsgEarthNet.uav[42] utilizationSecIdle 1322.002
scalar OsgEarthNet.uav[42] utilizationEnergyMission 973382.70580673
scalar OsgEarthNet.uav[42] utilizationEnergyMaintenance 443911.71513367
scalar OsgEarthNet.uav[42] utilizationEnergyCharge 1416225.7525635
scalar OsgEarthNet.uav[42] utilizationEnergyOverdrawMission 0
scalar OsgEarthNet.uav[42] utilizationEnergyOverdrawMaintenance 0
scalar OsgEarthNet.uav[42] utilizationCountMissions 329
scalar OsgEarthNet.uav[42] utilizationCountManeuversMission 6010
scalar OsgEarthNet.uav[42] utilizationCountManeuversMaintenance 658
scalar OsgEarthNet.uav[42] utilizationCountChargeState 329
scalar OsgEarthNet.uav[42] utilizationCountOverdrawnAfterMission 0
scalar OsgEarthNet.uav[42] utilizationCountIdleState 1
scalar OsgEarthNet.uav[42] utilizationFail 0
scalar OsgEarthNet.uav[42] simulationTime 1209600
scalar OsgEarthNet.uav[43] utilizationSecMission 193028.86777808
scalar OsgEarthNet.uav[43] utilizationSecMaintenance 107904.51254378
scalar OsgEarthNet.uav[43] utilizationSecCharge 908120
scalar OsgEarthNet.uav[43] utilizationSecIdle 546.61867814046
scalar OsgEarthNet.uav[43] utilizationEnergyMission 932026.14436524
scalar OsgEarthNet.uav[43] utilizationEnergyMaintenance 507996.78295517
scalar OsgEarthNet.uav[43] utilizationEnergyCharge 1436567.2470703
scalar OsgEarthNet.uav[43] utilizationEnergyOverdrawMission 0
scalar OsgEarthNet.uav[43] utilizationEnergyOverdrawMaintenance 0
scalar OsgEarthNet.uav[43] utilizationCountMissions 336
scalar OsgEarthNet.uav[43] utilizationCountManeuversMission 6063
scalar OsgEarthNet.uav[43] utilizationCountManeuversMaintenance 673
scalar OsgEarthNet.uav[43] utilizationCountChargeState 336
scalar OsgEarthNet.uav[43] utilizationCountOverdrawnAfterMission 0
scalar OsgEarthNet.uav[43] utilizationCountIdleState 1
scalar OsgEarthNet.uav[43] utilizationFail 0
scalar OsgEarthNet.uav[43] simulationTime 1209600
scalar OsgEarthNet.uav[44] utilizationSecMission 176437.38061565
scalar OsgEarthNet.uav[44] utilizationSecMaintenance 122039.82829585
scalar OsgEarthNet.uav[44] utilizationSecCharge 909480.7870885
scalar OsgEarthNet.uav[44] utilizationSecIdle 1642.003
scalar OsgEarthNet.uav[44] utilizationEnergyMission 855361.20278549
scalar OsgEarthNet.uav[44] utilizationEnergyMaintenance 581563.10113907
scalar OsgEarthNet.uav[44] utilizationEnergyCharge 1442537.2160645
scalar OsgEarthNet.uav[44] utilizationEnergyOverdrawMission 0
scalar OsgEarthNet.uav[44] utilizationEnergyOverdrawMaintenance 0
scalar OsgEarthNet.uav[44] utilizationCountMissions 345
scalar OsgEarthNet.uav[44] utilizationCountManeuversMission 5745
scalar OsgEarthNet.uav[44] utilizationCountManeuversMaintenance 690
scalar OsgEarthNet.uav[44] utilizationCountChargeState 345
scalar OsgEarthNet.uav[44] utilizationCountOverdrawnAfterMission 0
scalar OsgEarthNet.uav[44] utilizationCountIdleState 1
scalar OsgEarthNet.uav[44] utilizationFail 0
scalar OsgEarthNet.uav[44] simulationTime 1209600
scalar OsgEarthNet.uav[45] utilizationSecMission 189166.7612985
scalar OsgEarthNet.uav[45] utilizationSecMaintenance 109422.27772278
scalar OsgEarthNet.uav[45] utilizationSecCharge 909189.28692933
scalar OsgEarthNet.uav[45] utilizationSecIdle 1821.673049383
scalar OsgEarthNet.uav[45] utilizationEnergyMission 916737.03131866
scalar OsgEarthNet.uav[45] utilizationEnergyMaintenance 516155.44940567
scalar OsgEarthNet.uav[45] utilizationEnergyCharge 1431788.1655273
scalar OsgEarthNet.uav[45] utilizationEnergyOverdrawMission 0
scalar OsgEarthNet.uav[45] utilizationEnergyOverdrawMaintenance 0
scalar OsgEarthNet.uav[45] utilizationCountMissions 334
scalar OsgEarthNet.uav[45] utilizationCountManeuversMission 6193
scalar OsgEarthNet.uav[45] utilizationCountManeuversMaintenance 668
scalar OsgEarthNet.uav[45] utilizationCountChargeState 334
scalar OsgEarthNet.uav[45] utilizationCountOverdrawnAfterMission 0
scalar OsgEarthNet.uav[45] utilizationCountIdleState 2
scalar OsgEarthNet.uav[45] utilizationFail 0
scalar OsgEarthNet.uav[45] simulationTime 1209600
scalar OsgEarthNet.uav[46] utilizationSecMission 195175.73338088
scalar OsgEarthNet.uav[46] utilizationSecMaintenance 103002.26561912
scalar OsgEarthNet.uav[46] utilizationSecCharge 911280
scalar OsgEarthNet.uav[46] utilizationSecIdle 142
scalar OsgEarthNet.uav[46] utilizationEnergyMission 943986.54525435
scalar OsgEarthNet.uav[46] utilizationEnergyMaintenance 482899.77119064
scalar OsgEarthNet.uav[46] utilizationEnergyCharge 1427015.9643555
scalar OsgEarthNet.uav[46] utilizationEnergyOverdrawMission 0
scalar OsgEarthNet.uav[46] utilizationEnergyOverdrawMaintenance 0
scalar OsgEarthNet.uav[46] utilizationCountMissions 332
scalar OsgEarthNet.uav[46] utilizationCountManeuversMission 5845
scalar OsgEarthNet.uav[46] utilizationCountManeuversMaintenance 665
scalar OsgEarthNet.uav[46] utilizationCountChargeState 332
scalar OsgEarthNet.uav[46] utilizationCountOverdrawnAfterMission 0
scalar OsgEarthNet.uav[46] utilizationCountIdleState 4
scalar OsgEarthNet.uav[46] utilizationFail 0
scalar OsgEarthNet.uav[46] simulationTime 1209600
scalar OsgEarthNet.uav[47] utilizationSecMission 198779.32410759
scalar OsgEarthNet.uav[47] utilizationSecMaintenance 101772.77208565
scalar OsgEarthNet.uav[47] utilizationSecCharge 908525.90180676
scalar OsgEarthNet.uav[47] utilizationSecIdle 522.001
scalar OsgEarthNet.uav[47] utilizationEnergyMission 959288.62243271
scalar OsgEarthNet.uav[47] utilizationEnergyMaintenance 473170.16815567
scalar OsgEarthNet.uav[47] utilizationEnergyCharge 1429421.3653564
scalar OsgEarthNet.uav[47] utilizationEnergyOverdrawMission 0
scalar OsgEarthNet.uav[47] utilizationEnergyOverdrawMaintenance 0
scalar OsgEarthNet.uav[47] utilizationCountMissions 329
scalar OsgEarthNet.uav[47] utilizationCountManeuversMission 6182
scalar OsgEarthNet.uav[47] utilizationCountManeuversMaintenance 658
scalar OsgEarthNet.uav[47] utilizationCountChargeState 329
scalar OsgEarthNet.uav[47] utilizationCountOverdrawnAfterMission 0
scalar OsgEarthNet.uav[47] utilizationCountIdleState 1
scalar OsgEarthNet.uav[47] utilizationFail 0
scalar OsgEarthNet.uav[47] simulationTime 1209600
scalar OsgEarthNet.uav[48] utilizationSecMission 194460.02684482
scalar OsgEarthNet.uav[48] utilizationSecMaintenance 103963.18384088
scalar OsgEarthNet.uav[48] utilizationSecCharge 911084.7883143
scalar OsgEarthNet.uav[48] utilizationSecIdle 92
scalar OsgEarthNet.uav[48] utilizationEnergyMission 943177.93824387
scalar OsgEarthNet.uav[48] utilizationEnergyMaintenance 486741.61538315
scalar OsgEarthNet.uav[48] utilizationEnergyCharge 1426556.4793701
scalar OsgEarthNet.uav[48] utilizationEnergyOverdrawMission 0
scalar OsgEarthNet.uav[48] utilizationEnergyOverdrawMaintenance 0
scalar OsgEarthNet.uav[48] utilizationCountMissions 333
scalar OsgEarthNet.uav[48] utilizationCountManeuversMission 6105
scalar OsgEarthNet.uav[48] utilizationCountManeuversMaintenance 666
scalar OsgEarthNet.uav[48] utilizationCountChargeState 333
scalar OsgEarthNet.uav[48] utilizationCountOverdrawnAfterMission 0
scalar OsgEarthNet.uav[48] utilizationCountIdleState 3
scalar OsgEarthNet.uav[48] utilizationFail 0
scalar OsgEarthNet.uav[48] simulationTime 1209600
scalar OsgEarthNet.uav[49] utilizationSecMission 188810.60448119
scalar OsgEarthNet.uav[49] utilizationSecMaintenance 114639.61442222
scalar OsgEarthNet.uav[49] utilizationSecCharge 903427.77409659
scalar OsgEarthNet.uav[49] utilizationSecIdle 2722.006
scalar OsgEarthNet.uav[49] utilizationEnergyMission 918905.26858521
scalar OsgEarthNet.uav[49] utilizationEnergyMaintenance 539869.50002289
scalar OsgEarthNet.uav[49] utilizationEnergyCharge 1449945.3829346
scalar OsgEarthNet.uav[49] utilizationEnergyOverdrawMission 0
scalar OsgEarthNet.uav[49] utilizationEnergyOverdrawMaintenance 0
scalar OsgEarthNet.uav[49] utilizationCountMissions 337
scalar OsgEarthNet.uav[49] utilizationCountManeuversMission 6043
scalar OsgEarthNet.uav[49] utilizationCountManeuversMaintenance 674
scalar OsgEarthNet.uav[49] utilizationCountChargeState 337
scalar OsgEarthNet.uav[49] utilizationCountOverdrawnAfterMission 0
scalar OsgEarthNet.uav[49] utilizationCountIdleState 1
scalar OsgEarthNet.uav[49] utilizationFail 0
scalar OsgEarthNet.uav[49] simulationTime 1209600
scalar OsgEarthNet.uav[50] utilizationSecMission 197789.85514539
scalar OsgEarthNet.uav[50] utilizationSecMaintenance 103414.2961934
scalar OsgEarthNet.uav[50] utilizationSecCharge 906103.8426612
scalar OsgEarthNet.uav[50] utilizationSecIdle 2292.005
scalar OsgEarthNet.uav[50] utilizationEnergyMission 958801.16283035
scalar OsgEarthNet.uav[50] utilizationEnergyMaintenance 483269.4262352
scalar OsgEarthNet.uav[50] utilizationEnergyCharge 1437155.1242676
scalar OsgEarthNet.uav[50] utilizationEnergyOverdrawMission 0
scalar OsgEarthNet.uav[50] utilizationEnergyOverdrawMaintenance 0
scalar OsgEarthNet.uav[50] utilizationCountMissions 333
scalar OsgEarthNet.uav[50] utilizationCountManeuversMission 5897
scalar OsgEarthNet.uav[50] utilizationCountManeuversMaintenance 666
scalar OsgEarthNet.uav[50] utilizationCountChargeState 333
scalar OsgEarthNet.uav[50] utilizationCountOverdrawnAfterMission 0
scalar OsgEarthNet.uav[50] utilizationCountIdleState 2
scalar OsgEarthNet.uav[50] utilizationFail 0
scalar OsgEarthNet.uav[50] simulationTime 1209600
scalar OsgEarthNet.uav[51] utilizationSecMission 189153.93981139
scalar OsgEarthNet.uav[51] utilizationSecMaintenance 112458.24602294
scalar OsgEarthNet.uav[51] utilizationSecCharge 905672.37107698
scalar OsgEarthNet.uav[51] utilizationSecIdle 2315.4420886909
scalar OsgEarthNet.uav[51] utilizationEnergyMission 919279.74409103
scalar OsgEarthNet.uav[51] utilizationEnergyMaintenance 530512.59263611
scalar OsgEarthNet.uav[51] utilizationEnergyCharge 1440036.2370605
scalar OsgEarthNet.uav[51] utilizationEnergyOverdrawMission 0
scalar OsgEarthNet.uav[51] utilizationEnergyOverdrawMaintenance 0
scalar OsgEarthNet.uav[51] utilizationCountMissions 339
scalar OsgEarthNet.uav[51] utilizationCountManeuversMission 5987
scalar OsgEarthNet.uav[51] utilizationCountManeuversMaintenance 678
scalar OsgEarthNet.uav[51] utilizationCountChargeState 339
scalar OsgEarthNet.uav[51] utilizationCountOverdrawnAfterMission 0
scalar OsgEarthNet.uav[51] utilizationCountIdleState 3
scalar OsgEarthNet.uav[51] utilizationFail 0
scalar OsgEarthNet.uav[51] simulationTime 1209600
scalar OsgEarthNet.uav[52] utilizationSecMission 190479.06302603
scalar OsgEarthNet.uav[52] utilizationSecMaintenance 107102.3639789
scalar OsgEarthNet.uav[52] utilizationSecCharge 911536.57099507
scalar OsgEarthNet.uav[52] utilizationSecIdle 482.001
scalar OsgEarthNet.uav[52] utilizationEnergyMission 927915.87018585
scalar OsgEarthNet.uav[52] utilizationEnergyMaintenance 503952.2988472
scalar OsgEarthNet.uav[52] utilizationEnergyCharge 1426082.7893066
scalar OsgEarthNet.uav[52] utilizationEnergyOverdrawMission 0
scalar OsgEarthNet.uav[52] utilizationEnergyOverdrawMaintenance 0
scalar OsgEarthNet.uav[52] utilizationCountMissions 338
scalar OsgEarthNet.uav[52] utilizationCountManeuversMission 6025
scalar OsgEarthNet.uav[52] utilizationCountManeuversMaintenance 676
scalar OsgEarthNet.uav[52] utilizationCountChargeState 338
scalar OsgEarthNet.uav[52] utilizationCountOverdrawnAfterMission 0
scalar OsgEarthNet.uav[52] utilizationCountIdleState 1
scalar OsgEarthNet.uav[52] utilizationFail 0
scalar OsgEarthNet.uav[52] simulationTime 1209600
scalar OsgEarthNet.uav[53] utilizationSecMission 174594.25574452
scalar OsgEarthNet.uav[53] utilizationSecMaintenance 119598.68934311
scalar OsgEarthNet.uav[53] utilizationSecCharge 913657.73579388
scalar OsgEarthNet.uav[53] utilizationSecIdle 1749.318118478
scalar OsgEarthNet.uav[53] utilizationEnergyMission 852944.0512886
scalar OsgEarthNet.uav[53] utilizationEnergyMaintenance 565504.22409821
scalar OsgEarthNet.uav[53] utilizationEnergyCharge 1414386.5565796
scalar OsgEarthNet.uav[53] utilizationEnergyOverdrawMission 0
scalar OsgEarthNet.uav[53] utilizationEnergyOverdrawMaintenance 0
scalar OsgEarthNet.uav[53] utilizationCountMissions 349
scalar OsgEarthNet.uav[53] utilizationCountManeuversMission 5645
scalar OsgEarthNet.uav[53] utilizationCountManeuversMaintenance 698
scalar OsgEarthNet.uav[53] utilizationCountChargeState 349
scalar OsgEarthNet.uav[53] utilizationCountOverdrawnAfterMission 0
scalar OsgEarthNet.uav[53] utilizationCountIdleState 1
scalar OsgEarthNet.uav[53] utilizationFail 0
scalar OsgEarthNet.uav[53] simulationTime 1209600
scalar OsgEarthNet.uav[54] utilizationSecMission 179654.71186212
scalar OsgEarthNet.uav[54] utilizationSecMaintenance 119324.70269078
scalar OsgEarthNet.uav[54] utilizationSecCharge 908090.7842285
scalar OsgEarthNet.uav[54] utilizationSecIdle 2529.8002186065
scalar OsgEarthNet.uav[54] utilizationEnergyMission 876341.99394989
scalar OsgEarthNet.uav[54] utilizationEnergyMaintenance 567119.53248215
scalar OsgEarthNet.uav[54] utilizationEnergyCharge 1437210.6901855
scalar OsgEarthNet.uav[54] utilizationEnergyOverdrawMission 0
scalar OsgEarthNet.uav[54] utilizationEnergyOverdrawMaintenance 0
scalar OsgEarthNet.uav[54] utilizationCountMissions 344
scalar OsgEarthNet.uav[54] utilizationCountManeuversMission 5907
scalar OsgEarthNet.uav[54] utilizationCountManeuversMaintenance 688
scalar OsgEarthNet.uav[54] utilizationCountChargeState 344
scalar OsgEarthNet.uav[54] utilizationCountOverdrawnAfterMission 0
scalar OsgEarthNet.uav[54] utilizationCountIdleState 1
scalar OsgEarthNet.uav[54] utilizationFail 0
scalar OsgEarthNet.uav[54] simulationTime 1209600
scalar OsgEarthNet.uav[55] utilizationSecMission 200581.28632593
scalar OsgEarthNet.uav[55] utilizationSecMaintenance 100888.30668385
scalar OsgEarthNet.uav[55] utilizationSecCharge 906690.98064293
scalar OsgEarthNet.uav[55] utilizationSecIdle 1439.4253472904
scalar OsgEarthNet.uav[55] utilizationEnergyMission 972153.12126541
scalar OsgEarthNet.uav[55] utilizationEnergyMaintenance 468851.70248795
scalar OsgEarthNet.uav[55] utilizationEnergyCharge 1436835.7827148
scalar OsgEarthNet.uav[55] utilizationEnergyOverdrawMission 0
scalar OsgEarthNet.uav[55] utilizationEnergyOverdrawMaintenance 0
scalar OsgEarthNet.uav[55] utilizationCountMissions 331
scalar OsgEarthNet.uav[55] utilizationCountManeuversMission 5953
scalar OsgEarthNet.uav[55] utilizationCountManeuversMaintenance 662
scalar OsgEarthNet.uav[55] utilizationCountChargeState 331
scalar OsgEarthNet.uav[55] utilizationCountOverdrawnAfterMission 0
scalar OsgEarthNet.uav[55] utilizationCountIdleState 1
scalar OsgEarthNet.uav[55] utilizationFail 0
scalar OsgEarthNet.uav[55] simulationTime 1209600
scalar OsgEarthNet.cs[0] usedPower 19688171.113965
scalar OsgEarthNet.cs[0] chargedPower 19688171.113965
scalar OsgEarthNet.cs[0] chargedMobileNodes 4
scalar OsgEarthNet.cs[0] reservations 4604
scalar OsgEarthNet.cs[1] usedPower 21854428.451018
scalar OsgEarthNet.cs[1] chargedPower 21854428.451018
scalar OsgEarthNet.cs[1] chargedMobileNodes 13
scalar OsgEarthNet.cs[1] reservations 5488
scalar OsgEarthNet.cs[2] usedPower 38610403.289127
scalar OsgEarthNet.cs[2] chargedPower 38610403.289127
scalar OsgEarthNet.cs[2] chargedMobileNodes 12
scalar OsgEarthNet.cs[2] reservations 8642

