version 2
run Szenario_Hotel_Gabelbach-10-20180712-17:49:01-1928
attr configname Szenario_Hotel_Gabelbach
attr datetime 20180712-17:49:01
attr experiment Szenario_Hotel_Gabelbach
attr inifile omnetpp.ini
attr iterationvars "$replM=2, $biWeight=0.35, $replSearchM=1, $numUAVs=57"
attr iterationvarsf replM=2,biWeight=0.35,replSearchM=1,numUAVs=57-
attr measurement "$replM=2, $biWeight=0.35, $replSearchM=1, $numUAVs=57"
attr network OsgEarthNet
attr processid 1928
attr repetition 4
attr replication #4
attr resultdir results
attr runnumber 10
attr seedset 10
itervar biWeight 0.35
itervar numUAVs 57
itervar replM 2
itervar replSearchM 1
param *.osgEarthScene.scene "\"Szenario_Hotel_Gabelbach.earth\""
param *.playgroundLatitude 50.6830269
param *.playgroundLongitude 10.8538055
param *.playgroundWidth 3500m
param *.playgroundHeight 3500m
param *.cs[0].posX 3537m
param *.cs[0].posY 965m
param *.cs[0].posZ 538m
param *.cs[1].posX 312m
param *.cs[1].posY 1262m
param *.cs[1].posZ 539m
param *.cs[2].posX 2185m
param *.cs[2].posY 3026m
param *.cs[2].posZ 777m
param *.cs[3].posX 10m
param *.cs[3].posY 2200m
param *.cs[3].posZ 560m
param *.cs[4].posX 750m
param *.cs[4].posY 200m
param *.cs[4].posZ 540m
param *.cs[5].posX 2450m
param *.cs[5].posY 180m
param *.cs[5].posZ 524m
param *.cs[6].posX 3140m
param *.cs[6].posY 1790m
param *.cs[6].posZ 606m
param *.numCSs 3
param *.uav[*].replacementMethod 2
param *.uav[*].weightedSumWeight 0.35
param *.missionControl.replacementSearchMethod 1
param *.numUAVs 57
param *.numCSs 3
param *.numUAVs 100
param *.*.timeStep 10s
param *.uav[*].commandPreviewCommandCount 20
param *.missionControl.missionFiles "\"missions\\\\Szenario_WB_Hotel_Gabelbach_Mission_Hotel.waypoints,missions\\\\Szenario_WB_Hotel_Gabelbach_Mission_Kickelhahn.waypoints,missions\\\\Szenario_WB_Hotel_Gabelbach_Mission_Ilmenau_Sportplatz.waypoints,missions\\\\Szenario_WB_Hotel_Gabelbach_Mission_Manebach_Mitte.waypoints,missions\\\\Szenario_WB_Hotel_Gabelbach_Mission_Manebach_Sued.waypoints,missions\\\\Szenario_WB_Hotel_Gabelbach_Hover_HoheSchlaufe.waypoints,missions\\\\Szenario_WB_Hotel_Gabelbach_Hover_Kickelhahn.waypoints,missions\\\\Szenario_WB_Hotel_Gabelbach_Hover_Gabelbachskopf.waypoints,missions\\\\Szenario_WB_Hotel_Gabelbach_Hover_Dachskopf.waypoints\""
param *.uav[0].startX 3537m
param *.uav[0].startY 965m
param *.uav[0].startZ 539m
param *.uav[1].startX 312m
param *.uav[1].startY 1262m
param *.uav[1].startZ 540m
param *.uav[2].startX 2185m
param *.uav[2].startY 3026m
param *.uav[2].startZ 778m
param *.uav[3].startX 3537m
param *.uav[3].startY 965m
param *.uav[3].startZ 539m
param *.uav[4].startX 312m
param *.uav[4].startY 1262m
param *.uav[4].startZ 540m
param *.uav[5].startX 2185m
param *.uav[5].startY 3026m
param *.uav[5].startZ 778m
param *.uav[6].startX 3537m
param *.uav[6].startY 965m
param *.uav[6].startZ 539m
param *.uav[7].startX 312m
param *.uav[7].startY 1262m
param *.uav[7].startZ 540m
param *.uav[8].startX 2185m
param *.uav[8].startY 3026m
param *.uav[8].startZ 778m
param *.uav[9].startX 3537m
param *.uav[9].startY 965m
param *.uav[9].startZ 539m
param *.uav[10].startX 3537m
param *.uav[10].startY 965m
param *.uav[10].startZ 539m
param *.uav[11].startX 312m
param *.uav[11].startY 1262m
param *.uav[11].startZ 540m
param *.uav[12].startX 2185m
param *.uav[12].startY 3026m
param *.uav[12].startZ 778m
param *.uav[13].startX 3537m
param *.uav[13].startY 965m
param *.uav[13].startZ 539m
param *.uav[14].startX 312m
param *.uav[14].startY 1262m
param *.uav[14].startZ 540m
param *.uav[15].startX 2185m
param *.uav[15].startY 3026m
param *.uav[15].startZ 778m
param *.uav[16].startX 3537m
param *.uav[16].startY 965m
param *.uav[16].startZ 539m
param *.uav[17].startX 312m
param *.uav[17].startY 1262m
param *.uav[17].startZ 540m
param *.uav[18].startX 2185m
param *.uav[18].startY 3026m
param *.uav[18].startZ 778m
param *.uav[19].startX 3537m
param *.uav[19].startY 965m
param *.uav[19].startZ 539m
param *.uav[20].startX 3537m
param *.uav[20].startY 965m
param *.uav[20].startZ 539m
param *.uav[21].startX 312m
param *.uav[21].startY 1262m
param *.uav[21].startZ 540m
param *.uav[22].startX 2185m
param *.uav[22].startY 3026m
param *.uav[22].startZ 778m
param *.uav[23].startX 3537m
param *.uav[23].startY 965m
param *.uav[23].startZ 539m
param *.uav[24].startX 312m
param *.uav[24].startY 1262m
param *.uav[24].startZ 540m
param *.uav[25].startX 2185m
param *.uav[25].startY 3026m
param *.uav[25].startZ 778m
param *.uav[26].startX 3537m
param *.uav[26].startY 965m
param *.uav[26].startZ 539m
param *.uav[27].startX 312m
param *.uav[27].startY 1262m
param *.uav[27].startZ 540m
param *.uav[28].startX 2185m
param *.uav[28].startY 3026m
param *.uav[28].startZ 778m
param *.uav[29].startX 3537m
param *.uav[29].startY 965m
param *.uav[29].startZ 539m
param *.uav[30].startX 3537m
param *.uav[30].startY 965m
param *.uav[30].startZ 539m
param *.uav[31].startX 312m
param *.uav[31].startY 1262m
param *.uav[31].startZ 540m
param *.uav[32].startX 2185m
param *.uav[32].startY 3026m
param *.uav[32].startZ 778m
param *.uav[33].startX 3537m
param *.uav[33].startY 965m
param *.uav[33].startZ 539m
param *.uav[34].startX 312m
param *.uav[34].startY 1262m
param *.uav[34].startZ 540m
param *.uav[35].startX 2185m
param *.uav[35].startY 3026m
param *.uav[35].startZ 778m
param *.uav[36].startX 3537m
param *.uav[36].startY 965m
param *.uav[36].startZ 539m
param *.uav[37].startX 312m
param *.uav[37].startY 1262m
param *.uav[37].startZ 540m
param *.uav[38].startX 2185m
param *.uav[38].startY 3026m
param *.uav[38].startZ 778m
param *.uav[39].startX 3537m
param *.uav[39].startY 965m
param *.uav[39].startZ 539m
param *.uav[40].startX 3537m
param *.uav[40].startY 965m
param *.uav[40].startZ 539m
param *.uav[41].startX 312m
param *.uav[41].startY 1262m
param *.uav[41].startZ 540m
param *.uav[42].startX 2185m
param *.uav[42].startY 3026m
param *.uav[42].startZ 778m
param *.uav[43].startX 3537m
param *.uav[43].startY 965m
param *.uav[43].startZ 539m
param *.uav[44].startX 312m
param *.uav[44].startY 1262m
param *.uav[44].startZ 540m
param *.uav[45].startX 2185m
param *.uav[45].startY 3026m
param *.uav[45].startZ 778m
param *.uav[46].startX 3537m
param *.uav[46].startY 965m
param *.uav[46].startZ 539m
param *.uav[47].startX 312m
param *.uav[47].startY 1262m
param *.uav[47].startZ 540m
param *.uav[48].startX 2185m
param *.uav[48].startY 3026m
param *.uav[48].startZ 778m
param *.uav[49].startX 3537m
param *.uav[49].startY 965m
param *.uav[49].startZ 539m
param *.uav[50].startX 3537m
param *.uav[50].startY 965m
param *.uav[50].startZ 539m
param *.uav[51].startX 312m
param *.uav[51].startY 1262m
param *.uav[51].startZ 540m
param *.uav[52].startX 2185m
param *.uav[52].startY 3026m
param *.uav[52].startZ 778m
param *.uav[53].startX 3537m
param *.uav[53].startY 965m
param *.uav[53].startZ 539m
param *.uav[54].startX 312m
param *.uav[54].startY 1262m
param *.uav[54].startZ 540m
param *.uav[55].startX 2185m
param *.uav[55].startY 3026m
param *.uav[55].startZ 778m
param *.uav[56].startX 3537m
param *.uav[56].startY 965m
param *.uav[56].startZ 539m
param *.uav[57].startX 312m
param *.uav[57].startY 1262m
param *.uav[57].startZ 540m
param *.uav[58].startX 2185m
param *.uav[58].startY 3026m
param *.uav[58].startZ 778m
param *.uav[59].startX 3537m
param *.uav[59].startY 965m
param *.uav[59].startZ 539m
param *.uav[60].startX 3537m
param *.uav[60].startY 965m
param *.uav[60].startZ 539m
param *.uav[61].startX 312m
param *.uav[61].startY 1262m
param *.uav[61].startZ 540m
param *.uav[62].startX 2185m
param *.uav[62].startY 3026m
param *.uav[62].startZ 778m
param *.uav[63].startX 3537m
param *.uav[63].startY 965m
param *.uav[63].startZ 539m
param *.uav[64].startX 312m
param *.uav[64].startY 1262m
param *.uav[64].startZ 540m
param *.uav[65].startX 2185m
param *.uav[65].startY 3026m
param *.uav[65].startZ 778m
param *.uav[66].startX 3537m
param *.uav[66].startY 965m
param *.uav[66].startZ 539m
param *.uav[67].startX 312m
param *.uav[67].startY 1262m
param *.uav[67].startZ 540m
param *.uav[68].startX 2185m
param *.uav[68].startY 3026m
param *.uav[68].startZ 778m
param *.uav[69].startX 3537m
param *.uav[69].startY 965m
param *.uav[69].startZ 539m
param *.uav[70].startX 3537m
param *.uav[70].startY 965m
param *.uav[70].startZ 539m
param *.uav[71].startX 312m
param *.uav[71].startY 1262m
param *.uav[71].startZ 540m
param *.uav[72].startX 2185m
param *.uav[72].startY 3026m
param *.uav[72].startZ 778m
param *.uav[73].startX 3537m
param *.uav[73].startY 965m
param *.uav[73].startZ 539m
param *.uav[74].startX 312m
param *.uav[74].startY 1262m
param *.uav[74].startZ 540m
param *.uav[75].startX 2185m
param *.uav[75].startY 3026m
param *.uav[75].startZ 778m
param *.uav[76].startX 3537m
param *.uav[76].startY 965m
param *.uav[76].startZ 539m
param *.uav[77].startX 312m
param *.uav[77].startY 1262m
param *.uav[77].startZ 540m
param *.uav[78].startX 2185m
param *.uav[78].startY 3026m
param *.uav[78].startZ 778m
param *.uav[79].startX 3537m
param *.uav[79].startY 965m
param *.uav[79].startZ 539m
param *.uav[80].startX 3537m
param *.uav[80].startY 965m
param *.uav[80].startZ 539m
param *.uav[81].startX 312m
param *.uav[81].startY 1262m
param *.uav[81].startZ 540m
param *.uav[82].startX 2185m
param *.uav[82].startY 3026m
param *.uav[82].startZ 778m
param *.uav[83].startX 3537m
param *.uav[83].startY 965m
param *.uav[83].startZ 539m
param *.uav[84].startX 312m
param *.uav[84].startY 1262m
param *.uav[84].startZ 540m
param *.uav[85].startX 2185m
param *.uav[85].startY 3026m
param *.uav[85].startZ 778m
param *.uav[86].startX 3537m
param *.uav[86].startY 965m
param *.uav[86].startZ 539m
param *.uav[87].startX 312m
param *.uav[87].startY 1262m
param *.uav[87].startZ 540m
param *.uav[88].startX 2185m
param *.uav[88].startY 3026m
param *.uav[88].startZ 778m
param *.uav[89].startX 3537m
param *.uav[89].startY 965m
param *.uav[89].startZ 539m
param *.uav[90].startX 3537m
param *.uav[90].startY 965m
param *.uav[90].startZ 539m
param *.uav[91].startX 312m
param *.uav[91].startY 1262m
param *.uav[91].startZ 540m
param *.uav[92].startX 2185m
param *.uav[92].startY 3026m
param *.uav[92].startZ 778m
param *.uav[93].startX 3537m
param *.uav[93].startY 965m
param *.uav[93].startZ 539m
param *.uav[94].startX 312m
param *.uav[94].startY 1262m
param *.uav[94].startZ 540m
param *.uav[95].startX 2185m
param *.uav[95].startY 3026m
param *.uav[95].startZ 778m
param *.uav[96].startX 3537m
param *.uav[96].startY 965m
param *.uav[96].startZ 539m
param *.uav[97].startX 312m
param *.uav[97].startY 1262m
param *.uav[97].startZ 540m
param *.uav[98].startX 2185m
param *.uav[98].startY 3026m
param *.uav[98].startZ 778m
param *.uav[99].startX 3537m
param *.uav[99].startY 965m
param *.uav[99].startZ 539m
param *.osgEarthScene.scene "\"boston.earth\""
param *.playgroundLatitude 42.3558
param *.playgroundLongitude -71.0677
param *.playgroundWidth 400m
param *.playgroundHeight 200m
param *.channelController.connectionColor "\"#0000FF40\""
param *.channelController.showConnections false
param *.uav[*].modelURL "\"quadrocopter.small.obj.15.scale.0,0,90.rot\""
param *.uav[*].labelColor "\"#FF7C00CC\""
param *.uav[*].label2Color "\"#FF7C00EE\""
param *.uav[*].batteryCapacity 5200mAh
param *.uav[*].batteryRemaining uav[index].batteryCapacity
param *.uav[*].predictionQuantile 0.95
param *.uav[*].replacementMethod 2
param *.uav[*].weightedSumWeight 0.5
param *.cs[*].modelURL "\"chargingstation_v1.osgt.2.scale.0,0,0.rot.0,0,-15e-1.trans\""
param *.cs[*].spotsWaiting 999
param *.cs[*].spotsCharging 999
param *.cs[*].chargeEffectivenessPercentage 100
param *.cs[*].nonLinearPhaseStartPercentage 85
param *.cs[*].chargeCurrent 6.0A
param *.cs[*].prioritizeFastCharge true
param *.missionControl.replacementSearchMethod 0
param *.*.timeStep 9s

scalar OsgEarthNet.uav[0] utilizationSecMission 198013.14184015
scalar OsgEarthNet.uav[0] utilizationSecMaintenance 95215.731293702
scalar OsgEarthNet.uav[0] utilizationSecCharge 913780.17761048
scalar OsgEarthNet.uav[0] utilizationSecIdle 2590.9482556647
scalar OsgEarthNet.uav[0] utilizationEnergyMission 951412.07077789
scalar OsgEarthNet.uav[0] utilizationEnergyMaintenance 443692.79119492
scalar OsgEarthNet.uav[0] utilizationEnergyCharge 1396152.7329102
scalar OsgEarthNet.uav[0] utilizationEnergyOverdrawMission 0
scalar OsgEarthNet.uav[0] utilizationEnergyOverdrawMaintenance 0
scalar OsgEarthNet.uav[0] utilizationCountMissions 319
scalar OsgEarthNet.uav[0] utilizationCountManeuversMission 5852
scalar OsgEarthNet.uav[0] utilizationCountManeuversMaintenance 638
scalar OsgEarthNet.uav[0] utilizationCountChargeState 319
scalar OsgEarthNet.uav[0] utilizationCountOverdrawnAfterMission 0
scalar OsgEarthNet.uav[0] utilizationCountIdleState 3
scalar OsgEarthNet.uav[0] utilizationFail 0
scalar OsgEarthNet.uav[0] simulationTime 1209600
scalar OsgEarthNet.uav[1] utilizationSecMission 192778.12842895
scalar OsgEarthNet.uav[1] utilizationSecMaintenance 97825.866539213
scalar OsgEarthNet.uav[1] utilizationSecCharge 916928.00418131
scalar OsgEarthNet.uav[1] utilizationSecIdle 2067.9998505245
scalar OsgEarthNet.uav[1] utilizationEnergyMission 939591.98873901
scalar OsgEarthNet.uav[1] utilizationEnergyMaintenance 456513.11472702
scalar OsgEarthNet.uav[1] utilizationEnergyCharge 1387951.515625
scalar OsgEarthNet.uav[1] utilizationEnergyOverdrawMission 0
scalar OsgEarthNet.uav[1] utilizationEnergyOverdrawMaintenance 0
scalar OsgEarthNet.uav[1] utilizationCountMissions 320
scalar OsgEarthNet.uav[1] utilizationCountManeuversMission 6084
scalar OsgEarthNet.uav[1] utilizationCountManeuversMaintenance 640
scalar OsgEarthNet.uav[1] utilizationCountChargeState 320
scalar OsgEarthNet.uav[1] utilizationCountOverdrawnAfterMission 0
scalar OsgEarthNet.uav[1] utilizationCountIdleState 3
scalar OsgEarthNet.uav[1] utilizationFail 0
scalar OsgEarthNet.uav[1] simulationTime 1209600
scalar OsgEarthNet.uav[2] utilizationSecMission 190746.35432793
scalar OsgEarthNet.uav[2] utilizationSecMaintenance 101143.77324115
scalar OsgEarthNet.uav[2] utilizationSecCharge 917447.87143091
scalar OsgEarthNet.uav[2] utilizationSecIdle 262
scalar OsgEarthNet.uav[2] utilizationEnergyMission 925906.14965474
scalar OsgEarthNet.uav[2] utilizationEnergyMaintenance 472951.7375412
scalar OsgEarthNet.uav[2] utilizationEnergyCharge 1404008.3178711
scalar OsgEarthNet.uav[2] utilizationEnergyOverdrawMission 0
scalar OsgEarthNet.uav[2] utilizationEnergyOverdrawMaintenance 0
scalar OsgEarthNet.uav[2] utilizationCountMissions 326
scalar OsgEarthNet.uav[2] utilizationCountManeuversMission 5982
scalar OsgEarthNet.uav[2] utilizationCountManeuversMaintenance 651
scalar OsgEarthNet.uav[2] utilizationCountChargeState 326
scalar OsgEarthNet.uav[2] utilizationCountOverdrawnAfterMission 0
scalar OsgEarthNet.uav[2] utilizationCountIdleState 6
scalar OsgEarthNet.uav[2] utilizationFail 0
scalar OsgEarthNet.uav[2] simulationTime 1209600
scalar OsgEarthNet.uav[3] utilizationSecMission 183865.95772956
scalar OsgEarthNet.uav[3] utilizationSecMaintenance 105565.96227551
scalar OsgEarthNet.uav[3] utilizationSecCharge 919136.07699493
scalar OsgEarthNet.uav[3] utilizationSecIdle 1032.002
scalar OsgEarthNet.uav[3] utilizationEnergyMission 894410.20830154
scalar OsgEarthNet.uav[3] utilizationEnergyMaintenance 496179.56874847
scalar OsgEarthNet.uav[3] utilizationEnergyCharge 1388706.8837891
scalar OsgEarthNet.uav[3] utilizationEnergyOverdrawMission 0
scalar OsgEarthNet.uav[3] utilizationEnergyOverdrawMaintenance 0
scalar OsgEarthNet.uav[3] utilizationCountMissions 325
scalar OsgEarthNet.uav[3] utilizationCountManeuversMission 5778
scalar OsgEarthNet.uav[3] utilizationCountManeuversMaintenance 650
scalar OsgEarthNet.uav[3] utilizationCountChargeState 325
scalar OsgEarthNet.uav[3] utilizationCountOverdrawnAfterMission 0
scalar OsgEarthNet.uav[3] utilizationCountIdleState 5
scalar OsgEarthNet.uav[3] utilizationFail 0
scalar OsgEarthNet.uav[3] simulationTime 1209600
scalar OsgEarthNet.uav[4] utilizationSecMission 181938.22547538
scalar OsgEarthNet.uav[4] utilizationSecMaintenance 110069.54195991
scalar OsgEarthNet.uav[4] utilizationSecCharge 915300.22756471
scalar OsgEarthNet.uav[4] utilizationSecIdle 2292.004
scalar OsgEarthNet.uav[4] utilizationEnergyMission 879648.2961731
scalar OsgEarthNet.uav[4] utilizationEnergyMaintenance 519950.94371414
scalar OsgEarthNet.uav[4] utilizationEnergyCharge 1392846.2158203
scalar OsgEarthNet.uav[4] utilizationEnergyOverdrawMission 0
scalar OsgEarthNet.uav[4] utilizationEnergyOverdrawMaintenance 0
scalar OsgEarthNet.uav[4] utilizationCountMissions 334
scalar OsgEarthNet.uav[4] utilizationCountManeuversMission 5441
scalar OsgEarthNet.uav[4] utilizationCountManeuversMaintenance 668
scalar OsgEarthNet.uav[4] utilizationCountChargeState 334
scalar OsgEarthNet.uav[4] utilizationCountOverdrawnAfterMission 0
scalar OsgEarthNet.uav[4] utilizationCountIdleState 5
scalar OsgEarthNet.uav[4] utilizationFail 0
scalar OsgEarthNet.uav[4] simulationTime 1209600
scalar OsgEarthNet.uav[5] utilizationSecMission 180530.80875741
scalar OsgEarthNet.uav[5] utilizationSecMaintenance 109715.57252529
scalar OsgEarthNet.uav[5] utilizationSecCharge 918131.6157173
scalar OsgEarthNet.uav[5] utilizationSecIdle 1222.002
scalar OsgEarthNet.uav[5] utilizationEnergyMission 878737.33283234
scalar OsgEarthNet.uav[5] utilizationEnergyMaintenance 516618.09091186
scalar OsgEarthNet.uav[5] utilizationEnergyCharge 1391697.8710938
scalar OsgEarthNet.uav[5] utilizationEnergyOverdrawMission 0
scalar OsgEarthNet.uav[5] utilizationEnergyOverdrawMaintenance 0
scalar OsgEarthNet.uav[5] utilizationCountMissions 328
scalar OsgEarthNet.uav[5] utilizationCountManeuversMission 5866
scalar OsgEarthNet.uav[5] utilizationCountManeuversMaintenance 656
scalar OsgEarthNet.uav[5] utilizationCountChargeState 328
scalar OsgEarthNet.uav[5] utilizationCountOverdrawnAfterMission 0
scalar OsgEarthNet.uav[5] utilizationCountIdleState 7
scalar OsgEarthNet.uav[5] utilizationFail 0
scalar OsgEarthNet.uav[5] simulationTime 1209600
scalar OsgEarthNet.uav[6] utilizationSecMission 190952.05858467
scalar OsgEarthNet.uav[6] utilizationSecMaintenance 102520.65714115
scalar OsgEarthNet.uav[6] utilizationSecCharge 914275.14346103
scalar OsgEarthNet.uav[6] utilizationSecIdle 1852.1398131443
scalar OsgEarthNet.uav[6] utilizationEnergyMission 925944.61585999
scalar OsgEarthNet.uav[6] utilizationEnergyMaintenance 478895.50880051
scalar OsgEarthNet.uav[6] utilizationEnergyCharge 1406694.3161621
scalar OsgEarthNet.uav[6] utilizationEnergyOverdrawMission 0
scalar OsgEarthNet.uav[6] utilizationEnergyOverdrawMaintenance 0
scalar OsgEarthNet.uav[6] utilizationCountMissions 323
scalar OsgEarthNet.uav[6] utilizationCountManeuversMission 6201
scalar OsgEarthNet.uav[6] utilizationCountManeuversMaintenance 646
scalar OsgEarthNet.uav[6] utilizationCountChargeState 323
scalar OsgEarthNet.uav[6] utilizationCountOverdrawnAfterMission 0
scalar OsgEarthNet.uav[6] utilizationCountIdleState 4
scalar OsgEarthNet.uav[6] utilizationFail 0
scalar OsgEarthNet.uav[6] simulationTime 1209600
scalar OsgEarthNet.uav[7] utilizationSecMission 174151.59519939
scalar OsgEarthNet.uav[7] utilizationSecMaintenance 112497.43981494
scalar OsgEarthNet.uav[7] utilizationSecCharge 921300
scalar OsgEarthNet.uav[7] utilizationSecIdle 1650.9639856735
scalar OsgEarthNet.uav[7] utilizationEnergyMission 842111.47339629
scalar OsgEarthNet.uav[7] utilizationEnergyMaintenance 533051.76449585
scalar OsgEarthNet.uav[7] utilizationEnergyCharge 1374197.0449219
scalar OsgEarthNet.uav[7] utilizationEnergyOverdrawMission 0
scalar OsgEarthNet.uav[7] utilizationEnergyOverdrawMaintenance 0
scalar OsgEarthNet.uav[7] utilizationCountMissions 334
scalar OsgEarthNet.uav[7] utilizationCountManeuversMission 5312
scalar OsgEarthNet.uav[7] utilizationCountManeuversMaintenance 669
scalar OsgEarthNet.uav[7] utilizationCountChargeState 334
scalar OsgEarthNet.uav[7] utilizationCountOverdrawnAfterMission 0
scalar OsgEarthNet.uav[7] utilizationCountIdleState 4
scalar OsgEarthNet.uav[7] utilizationFail 0
scalar OsgEarthNet.uav[7] simulationTime 1209600
scalar OsgEarthNet.uav[8] utilizationSecMission 181613.03009608
scalar OsgEarthNet.uav[8] utilizationSecMaintenance 113934.96790392
scalar OsgEarthNet.uav[8] utilizationSecCharge 912910
scalar OsgEarthNet.uav[8] utilizationSecIdle 1142.001
scalar OsgEarthNet.uav[8] utilizationEnergyMission 891420.64979867
scalar OsgEarthNet.uav[8] utilizationEnergyMaintenance 537503.27038193
scalar OsgEarthNet.uav[8] utilizationEnergyCharge 1429622.8015137
scalar OsgEarthNet.uav[8] utilizationEnergyOverdrawMission 0
scalar OsgEarthNet.uav[8] utilizationEnergyOverdrawMaintenance 0
scalar OsgEarthNet.uav[8] utilizationCountMissions 332
scalar OsgEarthNet.uav[8] utilizationCountManeuversMission 6205
scalar OsgEarthNet.uav[8] utilizationCountManeuversMaintenance 665
scalar OsgEarthNet.uav[8] utilizationCountChargeState 332
scalar OsgEarthNet.uav[8] utilizationCountOverdrawnAfterMission 0
scalar OsgEarthNet.uav[8] utilizationCountIdleState 6
scalar OsgEarthNet.uav[8] utilizationFail 0
scalar OsgEarthNet.uav[8] simulationTime 1209600
scalar OsgEarthNet.uav[9] utilizationSecMission 173882.24610335
scalar OsgEarthNet.uav[9] utilizationSecMaintenance 112566.28151435
scalar OsgEarthNet.uav[9] utilizationSecCharge 919839.68527977
scalar OsgEarthNet.uav[9] utilizationSecIdle 3311.7861025228
scalar OsgEarthNet.uav[9] utilizationEnergyMission 848133.23710632
scalar OsgEarthNet.uav[9] utilizationEnergyMaintenance 534436.67738724
scalar OsgEarthNet.uav[9] utilizationEnergyCharge 1376545.6223145
scalar OsgEarthNet.uav[9] utilizationEnergyOverdrawMission 0
scalar OsgEarthNet.uav[9] utilizationEnergyOverdrawMaintenance 0
scalar OsgEarthNet.uav[9] utilizationCountMissions 334
scalar OsgEarthNet.uav[9] utilizationCountManeuversMission 5494
scalar OsgEarthNet.uav[9] utilizationCountManeuversMaintenance 668
scalar OsgEarthNet.uav[9] utilizationCountChargeState 334
scalar OsgEarthNet.uav[9] utilizationCountOverdrawnAfterMission 0
scalar OsgEarthNet.uav[9] utilizationCountIdleState 5
scalar OsgEarthNet.uav[9] utilizationFail 0
scalar OsgEarthNet.uav[9] simulationTime 1209600
scalar OsgEarthNet.uav[10] utilizationSecMission 185086.28945596
scalar OsgEarthNet.uav[10] utilizationSecMaintenance 108361.52585755
scalar OsgEarthNet.uav[10] utilizationSecCharge 913014.79722502
scalar OsgEarthNet.uav[10] utilizationSecIdle 3137.3864614769
scalar OsgEarthNet.uav[10] utilizationEnergyMission 908694.55137634
scalar OsgEarthNet.uav[10] utilizationEnergyMaintenance 508573.85194016
scalar OsgEarthNet.uav[10] utilizationEnergyCharge 1404579.3017578
scalar OsgEarthNet.uav[10] utilizationEnergyOverdrawMission 0
scalar OsgEarthNet.uav[10] utilizationEnergyOverdrawMaintenance 0
scalar OsgEarthNet.uav[10] utilizationCountMissions 328
scalar OsgEarthNet.uav[10] utilizationCountManeuversMission 6013
scalar OsgEarthNet.uav[10] utilizationCountManeuversMaintenance 656
scalar OsgEarthNet.uav[10] utilizationCountChargeState 328
scalar OsgEarthNet.uav[10] utilizationCountOverdrawnAfterMission 0
scalar OsgEarthNet.uav[10] utilizationCountIdleState 5
scalar OsgEarthNet.uav[10] utilizationFail 0
scalar OsgEarthNet.uav[10] simulationTime 1209600
scalar OsgEarthNet.uav[11] utilizationSecMission 201047.89376533
scalar OsgEarthNet.uav[11] utilizationSecMaintenance 93112.377113922
scalar OsgEarthNet.uav[11] utilizationSecCharge 912255.02242171
scalar OsgEarthNet.uav[11] utilizationSecIdle 3184.7056990363
scalar OsgEarthNet.uav[11] utilizationEnergyMission 966988.32438278
scalar OsgEarthNet.uav[11] utilizationEnergyMaintenance 432684.46993637
scalar OsgEarthNet.uav[11] utilizationEnergyCharge 1400122.5885315
scalar OsgEarthNet.uav[11] utilizationEnergyOverdrawMission 0
scalar OsgEarthNet.uav[11] utilizationEnergyOverdrawMaintenance 0
scalar OsgEarthNet.uav[11] utilizationCountMissions 316
scalar OsgEarthNet.uav[11] utilizationCountManeuversMission 6128
scalar OsgEarthNet.uav[11] utilizationCountManeuversMaintenance 632
scalar OsgEarthNet.uav[11] utilizationCountChargeState 316
scalar OsgEarthNet.uav[11] utilizationCountOverdrawnAfterMission 0
scalar OsgEarthNet.uav[11] utilizationCountIdleState 8
scalar OsgEarthNet.uav[11] utilizationFail 0
scalar OsgEarthNet.uav[11] simulationTime 1209600
scalar OsgEarthNet.uav[12] utilizationSecMission 191150.52304861
scalar OsgEarthNet.uav[12] utilizationSecMaintenance 97755.587031415
scalar OsgEarthNet.uav[12] utilizationSecCharge 918510
scalar OsgEarthNet.uav[12] utilizationSecIdle 2183.8889199767
scalar OsgEarthNet.uav[12] utilizationEnergyMission 931651.56475173
scalar OsgEarthNet.uav[12] utilizationEnergyMaintenance 457122.16104889
scalar OsgEarthNet.uav[12] utilizationEnergyCharge 1382343.4106445
scalar OsgEarthNet.uav[12] utilizationEnergyOverdrawMission 0
scalar OsgEarthNet.uav[12] utilizationEnergyOverdrawMaintenance 0
scalar OsgEarthNet.uav[12] utilizationCountMissions 322
scalar OsgEarthNet.uav[12] utilizationCountManeuversMission 5969
scalar OsgEarthNet.uav[12] utilizationCountManeuversMaintenance 645
scalar OsgEarthNet.uav[12] utilizationCountChargeState 322
scalar OsgEarthNet.uav[12] utilizationCountOverdrawnAfterMission 0
scalar OsgEarthNet.uav[12] utilizationCountIdleState 3
scalar OsgEarthNet.uav[12] utilizationFail 0
scalar OsgEarthNet.uav[12] simulationTime 1209600
scalar OsgEarthNet.uav[13] utilizationSecMission 202926.43823637
scalar OsgEarthNet.uav[13] utilizationSecMaintenance 92371.380305563
scalar OsgEarthNet.uav[13] utilizationSecCharge 911699.41449273
scalar OsgEarthNet.uav[13] utilizationSecIdle 2602.765965339
scalar OsgEarthNet.uav[13] utilizationEnergyMission 980541.68723679
scalar OsgEarthNet.uav[13] utilizationEnergyMaintenance 429349.88549042
scalar OsgEarthNet.uav[13] utilizationEnergyCharge 1402782.8989868
scalar OsgEarthNet.uav[13] utilizationEnergyOverdrawMission 0
scalar OsgEarthNet.uav[13] utilizationEnergyOverdrawMaintenance 0
scalar OsgEarthNet.uav[13] utilizationCountMissions 317
scalar OsgEarthNet.uav[13] utilizationCountManeuversMission 6113
scalar OsgEarthNet.uav[13] utilizationCountManeuversMaintenance 634
scalar OsgEarthNet.uav[13] utilizationCountChargeState 317
scalar OsgEarthNet.uav[13] utilizationCountOverdrawnAfterMission 0
scalar OsgEarthNet.uav[13] utilizationCountIdleState 2
scalar OsgEarthNet.uav[13] utilizationFail 0
scalar OsgEarthNet.uav[13] simulationTime 1209600
scalar OsgEarthNet.uav[14] utilizationSecMission 175089.83570464
scalar OsgEarthNet.uav[14] utilizationSecMaintenance 113749.70193276
scalar OsgEarthNet.uav[14] utilizationSecCharge 918812.10775973
scalar OsgEarthNet.uav[14] utilizationSecIdle 1948.3536028792
scalar OsgEarthNet.uav[14] utilizationEnergyMission 852323.24177551
scalar OsgEarthNet.uav[14] utilizationEnergyMaintenance 540105.6914978
scalar OsgEarthNet.uav[14] utilizationEnergyCharge 1391419.6477051
scalar OsgEarthNet.uav[14] utilizationEnergyOverdrawMission 0
scalar OsgEarthNet.uav[14] utilizationEnergyOverdrawMaintenance 0
scalar OsgEarthNet.uav[14] utilizationCountMissions 334
scalar OsgEarthNet.uav[14] utilizationCountManeuversMission 5730
scalar OsgEarthNet.uav[14] utilizationCountManeuversMaintenance 668
scalar OsgEarthNet.uav[14] utilizationCountChargeState 334
scalar OsgEarthNet.uav[14] utilizationCountOverdrawnAfterMission 0
scalar OsgEarthNet.uav[14] utilizationCountIdleState 4
scalar OsgEarthNet.uav[14] utilizationFail 0
scalar OsgEarthNet.uav[14] simulationTime 1209600
scalar OsgEarthNet.uav[15] utilizationSecMission 206836.65951473
scalar OsgEarthNet.uav[15] utilizationSecMaintenance 91220.092188269
scalar OsgEarthNet.uav[15] utilizationSecCharge 911541.247297
scalar OsgEarthNet.uav[15] utilizationSecIdle 2
scalar OsgEarthNet.uav[15] utilizationEnergyMission 1005491.4141998
scalar OsgEarthNet.uav[15] utilizationEnergyMaintenance 418834.79595947
scalar OsgEarthNet.uav[15] utilizationEnergyCharge 1415173.1474609
scalar OsgEarthNet.uav[15] utilizationEnergyOverdrawMission 0
scalar OsgEarthNet.uav[15] utilizationEnergyOverdrawMaintenance 0
scalar OsgEarthNet.uav[15] utilizationCountMissions 315
scalar OsgEarthNet.uav[15] utilizationCountManeuversMission 6389
scalar OsgEarthNet.uav[15] utilizationCountManeuversMaintenance 630
scalar OsgEarthNet.uav[15] utilizationCountChargeState 315
scalar OsgEarthNet.uav[15] utilizationCountOverdrawnAfterMission 0
scalar OsgEarthNet.uav[15] utilizationCountIdleState 1
scalar OsgEarthNet.uav[15] utilizationFail 0
scalar OsgEarthNet.uav[15] simulationTime 1209600
scalar OsgEarthNet.uav[16] utilizationSecMission 178185.67098517
scalar OsgEarthNet.uav[16] utilizationSecMaintenance 109656.04402631
scalar OsgEarthNet.uav[16] utilizationSecCharge 918406.27798852
scalar OsgEarthNet.uav[16] utilizationSecIdle 3352.006
scalar OsgEarthNet.uav[16] utilizationEnergyMission 860084.46031189
scalar OsgEarthNet.uav[16] utilizationEnergyMaintenance 516359.69389725
scalar OsgEarthNet.uav[16] utilizationEnergyCharge 1378351.5501404
scalar OsgEarthNet.uav[16] utilizationEnergyOverdrawMission 0
scalar OsgEarthNet.uav[16] utilizationEnergyOverdrawMaintenance 0
scalar OsgEarthNet.uav[16] utilizationCountMissions 329
scalar OsgEarthNet.uav[16] utilizationCountManeuversMission 5704
scalar OsgEarthNet.uav[16] utilizationCountManeuversMaintenance 658
scalar OsgEarthNet.uav[16] utilizationCountChargeState 329
scalar OsgEarthNet.uav[16] utilizationCountOverdrawnAfterMission 0
scalar OsgEarthNet.uav[16] utilizationCountIdleState 9
scalar OsgEarthNet.uav[16] utilizationFail 0
scalar OsgEarthNet.uav[16] simulationTime 1209600
scalar OsgEarthNet.uav[17] utilizationSecMission 175278.06149346
scalar OsgEarthNet.uav[17] utilizationSecMaintenance 112363.44988779
scalar OsgEarthNet.uav[17] utilizationSecCharge 921916.48761875
scalar OsgEarthNet.uav[17] utilizationSecIdle 42
scalar OsgEarthNet.uav[17] utilizationEnergyMission 856647.7312355
scalar OsgEarthNet.uav[17] utilizationEnergyMaintenance 533323.82219315
scalar OsgEarthNet.uav[17] utilizationEnergyCharge 1387781.1945801
scalar OsgEarthNet.uav[17] utilizationEnergyOverdrawMission 0
scalar OsgEarthNet.uav[17] utilizationEnergyOverdrawMaintenance 0
scalar OsgEarthNet.uav[17] utilizationCountMissions 330
scalar OsgEarthNet.uav[17] utilizationCountManeuversMission 5864
scalar OsgEarthNet.uav[17] utilizationCountManeuversMaintenance 659
scalar OsgEarthNet.uav[17] utilizationCountChargeState 330
scalar OsgEarthNet.uav[17] utilizationCountOverdrawnAfterMission 0
scalar OsgEarthNet.uav[17] utilizationCountIdleState 2
scalar OsgEarthNet.uav[17] utilizationFail 0
scalar OsgEarthNet.uav[17] simulationTime 1209600
scalar OsgEarthNet.uav[18] utilizationSecMission 199290.24259324
scalar OsgEarthNet.uav[18] utilizationSecMaintenance 99322.306142729
scalar OsgEarthNet.uav[18] utilizationSecCharge 910220
scalar OsgEarthNet.uav[18] utilizationSecIdle 767.4502640309
scalar OsgEarthNet.uav[18] utilizationEnergyMission 968494.64401386
scalar OsgEarthNet.uav[18] utilizationEnergyMaintenance 463827.23303986
scalar OsgEarthNet.uav[18] utilizationEnergyCharge 1426946.3283691
scalar OsgEarthNet.uav[18] utilizationEnergyOverdrawMission 0
scalar OsgEarthNet.uav[18] utilizationEnergyOverdrawMaintenance 0
scalar OsgEarthNet.uav[18] utilizationCountMissions 321
scalar OsgEarthNet.uav[18] utilizationCountManeuversMission 6403
scalar OsgEarthNet.uav[18] utilizationCountManeuversMaintenance 643
scalar OsgEarthNet.uav[18] utilizationCountChargeState 321
scalar OsgEarthNet.uav[18] utilizationCountOverdrawnAfterMission 0
scalar OsgEarthNet.uav[18] utilizationCountIdleState 1
scalar OsgEarthNet.uav[18] utilizationFail 0
scalar OsgEarthNet.uav[18] simulationTime 1209600
scalar OsgEarthNet.uav[19] utilizationSecMission 204377.38549187
scalar OsgEarthNet.uav[19] utilizationSecMaintenance 91673.61729614
scalar OsgEarthNet.uav[19] utilizationSecCharge 910185.60409445
scalar OsgEarthNet.uav[19] utilizationSecIdle 3363.3921175336
scalar OsgEarthNet.uav[19] utilizationEnergyMission 986762.45501328
scalar OsgEarthNet.uav[19] utilizationEnergyMaintenance 423306.62348175
scalar OsgEarthNet.uav[19] utilizationEnergyCharge 1412868.9448853
scalar OsgEarthNet.uav[19] utilizationEnergyOverdrawMission 0
scalar OsgEarthNet.uav[19] utilizationEnergyOverdrawMaintenance 0
scalar OsgEarthNet.uav[19] utilizationCountMissions 315
scalar OsgEarthNet.uav[19] utilizationCountManeuversMission 6456
scalar OsgEarthNet.uav[19] utilizationCountManeuversMaintenance 630
scalar OsgEarthNet.uav[19] utilizationCountChargeState 315
scalar OsgEarthNet.uav[19] utilizationCountOverdrawnAfterMission 0
scalar OsgEarthNet.uav[19] utilizationCountIdleState 2
scalar OsgEarthNet.uav[19] utilizationFail 0
scalar OsgEarthNet.uav[19] simulationTime 1209600
scalar OsgEarthNet.uav[20] utilizationSecMission 192567.30610002
scalar OsgEarthNet.uav[20] utilizationSecMaintenance 100783.73025102
scalar OsgEarthNet.uav[20] utilizationSecCharge 913325.0046096
scalar OsgEarthNet.uav[20] utilizationSecIdle 2923.9580393621
scalar OsgEarthNet.uav[20] utilizationEnergyMission 935225.5530014
scalar OsgEarthNet.uav[20] utilizationEnergyMaintenance 472056.55738068
scalar OsgEarthNet.uav[20] utilizationEnergyCharge 1405840.2303467
scalar OsgEarthNet.uav[20] utilizationEnergyOverdrawMission 0
scalar OsgEarthNet.uav[20] utilizationEnergyOverdrawMaintenance 0
scalar OsgEarthNet.uav[20] utilizationCountMissions 326
scalar OsgEarthNet.uav[20] utilizationCountManeuversMission 6203
scalar OsgEarthNet.uav[20] utilizationCountManeuversMaintenance 652
scalar OsgEarthNet.uav[20] utilizationCountChargeState 326
scalar OsgEarthNet.uav[20] utilizationCountOverdrawnAfterMission 0
scalar OsgEarthNet.uav[20] utilizationCountIdleState 5
scalar OsgEarthNet.uav[20] utilizationFail 0
scalar OsgEarthNet.uav[20] simulationTime 1209600
scalar OsgEarthNet.uav[21] utilizationSecMission 196595.71573517
scalar OsgEarthNet.uav[21] utilizationSecMaintenance 99987.604804706
scalar OsgEarthNet.uav[21] utilizationSecCharge 910421.23637143
scalar OsgEarthNet.uav[21] utilizationSecIdle 2595.4420886909
scalar OsgEarthNet.uav[21] utilizationEnergyMission 957136.42063522
scalar OsgEarthNet.uav[21] utilizationEnergyMaintenance 467076.68276215
scalar OsgEarthNet.uav[21] utilizationEnergyCharge 1419729.8745117
scalar OsgEarthNet.uav[21] utilizationEnergyOverdrawMission 0
scalar OsgEarthNet.uav[21] utilizationEnergyOverdrawMaintenance 0
scalar OsgEarthNet.uav[21] utilizationCountMissions 321
scalar OsgEarthNet.uav[21] utilizationCountManeuversMission 6248
scalar OsgEarthNet.uav[21] utilizationCountManeuversMaintenance 642
scalar OsgEarthNet.uav[21] utilizationCountChargeState 321
scalar OsgEarthNet.uav[21] utilizationCountOverdrawnAfterMission 0
scalar OsgEarthNet.uav[21] utilizationCountIdleState 5
scalar OsgEarthNet.uav[21] utilizationFail 0
scalar OsgEarthNet.uav[21] simulationTime 1209600
scalar OsgEarthNet.uav[22] utilizationSecMission 185438.51441484
scalar OsgEarthNet.uav[22] utilizationSecMaintenance 111359.48158516
scalar OsgEarthNet.uav[22] utilizationSecCharge 910130
scalar OsgEarthNet.uav[22] utilizationSecIdle 2672.003
scalar OsgEarthNet.uav[22] utilizationEnergyMission 903633.17249298
scalar OsgEarthNet.uav[22] utilizationEnergyMaintenance 521630.08582108
scalar OsgEarthNet.uav[22] utilizationEnergyCharge 1421259.362793
scalar OsgEarthNet.uav[22] utilizationEnergyOverdrawMission 0
scalar OsgEarthNet.uav[22] utilizationEnergyOverdrawMaintenance 0
scalar OsgEarthNet.uav[22] utilizationCountMissions 328
scalar OsgEarthNet.uav[22] utilizationCountManeuversMission 6254
scalar OsgEarthNet.uav[22] utilizationCountManeuversMaintenance 656
scalar OsgEarthNet.uav[22] utilizationCountChargeState 327
scalar OsgEarthNet.uav[22] utilizationCountOverdrawnAfterMission 0
scalar OsgEarthNet.uav[22] utilizationCountIdleState 8
scalar OsgEarthNet.uav[22] utilizationFail 0
scalar OsgEarthNet.uav[22] simulationTime 1209600
scalar OsgEarthNet.uav[23] utilizationSecMission 172149.81572703
scalar OsgEarthNet.uav[23] utilizationSecMaintenance 115778.74590486
scalar OsgEarthNet.uav[23] utilizationSecCharge 919689.43336811
scalar OsgEarthNet.uav[23] utilizationSecIdle 1982.004
scalar OsgEarthNet.uav[23] utilizationEnergyMission 839142.14757156
scalar OsgEarthNet.uav[23] utilizationEnergyMaintenance 549683.15641403
scalar OsgEarthNet.uav[23] utilizationEnergyCharge 1385630.8723145
scalar OsgEarthNet.uav[23] utilizationEnergyOverdrawMission 0
scalar OsgEarthNet.uav[23] utilizationEnergyOverdrawMaintenance 0
scalar OsgEarthNet.uav[23] utilizationCountMissions 335
scalar OsgEarthNet.uav[23] utilizationCountManeuversMission 5684
scalar OsgEarthNet.uav[23] utilizationCountManeuversMaintenance 670
scalar OsgEarthNet.uav[23] utilizationCountChargeState 335
scalar OsgEarthNet.uav[23] utilizationCountOverdrawnAfterMission 0
scalar OsgEarthNet.uav[23] utilizationCountIdleState 5
scalar OsgEarthNet.uav[23] utilizationFail 0
scalar OsgEarthNet.uav[23] simulationTime 1209600
scalar OsgEarthNet.uav[24] utilizationSecMission 186336.23766747
scalar OsgEarthNet.uav[24] utilizationSecMaintenance 107573.43329172
scalar OsgEarthNet.uav[24] utilizationSecCharge 913998.32504081
scalar OsgEarthNet.uav[24] utilizationSecIdle 1692.003
scalar OsgEarthNet.uav[24] utilizationEnergyMission 902648.91007996
scalar OsgEarthNet.uav[24] utilizationEnergyMaintenance 508824.23508072
scalar OsgEarthNet.uav[24] utilizationEnergyCharge 1407134.2033691
scalar OsgEarthNet.uav[24] utilizationEnergyOverdrawMission 0
scalar OsgEarthNet.uav[24] utilizationEnergyOverdrawMaintenance 0
scalar OsgEarthNet.uav[24] utilizationCountMissions 330
scalar OsgEarthNet.uav[24] utilizationCountManeuversMission 5834
scalar OsgEarthNet.uav[24] utilizationCountManeuversMaintenance 660
scalar OsgEarthNet.uav[24] utilizationCountChargeState 330
scalar OsgEarthNet.uav[24] utilizationCountOverdrawnAfterMission 0
scalar OsgEarthNet.uav[24] utilizationCountIdleState 2
scalar OsgEarthNet.uav[24] utilizationFail 0
scalar OsgEarthNet.uav[24] simulationTime 1209600
scalar OsgEarthNet.uav[25] utilizationSecMission 199341.01044002
scalar OsgEarthNet.uav[25] utilizationSecMaintenance 94736.127383116
scalar OsgEarthNet.uav[25] utilizationSecCharge 914503.64156295
scalar OsgEarthNet.uav[25] utilizationSecIdle 1019.2196139157
scalar OsgEarthNet.uav[25] utilizationEnergyMission 968255.49134827
scalar OsgEarthNet.uav[25] utilizationEnergyMaintenance 440585.62455368
scalar OsgEarthNet.uav[25] utilizationEnergyCharge 1404051.6567383
scalar OsgEarthNet.uav[25] utilizationEnergyOverdrawMission 0
scalar OsgEarthNet.uav[25] utilizationEnergyOverdrawMaintenance 0
scalar OsgEarthNet.uav[25] utilizationCountMissions 316
scalar OsgEarthNet.uav[25] utilizationCountManeuversMission 6243
scalar OsgEarthNet.uav[25] utilizationCountManeuversMaintenance 632
scalar OsgEarthNet.uav[25] utilizationCountChargeState 316
scalar OsgEarthNet.uav[25] utilizationCountOverdrawnAfterMission 0
scalar OsgEarthNet.uav[25] utilizationCountIdleState 7
scalar OsgEarthNet.uav[25] utilizationFail 0
scalar OsgEarthNet.uav[25] simulationTime 1209600
scalar OsgEarthNet.uav[26] utilizationSecMission 194115.48718487
scalar OsgEarthNet.uav[26] utilizationSecMaintenance 101164.02627233
scalar OsgEarthNet.uav[26] utilizationSecCharge 911048.69954026
scalar OsgEarthNet.uav[26] utilizationSecIdle 3271.7860025465
scalar OsgEarthNet.uav[26] utilizationEnergyMission 936671.96831512
scalar OsgEarthNet.uav[26] utilizationEnergyMaintenance 474333.61299133
scalar OsgEarthNet.uav[26] utilizationEnergyCharge 1411426.2971191
scalar OsgEarthNet.uav[26] utilizationEnergyOverdrawMission 0
scalar OsgEarthNet.uav[26] utilizationEnergyOverdrawMaintenance 0
scalar OsgEarthNet.uav[26] utilizationCountMissions 323
scalar OsgEarthNet.uav[26] utilizationCountManeuversMission 5879
scalar OsgEarthNet.uav[26] utilizationCountManeuversMaintenance 646
scalar OsgEarthNet.uav[26] utilizationCountChargeState 323
scalar OsgEarthNet.uav[26] utilizationCountOverdrawnAfterMission 0
scalar OsgEarthNet.uav[26] utilizationCountIdleState 5
scalar OsgEarthNet.uav[26] utilizationFail 0
scalar OsgEarthNet.uav[26] simulationTime 1209600
scalar OsgEarthNet.uav[27] utilizationSecMission 177358.29605287
scalar OsgEarthNet.uav[27] utilizationSecMaintenance 111760.43809513
scalar OsgEarthNet.uav[27] utilizationSecCharge 919279.262852
scalar OsgEarthNet.uav[27] utilizationSecIdle 1202.002
scalar OsgEarthNet.uav[27] utilizationEnergyMission 857782.3594017
scalar OsgEarthNet.uav[27] utilizationEnergyMaintenance 528729.93928528
scalar OsgEarthNet.uav[27] utilizationEnergyCharge 1387671.104248
scalar OsgEarthNet.uav[27] utilizationEnergyOverdrawMission 0
scalar OsgEarthNet.uav[27] utilizationEnergyOverdrawMaintenance 0
scalar OsgEarthNet.uav[27] utilizationCountMissions 332
scalar OsgEarthNet.uav[27] utilizationCountManeuversMission 5617
scalar OsgEarthNet.uav[27] utilizationCountManeuversMaintenance 664
scalar OsgEarthNet.uav[27] utilizationCountChargeState 332
scalar OsgEarthNet.uav[27] utilizationCountOverdrawnAfterMission 0
scalar OsgEarthNet.uav[27] utilizationCountIdleState 4
scalar OsgEarthNet.uav[27] utilizationFail 0
scalar OsgEarthNet.uav[27] simulationTime 1209600
scalar OsgEarthNet.uav[28] utilizationSecMission 187782.96910076
scalar OsgEarthNet.uav[28] utilizationSecMaintenance 99297.025650808
scalar OsgEarthNet.uav[28] utilizationSecCharge 920393.65402761
scalar OsgEarthNet.uav[28] utilizationSecIdle 2126.3502208215
scalar OsgEarthNet.uav[28] utilizationEnergyMission 900861.76805115
scalar OsgEarthNet.uav[28] utilizationEnergyMaintenance 465773.27815247
scalar OsgEarthNet.uav[28] utilizationEnergyCharge 1365744.921814
scalar OsgEarthNet.uav[28] utilizationEnergyOverdrawMission 0
scalar OsgEarthNet.uav[28] utilizationEnergyOverdrawMaintenance 0
scalar OsgEarthNet.uav[28] utilizationCountMissions 324
scalar OsgEarthNet.uav[28] utilizationCountManeuversMission 5304
scalar OsgEarthNet.uav[28] utilizationCountManeuversMaintenance 648
scalar OsgEarthNet.uav[28] utilizationCountChargeState 324
scalar OsgEarthNet.uav[28] utilizationCountOverdrawnAfterMission 0
scalar OsgEarthNet.uav[28] utilizationCountIdleState 8
scalar OsgEarthNet.uav[28] utilizationFail 0
scalar OsgEarthNet.uav[28] simulationTime 1209600
scalar OsgEarthNet.uav[29] utilizationSecMission 183705.30239701
scalar OsgEarthNet.uav[29] utilizationSecMaintenance 105750.92445723
scalar OsgEarthNet.uav[29] utilizationSecCharge 918742.25848481
scalar OsgEarthNet.uav[29] utilizationSecIdle 1401.5136609497
scalar OsgEarthNet.uav[29] utilizationEnergyMission 893871.4645462
scalar OsgEarthNet.uav[29] utilizationEnergyMaintenance 498912.63882446
scalar OsgEarthNet.uav[29] utilizationEnergyCharge 1388153.0761719
scalar OsgEarthNet.uav[29] utilizationEnergyOverdrawMission 0
scalar OsgEarthNet.uav[29] utilizationEnergyOverdrawMaintenance 0
scalar OsgEarthNet.uav[29] utilizationCountMissions 328
scalar OsgEarthNet.uav[29] utilizationCountManeuversMission 6049
scalar OsgEarthNet.uav[29] utilizationCountManeuversMaintenance 656
scalar OsgEarthNet.uav[29] utilizationCountChargeState 328
scalar OsgEarthNet.uav[29] utilizationCountOverdrawnAfterMission 0
scalar OsgEarthNet.uav[29] utilizationCountIdleState 8
scalar OsgEarthNet.uav[29] utilizationFail 0
scalar OsgEarthNet.uav[29] simulationTime 1209600
scalar OsgEarthNet.uav[30] utilizationSecMission 196260.58781753
scalar OsgEarthNet.uav[30] utilizationSecMaintenance 101430.8305256
scalar OsgEarthNet.uav[30] utilizationSecCharge 908710
scalar OsgEarthNet.uav[30] utilizationSecIdle 3198.5806568717
scalar OsgEarthNet.uav[30] utilizationEnergyMission 944027.78170886
scalar OsgEarthNet.uav[30] utilizationEnergyMaintenance 474870.86325455
scalar OsgEarthNet.uav[30] utilizationEnergyCharge 1416482.9172363
scalar OsgEarthNet.uav[30] utilizationEnergyOverdrawMission 0
scalar OsgEarthNet.uav[30] utilizationEnergyOverdrawMaintenance 0
scalar OsgEarthNet.uav[30] utilizationCountMissions 321
scalar OsgEarthNet.uav[30] utilizationCountManeuversMission 5835
scalar OsgEarthNet.uav[30] utilizationCountManeuversMaintenance 643
scalar OsgEarthNet.uav[30] utilizationCountChargeState 321
scalar OsgEarthNet.uav[30] utilizationCountOverdrawnAfterMission 0
scalar OsgEarthNet.uav[30] utilizationCountIdleState 3
scalar OsgEarthNet.uav[30] utilizationFail 0
scalar OsgEarthNet.uav[30] simulationTime 1209600
scalar OsgEarthNet.uav[31] utilizationSecMission 202034.86766134
scalar OsgEarthNet.uav[31] utilizationSecMaintenance 91045.331120049
scalar OsgEarthNet.uav[31] utilizationSecCharge 913720
scalar OsgEarthNet.uav[31] utilizationSecIdle 2799.8002186065
scalar OsgEarthNet.uav[31] utilizationEnergyMission 972717.77204212
scalar OsgEarthNet.uav[31] utilizationEnergyMaintenance 421941.42703247
scalar OsgEarthNet.uav[31] utilizationEnergyCharge 1396290.795166
scalar OsgEarthNet.uav[31] utilizationEnergyOverdrawMission 0
scalar OsgEarthNet.uav[31] utilizationEnergyOverdrawMaintenance 0
scalar OsgEarthNet.uav[31] utilizationCountMissions 315
scalar OsgEarthNet.uav[31] utilizationCountManeuversMission 6311
scalar OsgEarthNet.uav[31] utilizationCountManeuversMaintenance 631
scalar OsgEarthNet.uav[31] utilizationCountChargeState 315
scalar OsgEarthNet.uav[31] utilizationCountOverdrawnAfterMission 0
scalar OsgEarthNet.uav[31] utilizationCountIdleState 5
scalar OsgEarthNet.uav[31] utilizationFail 0
scalar OsgEarthNet.uav[31] simulationTime 1209600
scalar OsgEarthNet.uav[32] utilizationSecMission 192398.98164311
scalar OsgEarthNet.uav[32] utilizationSecMaintenance 99844.569279964
scalar OsgEarthNet.uav[32] utilizationSecCharge 917014.44807693
scalar OsgEarthNet.uav[32] utilizationSecIdle 342
scalar OsgEarthNet.uav[32] utilizationEnergyMission 922218.69939804
scalar OsgEarthNet.uav[32] utilizationEnergyMaintenance 468125.73727798
scalar OsgEarthNet.uav[32] utilizationEnergyCharge 1391340.7624512
scalar OsgEarthNet.uav[32] utilizationEnergyOverdrawMission 0
scalar OsgEarthNet.uav[32] utilizationEnergyOverdrawMaintenance 0
scalar OsgEarthNet.uav[32] utilizationCountMissions 326
scalar OsgEarthNet.uav[32] utilizationCountManeuversMission 5554
scalar OsgEarthNet.uav[32] utilizationCountManeuversMaintenance 652
scalar OsgEarthNet.uav[32] utilizationCountChargeState 326
scalar OsgEarthNet.uav[32] utilizationCountOverdrawnAfterMission 0
scalar OsgEarthNet.uav[32] utilizationCountIdleState 7
scalar OsgEarthNet.uav[32] utilizationFail 0
scalar OsgEarthNet.uav[32] simulationTime 1209600
scalar OsgEarthNet.uav[33] utilizationSecMission 181453.12380999
scalar OsgEarthNet.uav[33] utilizationSecMaintenance 107328.58738396
scalar OsgEarthNet.uav[33] utilizationSecCharge 920756.28780605
scalar OsgEarthNet.uav[33] utilizationSecIdle 62
scalar OsgEarthNet.uav[33] utilizationEnergyMission 884352.91773224
scalar OsgEarthNet.uav[33] utilizationEnergyMaintenance 506891.99861145
scalar OsgEarthNet.uav[33] utilizationEnergyCharge 1394105.2702637
scalar OsgEarthNet.uav[33] utilizationEnergyOverdrawMission 0
scalar OsgEarthNet.uav[33] utilizationEnergyOverdrawMaintenance 0
scalar OsgEarthNet.uav[33] utilizationCountMissions 329
scalar OsgEarthNet.uav[33] utilizationCountManeuversMission 5947
scalar OsgEarthNet.uav[33] utilizationCountManeuversMaintenance 658
scalar OsgEarthNet.uav[33] utilizationCountChargeState 329
scalar OsgEarthNet.uav[33] utilizationCountOverdrawnAfterMission 0
scalar OsgEarthNet.uav[33] utilizationCountIdleState 3
scalar OsgEarthNet.uav[33] utilizationFail 0
scalar OsgEarthNet.uav[33] simulationTime 1209600
scalar OsgEarthNet.uav[34] utilizationSecMission 178300.09724708
scalar OsgEarthNet.uav[34] utilizationSecMaintenance 111937.10182115
scalar OsgEarthNet.uav[34] utilizationSecCharge 918210.79893176
scalar OsgEarthNet.uav[34] utilizationSecIdle 1152.001
scalar OsgEarthNet.uav[34] utilizationEnergyMission 863458.47079468
scalar OsgEarthNet.uav[34] utilizationEnergyMaintenance 531840.25195312
scalar OsgEarthNet.uav[34] utilizationEnergyCharge 1392066.4821777
scalar OsgEarthNet.uav[34] utilizationEnergyOverdrawMission 0
scalar OsgEarthNet.uav[34] utilizationEnergyOverdrawMaintenance 0
scalar OsgEarthNet.uav[34] utilizationCountMissions 333
scalar OsgEarthNet.uav[34] utilizationCountManeuversMission 5508
scalar OsgEarthNet.uav[34] utilizationCountManeuversMaintenance 666
scalar OsgEarthNet.uav[34] utilizationCountChargeState 333
scalar OsgEarthNet.uav[34] utilizationCountOverdrawnAfterMission 0
scalar OsgEarthNet.uav[34] utilizationCountIdleState 10
scalar OsgEarthNet.uav[34] utilizationFail 0
scalar OsgEarthNet.uav[34] simulationTime 1209600
scalar OsgEarthNet.uav[35] utilizationSecMission 199209.90616052
scalar OsgEarthNet.uav[35] utilizationSecMaintenance 98408.092839475
scalar OsgEarthNet.uav[35] utilizationSecCharge 911940
scalar OsgEarthNet.uav[35] utilizationSecIdle 42
scalar OsgEarthNet.uav[35] utilizationEnergyMission 960755.22823644
scalar OsgEarthNet.uav[35] utilizationEnergyMaintenance 456437.73323059
scalar OsgEarthNet.uav[35] utilizationEnergyCharge 1412128.3188477
scalar OsgEarthNet.uav[35] utilizationEnergyOverdrawMission 0
scalar OsgEarthNet.uav[35] utilizationEnergyOverdrawMaintenance 0
scalar OsgEarthNet.uav[35] utilizationCountMissions 324
scalar OsgEarthNet.uav[35] utilizationCountManeuversMission 6104
scalar OsgEarthNet.uav[35] utilizationCountManeuversMaintenance 648
scalar OsgEarthNet.uav[35] utilizationCountChargeState 324
scalar OsgEarthNet.uav[35] utilizationCountOverdrawnAfterMission 0
scalar OsgEarthNet.uav[35] utilizationCountIdleState 2
scalar OsgEarthNet.uav[35] utilizationFail 0
scalar OsgEarthNet.uav[35] simulationTime 1209600
scalar OsgEarthNet.uav[36] utilizationSecMission 191822.15427502
scalar OsgEarthNet.uav[36] utilizationSecMaintenance 98189.27446764
scalar OsgEarthNet.uav[36] utilizationSecCharge 918266.56725733
scalar OsgEarthNet.uav[36] utilizationSecIdle 1322.003
scalar OsgEarthNet.uav[36] utilizationEnergyMission 932415.30210495
scalar OsgEarthNet.uav[36] utilizationEnergyMaintenance 457377.90805054
scalar OsgEarthNet.uav[36] utilizationEnergyCharge 1388356.8457031
scalar OsgEarthNet.uav[36] utilizationEnergyOverdrawMission 0
scalar OsgEarthNet.uav[36] utilizationEnergyOverdrawMaintenance 0
scalar OsgEarthNet.uav[36] utilizationCountMissions 324
scalar OsgEarthNet.uav[36] utilizationCountManeuversMission 5971
scalar OsgEarthNet.uav[36] utilizationCountManeuversMaintenance 648
scalar OsgEarthNet.uav[36] utilizationCountChargeState 324
scalar OsgEarthNet.uav[36] utilizationCountOverdrawnAfterMission 0
scalar OsgEarthNet.uav[36] utilizationCountIdleState 1
scalar OsgEarthNet.uav[36] utilizationFail 0
scalar OsgEarthNet.uav[36] simulationTime 1209600
scalar OsgEarthNet.uav[37] utilizationSecMission 197025.04824599
scalar OsgEarthNet.uav[37] utilizationSecMaintenance 99794.673593378
scalar OsgEarthNet.uav[37] utilizationSecCharge 910262.9610788
scalar OsgEarthNet.uav[37] utilizationSecIdle 2517.3160818306
scalar OsgEarthNet.uav[37] utilizationEnergyMission 958621.60130692
scalar OsgEarthNet.uav[37] utilizationEnergyMaintenance 464064.17485428
scalar OsgEarthNet.uav[37] utilizationEnergyCharge 1418793.5275879
scalar OsgEarthNet.uav[37] utilizationEnergyOverdrawMission 0
scalar OsgEarthNet.uav[37] utilizationEnergyOverdrawMaintenance 0
scalar OsgEarthNet.uav[37] utilizationCountMissions 321
scalar OsgEarthNet.uav[37] utilizationCountManeuversMission 6342
scalar OsgEarthNet.uav[37] utilizationCountManeuversMaintenance 642
scalar OsgEarthNet.uav[37] utilizationCountChargeState 321
scalar OsgEarthNet.uav[37] utilizationCountOverdrawnAfterMission 0
scalar OsgEarthNet.uav[37] utilizationCountIdleState 3
scalar OsgEarthNet.uav[37] utilizationFail 0
scalar OsgEarthNet.uav[37] simulationTime 1209600
scalar OsgEarthNet.uav[38] utilizationSecMission 180568.51750778
scalar OsgEarthNet.uav[38] utilizationSecMaintenance 110631.23176335
scalar OsgEarthNet.uav[38] utilizationSecCharge 917291.07461846
scalar OsgEarthNet.uav[38] utilizationSecIdle 1109.1751104107
scalar OsgEarthNet.uav[38] utilizationEnergyMission 874701.96068954
scalar OsgEarthNet.uav[38] utilizationEnergyMaintenance 524836.76011276
scalar OsgEarthNet.uav[38] utilizationEnergyCharge 1398019.0599365
scalar OsgEarthNet.uav[38] utilizationEnergyOverdrawMission 0
scalar OsgEarthNet.uav[38] utilizationEnergyOverdrawMaintenance 0
scalar OsgEarthNet.uav[38] utilizationCountMissions 328
scalar OsgEarthNet.uav[38] utilizationCountManeuversMission 5775
scalar OsgEarthNet.uav[38] utilizationCountManeuversMaintenance 656
scalar OsgEarthNet.uav[38] utilizationCountChargeState 328
scalar OsgEarthNet.uav[38] utilizationCountOverdrawnAfterMission 0
scalar OsgEarthNet.uav[38] utilizationCountIdleState 9
scalar OsgEarthNet.uav[38] utilizationFail 0
scalar OsgEarthNet.uav[38] simulationTime 1209600
scalar OsgEarthNet.uav[39] utilizationSecMission 210215.50316947
scalar OsgEarthNet.uav[39] utilizationSecMaintenance 85829.418262835
scalar OsgEarthNet.uav[39] utilizationSecCharge 913493.0775677
scalar OsgEarthNet.uav[39] utilizationSecIdle 62
scalar OsgEarthNet.uav[39] utilizationEnergyMission 1015307.7278976
scalar OsgEarthNet.uav[39] utilizationEnergyMaintenance 395841.39118576
scalar OsgEarthNet.uav[39] utilizationEnergyCharge 1410248.0134277
scalar OsgEarthNet.uav[39] utilizationEnergyOverdrawMission 0
scalar OsgEarthNet.uav[39] utilizationEnergyOverdrawMaintenance 0
scalar OsgEarthNet.uav[39] utilizationCountMissions 313
scalar OsgEarthNet.uav[39] utilizationCountManeuversMission 6415
scalar OsgEarthNet.uav[39] utilizationCountManeuversMaintenance 625
scalar OsgEarthNet.uav[39] utilizationCountChargeState 313
scalar OsgEarthNet.uav[39] utilizationCountOverdrawnAfterMission 0
scalar OsgEarthNet.uav[39] utilizationCountIdleState 2
scalar OsgEarthNet.uav[39] utilizationFail 0
scalar OsgEarthNet.uav[39] simulationTime 1209600
scalar OsgEarthNet.uav[40] utilizationSecMission 191235.12951957
scalar OsgEarthNet.uav[40] utilizationSecMaintenance 99522.350192151
scalar OsgEarthNet.uav[40] utilizationSecCharge 916013.93963141
scalar OsgEarthNet.uav[40] utilizationSecIdle 2828.5796568717
scalar OsgEarthNet.uav[40] utilizationEnergyMission 921575.67238617
scalar OsgEarthNet.uav[40] utilizationEnergyMaintenance 468339.10073471
scalar OsgEarthNet.uav[40] utilizationEnergyCharge 1391194.9116211
scalar OsgEarthNet.uav[40] utilizationEnergyOverdrawMission 0
scalar OsgEarthNet.uav[40] utilizationEnergyOverdrawMaintenance 0
scalar OsgEarthNet.uav[40] utilizationCountMissions 325
scalar OsgEarthNet.uav[40] utilizationCountManeuversMission 5770
scalar OsgEarthNet.uav[40] utilizationCountManeuversMaintenance 650
scalar OsgEarthNet.uav[40] utilizationCountChargeState 325
scalar OsgEarthNet.uav[40] utilizationCountOverdrawnAfterMission 0
scalar OsgEarthNet.uav[40] utilizationCountIdleState 5
scalar OsgEarthNet.uav[40] utilizationFail 0
scalar OsgEarthNet.uav[40] simulationTime 1209600
scalar OsgEarthNet.uav[41] utilizationSecMission 197302.51993029
scalar OsgEarthNet.uav[41] utilizationSecMaintenance 98435.477562985
scalar OsgEarthNet.uav[41] utilizationSecCharge 912930
scalar OsgEarthNet.uav[41] utilizationSecIdle 932.00150672213
scalar OsgEarthNet.uav[41] utilizationEnergyMission 956780.24965381
scalar OsgEarthNet.uav[41] utilizationEnergyMaintenance 458191.19226837
scalar OsgEarthNet.uav[41] utilizationEnergyCharge 1413371.9904785
scalar OsgEarthNet.uav[41] utilizationEnergyOverdrawMission 0
scalar OsgEarthNet.uav[41] utilizationEnergyOverdrawMaintenance 0
scalar OsgEarthNet.uav[41] utilizationCountMissions 320
scalar OsgEarthNet.uav[41] utilizationCountManeuversMission 6087
scalar OsgEarthNet.uav[41] utilizationCountManeuversMaintenance 641
scalar OsgEarthNet.uav[41] utilizationCountChargeState 320
scalar OsgEarthNet.uav[41] utilizationCountOverdrawnAfterMission 0
scalar OsgEarthNet.uav[41] utilizationCountIdleState 2
scalar OsgEarthNet.uav[41] utilizationFail 0
scalar OsgEarthNet.uav[41] simulationTime 1209600
scalar OsgEarthNet.uav[42] utilizationSecMission 193837.574891
scalar OsgEarthNet.uav[42] utilizationSecMaintenance 100359.27949616
scalar OsgEarthNet.uav[42] utilizationSecCharge 913953.71926555
scalar OsgEarthNet.uav[42] utilizationSecIdle 1449.4253472904
scalar OsgEarthNet.uav[42] utilizationEnergyMission 939501.33149719
scalar OsgEarthNet.uav[42] utilizationEnergyMaintenance 469866.83409119
scalar OsgEarthNet.uav[42] utilizationEnergyCharge 1404518.9023438
scalar OsgEarthNet.uav[42] utilizationEnergyOverdrawMission 0
scalar OsgEarthNet.uav[42] utilizationEnergyOverdrawMaintenance 0
scalar OsgEarthNet.uav[42] utilizationCountMissions 323
scalar OsgEarthNet.uav[42] utilizationCountManeuversMission 6011
scalar OsgEarthNet.uav[42] utilizationCountManeuversMaintenance 646
scalar OsgEarthNet.uav[42] utilizationCountChargeState 323
scalar OsgEarthNet.uav[42] utilizationCountOverdrawnAfterMission 0
scalar OsgEarthNet.uav[42] utilizationCountIdleState 2
scalar OsgEarthNet.uav[42] utilizationFail 0
scalar OsgEarthNet.uav[42] simulationTime 1209600
scalar OsgEarthNet.uav[43] utilizationSecMission 192565.45935812
scalar OsgEarthNet.uav[43] utilizationSecMaintenance 100560.60847577
scalar OsgEarthNet.uav[43] utilizationSecCharge 913322.98191045
scalar OsgEarthNet.uav[43] utilizationSecIdle 3150.9492556647
scalar OsgEarthNet.uav[43] utilizationEnergyMission 926923.35533142
scalar OsgEarthNet.uav[43] utilizationEnergyMaintenance 469677.71006393
scalar OsgEarthNet.uav[43] utilizationEnergyCharge 1399421.3510742
scalar OsgEarthNet.uav[43] utilizationEnergyOverdrawMission 0
scalar OsgEarthNet.uav[43] utilizationEnergyOverdrawMaintenance 0
scalar OsgEarthNet.uav[43] utilizationCountMissions 324
scalar OsgEarthNet.uav[43] utilizationCountManeuversMission 5745
scalar OsgEarthNet.uav[43] utilizationCountManeuversMaintenance 648
scalar OsgEarthNet.uav[43] utilizationCountChargeState 324
scalar OsgEarthNet.uav[43] utilizationCountOverdrawnAfterMission 0
scalar OsgEarthNet.uav[43] utilizationCountIdleState 2
scalar OsgEarthNet.uav[43] utilizationFail 0
scalar OsgEarthNet.uav[43] simulationTime 1209600
scalar OsgEarthNet.uav[44] utilizationSecMission 208198.63933658
scalar OsgEarthNet.uav[44] utilizationSecMaintenance 87673.352339057
scalar OsgEarthNet.uav[44] utilizationSecCharge 911412.56623567
scalar OsgEarthNet.uav[44] utilizationSecIdle 2315.4410886909
scalar OsgEarthNet.uav[44] utilizationEnergyMission 1007952.3595543
scalar OsgEarthNet.uav[44] utilizationEnergyMaintenance 403946.9727478
scalar OsgEarthNet.uav[44] utilizationEnergyCharge 1407109.5448608
scalar OsgEarthNet.uav[44] utilizationEnergyOverdrawMission 0
scalar OsgEarthNet.uav[44] utilizationEnergyOverdrawMaintenance 22.392190933228
scalar OsgEarthNet.uav[44] utilizationCountMissions 313
scalar OsgEarthNet.uav[44] utilizationCountManeuversMission 6309
scalar OsgEarthNet.uav[44] utilizationCountManeuversMaintenance 626
scalar OsgEarthNet.uav[44] utilizationCountChargeState 313
scalar OsgEarthNet.uav[44] utilizationCountOverdrawnAfterMission 1
scalar OsgEarthNet.uav[44] utilizationCountIdleState 4
scalar OsgEarthNet.uav[44] utilizationFail 0
scalar OsgEarthNet.uav[44] simulationTime 1209600
scalar OsgEarthNet.uav[45] utilizationSecMission 187510.37895525
scalar OsgEarthNet.uav[45] utilizationSecMaintenance 107981.78512661
scalar OsgEarthNet.uav[45] utilizationSecCharge 913455.83391815
scalar OsgEarthNet.uav[45] utilizationSecIdle 652.001
scalar OsgEarthNet.uav[45] utilizationEnergyMission 911368.41573334
scalar OsgEarthNet.uav[45] utilizationEnergyMaintenance 507716.24673843
scalar OsgEarthNet.uav[45] utilizationEnergyCharge 1413149.7353516
scalar OsgEarthNet.uav[45] utilizationEnergyOverdrawMission 0
scalar OsgEarthNet.uav[45] utilizationEnergyOverdrawMaintenance 0
scalar OsgEarthNet.uav[45] utilizationCountMissions 327
scalar OsgEarthNet.uav[45] utilizationCountManeuversMission 5870
scalar OsgEarthNet.uav[45] utilizationCountManeuversMaintenance 654
scalar OsgEarthNet.uav[45] utilizationCountChargeState 327
scalar OsgEarthNet.uav[45] utilizationCountOverdrawnAfterMission 0
scalar OsgEarthNet.uav[45] utilizationCountIdleState 3
scalar OsgEarthNet.uav[45] utilizationFail 0
scalar OsgEarthNet.uav[45] simulationTime 1209600
scalar OsgEarthNet.uav[46] utilizationSecMission 192306.53175018
scalar OsgEarthNet.uav[46] utilizationSecMaintenance 97726.045547474
scalar OsgEarthNet.uav[46] utilizationSecCharge 916485.41470235
scalar OsgEarthNet.uav[46] utilizationSecIdle 3082.007
scalar OsgEarthNet.uav[46] utilizationEnergyMission 936186.4967041
scalar OsgEarthNet.uav[46] utilizationEnergyMaintenance 454588.93478394
scalar OsgEarthNet.uav[46] utilizationEnergyCharge 1387810.3393555
scalar OsgEarthNet.uav[46] utilizationEnergyOverdrawMission 0
scalar OsgEarthNet.uav[46] utilizationEnergyOverdrawMaintenance 0
scalar OsgEarthNet.uav[46] utilizationCountMissions 323
scalar OsgEarthNet.uav[46] utilizationCountManeuversMission 6103
scalar OsgEarthNet.uav[46] utilizationCountManeuversMaintenance 646
scalar OsgEarthNet.uav[46] utilizationCountChargeState 323
scalar OsgEarthNet.uav[46] utilizationCountOverdrawnAfterMission 0
scalar OsgEarthNet.uav[46] utilizationCountIdleState 1
scalar OsgEarthNet.uav[46] utilizationFail 0
scalar OsgEarthNet.uav[46] simulationTime 1209600
scalar OsgEarthNet.uav[47] utilizationSecMission 195480.9380629
scalar OsgEarthNet.uav[47] utilizationSecMaintenance 97951.457077146
scalar OsgEarthNet.uav[47] utilizationSecCharge 915362.99197044
scalar OsgEarthNet.uav[47] utilizationSecIdle 804.61188951643
scalar OsgEarthNet.uav[47] utilizationEnergyMission 941031.43078613
scalar OsgEarthNet.uav[47] utilizationEnergyMaintenance 458971.8487587
scalar OsgEarthNet.uav[47] utilizationEnergyCharge 1401859.2443848
scalar OsgEarthNet.uav[47] utilizationEnergyOverdrawMission 0
scalar OsgEarthNet.uav[47] utilizationEnergyOverdrawMaintenance 0
scalar OsgEarthNet.uav[47] utilizationCountMissions 324
scalar OsgEarthNet.uav[47] utilizationCountManeuversMission 5978
scalar OsgEarthNet.uav[47] utilizationCountManeuversMaintenance 648
scalar OsgEarthNet.uav[47] utilizationCountChargeState 324
scalar OsgEarthNet.uav[47] utilizationCountOverdrawnAfterMission 0
scalar OsgEarthNet.uav[47] utilizationCountIdleState 4
scalar OsgEarthNet.uav[47] utilizationFail 0
scalar OsgEarthNet.uav[47] simulationTime 1209600
scalar OsgEarthNet.uav[48] utilizationSecMission 179544.06551693
scalar OsgEarthNet.uav[48] utilizationSecMaintenance 102014.61983574
scalar OsgEarthNet.uav[48] utilizationSecCharge 926319.31164734
scalar OsgEarthNet.uav[48] utilizationSecIdle 1722.002
scalar OsgEarthNet.uav[48] utilizationEnergyMission 863049.70331192
scalar OsgEarthNet.uav[48] utilizationEnergyMaintenance 482692.23814011
scalar OsgEarthNet.uav[48] utilizationEnergyCharge 1346027.5566406
scalar OsgEarthNet.uav[48] utilizationEnergyOverdrawMission 0
scalar OsgEarthNet.uav[48] utilizationEnergyOverdrawMaintenance 0
scalar OsgEarthNet.uav[48] utilizationCountMissions 330
scalar OsgEarthNet.uav[48] utilizationCountManeuversMission 5150
scalar OsgEarthNet.uav[48] utilizationCountManeuversMaintenance 660
scalar OsgEarthNet.uav[48] utilizationCountChargeState 330
scalar OsgEarthNet.uav[48] utilizationCountOverdrawnAfterMission 0
scalar OsgEarthNet.uav[48] utilizationCountIdleState 7
scalar OsgEarthNet.uav[48] utilizationFail 0
scalar OsgEarthNet.uav[48] simulationTime 1209600
scalar OsgEarthNet.uav[49] utilizationSecMission 182848.98846471
scalar OsgEarthNet.uav[49] utilizationSecMaintenance 107467.41987358
scalar OsgEarthNet.uav[49] utilizationSecCharge 916520
scalar OsgEarthNet.uav[49] utilizationSecIdle 2763.5906617084
scalar OsgEarthNet.uav[49] utilizationEnergyMission 889439.10244037
scalar OsgEarthNet.uav[49] utilizationEnergyMaintenance 507782.14843368
scalar OsgEarthNet.uav[49] utilizationEnergyCharge 1395760.8925781
scalar OsgEarthNet.uav[49] utilizationEnergyOverdrawMission 0
scalar OsgEarthNet.uav[49] utilizationEnergyOverdrawMaintenance 0
scalar OsgEarthNet.uav[49] utilizationCountMissions 327
scalar OsgEarthNet.uav[49] utilizationCountManeuversMission 5817
scalar OsgEarthNet.uav[49] utilizationCountManeuversMaintenance 655
scalar OsgEarthNet.uav[49] utilizationCountChargeState 327
scalar OsgEarthNet.uav[49] utilizationCountOverdrawnAfterMission 0
scalar OsgEarthNet.uav[49] utilizationCountIdleState 6
scalar OsgEarthNet.uav[49] utilizationFail 0
scalar OsgEarthNet.uav[49] simulationTime 1209600
scalar OsgEarthNet.uav[50] utilizationSecMission 194523.1359962
scalar OsgEarthNet.uav[50] utilizationSecMaintenance 103581.68915869
scalar OsgEarthNet.uav[50] utilizationSecCharge 909073.16884512
scalar OsgEarthNet.uav[50] utilizationSecIdle 2422.005
scalar OsgEarthNet.uav[50] utilizationEnergyMission 944025.80353928
scalar OsgEarthNet.uav[50] utilizationEnergyMaintenance 484568.31190872
scalar OsgEarthNet.uav[50] utilizationEnergyCharge 1423736.1987305
scalar OsgEarthNet.uav[50] utilizationEnergyOverdrawMission 0
scalar OsgEarthNet.uav[50] utilizationEnergyOverdrawMaintenance 0
scalar OsgEarthNet.uav[50] utilizationCountMissions 325
scalar OsgEarthNet.uav[50] utilizationCountManeuversMission 5913
scalar OsgEarthNet.uav[50] utilizationCountManeuversMaintenance 650
scalar OsgEarthNet.uav[50] utilizationCountChargeState 325
scalar OsgEarthNet.uav[50] utilizationCountOverdrawnAfterMission 0
scalar OsgEarthNet.uav[50] utilizationCountIdleState 4
scalar OsgEarthNet.uav[50] utilizationFail 0
scalar OsgEarthNet.uav[50] simulationTime 1209600
scalar OsgEarthNet.uav[51] utilizationSecMission 181210.68750102
scalar OsgEarthNet.uav[51] utilizationSecMaintenance 107119.67511113
scalar OsgEarthNet.uav[51] utilizationSecCharge 918517.63138785
scalar OsgEarthNet.uav[51] utilizationSecIdle 2752.005
scalar OsgEarthNet.uav[51] utilizationEnergyMission 879430.45331955
scalar OsgEarthNet.uav[51] utilizationEnergyMaintenance 506573.08772659
scalar OsgEarthNet.uav[51] utilizationEnergyCharge 1383302.9316406
scalar OsgEarthNet.uav[51] utilizationEnergyOverdrawMission 0
scalar OsgEarthNet.uav[51] utilizationEnergyOverdrawMaintenance 0
scalar OsgEarthNet.uav[51] utilizationCountMissions 331
scalar OsgEarthNet.uav[51] utilizationCountManeuversMission 5767
scalar OsgEarthNet.uav[51] utilizationCountManeuversMaintenance 662
scalar OsgEarthNet.uav[51] utilizationCountChargeState 331
scalar OsgEarthNet.uav[51] utilizationCountOverdrawnAfterMission 0
scalar OsgEarthNet.uav[51] utilizationCountIdleState 6
scalar OsgEarthNet.uav[51] utilizationFail 0
scalar OsgEarthNet.uav[51] simulationTime 1209600
scalar OsgEarthNet.uav[52] utilizationSecMission 189349.27749056
scalar OsgEarthNet.uav[52] utilizationSecMaintenance 102068.46408605
scalar OsgEarthNet.uav[52] utilizationSecCharge 916010.25442339
scalar OsgEarthNet.uav[52] utilizationSecIdle 2172.003
scalar OsgEarthNet.uav[52] utilizationEnergyMission 916523.13769531
scalar OsgEarthNet.uav[52] utilizationEnergyMaintenance 477685.63878632
scalar OsgEarthNet.uav[52] utilizationEnergyCharge 1388528.1464844
scalar OsgEarthNet.uav[52] utilizationEnergyOverdrawMission 0
scalar OsgEarthNet.uav[52] utilizationEnergyOverdrawMaintenance 0
scalar OsgEarthNet.uav[52] utilizationCountMissions 325
scalar OsgEarthNet.uav[52] utilizationCountManeuversMission 5804
scalar OsgEarthNet.uav[52] utilizationCountManeuversMaintenance 650
scalar OsgEarthNet.uav[52] utilizationCountChargeState 325
scalar OsgEarthNet.uav[52] utilizationCountOverdrawnAfterMission 0
scalar OsgEarthNet.uav[52] utilizationCountIdleState 7
scalar OsgEarthNet.uav[52] utilizationFail 0
scalar OsgEarthNet.uav[52] simulationTime 1209600
scalar OsgEarthNet.uav[53] utilizationSecMission 171582.06699034
scalar OsgEarthNet.uav[53] utilizationSecMaintenance 111767.58758468
scalar OsgEarthNet.uav[53] utilizationSecCharge 925298.34342497
scalar OsgEarthNet.uav[53] utilizationSecIdle 952.001
scalar OsgEarthNet.uav[53] utilizationEnergyMission 830124.89291382
scalar OsgEarthNet.uav[53] utilizationEnergyMaintenance 531347.68683243
scalar OsgEarthNet.uav[53] utilizationEnergyCharge 1365057.3703613
scalar OsgEarthNet.uav[53] utilizationEnergyOverdrawMission 0
scalar OsgEarthNet.uav[53] utilizationEnergyOverdrawMaintenance 0
scalar OsgEarthNet.uav[53] utilizationCountMissions 339
scalar OsgEarthNet.uav[53] utilizationCountManeuversMission 5369
scalar OsgEarthNet.uav[53] utilizationCountManeuversMaintenance 678
scalar OsgEarthNet.uav[53] utilizationCountChargeState 339
scalar OsgEarthNet.uav[53] utilizationCountOverdrawnAfterMission 0
scalar OsgEarthNet.uav[53] utilizationCountIdleState 9
scalar OsgEarthNet.uav[53] utilizationFail 0
scalar OsgEarthNet.uav[53] simulationTime 1209600
scalar OsgEarthNet.uav[54] utilizationSecMission 176770.74274169
scalar OsgEarthNet.uav[54] utilizationSecMaintenance 108516.76951392
scalar OsgEarthNet.uav[54] utilizationSecCharge 923860.48674439
scalar OsgEarthNet.uav[54] utilizationSecIdle 452
scalar OsgEarthNet.uav[54] utilizationEnergyMission 858995.21038055
scalar OsgEarthNet.uav[54] utilizationEnergyMaintenance 513441.40013504
scalar OsgEarthNet.uav[54] utilizationEnergyCharge 1368804.7976074
scalar OsgEarthNet.uav[54] utilizationEnergyOverdrawMission 0
scalar OsgEarthNet.uav[54] utilizationEnergyOverdrawMaintenance 0
scalar OsgEarthNet.uav[54] utilizationCountMissions 330
scalar OsgEarthNet.uav[54] utilizationCountManeuversMission 5651
scalar OsgEarthNet.uav[54] utilizationCountManeuversMaintenance 660
scalar OsgEarthNet.uav[54] utilizationCountChargeState 330
scalar OsgEarthNet.uav[54] utilizationCountOverdrawnAfterMission 0
scalar OsgEarthNet.uav[54] utilizationCountIdleState 9
scalar OsgEarthNet.uav[54] utilizationFail 0
scalar OsgEarthNet.uav[54] simulationTime 1209600
scalar OsgEarthNet.uav[55] utilizationSecMission 204186.26399329
scalar OsgEarthNet.uav[55] utilizationSecMaintenance 91012.908091644
scalar OsgEarthNet.uav[55] utilizationSecCharge 912929.37395635
scalar OsgEarthNet.uav[55] utilizationSecIdle 1471.4529587171
scalar OsgEarthNet.uav[55] utilizationEnergyMission 994048.19717789
scalar OsgEarthNet.uav[55] utilizationEnergyMaintenance 422433.47283554
scalar OsgEarthNet.uav[55] utilizationEnergyCharge 1408754.1782227
scalar OsgEarthNet.uav[55] utilizationEnergyOverdrawMission 0
scalar OsgEarthNet.uav[55] utilizationEnergyOverdrawMaintenance 7.2758560180664
scalar OsgEarthNet.uav[55] utilizationCountMissions 316
scalar OsgEarthNet.uav[55] utilizationCountManeuversMission 6409
scalar OsgEarthNet.uav[55] utilizationCountManeuversMaintenance 632
scalar OsgEarthNet.uav[55] utilizationCountChargeState 316
scalar OsgEarthNet.uav[55] utilizationCountOverdrawnAfterMission 1
scalar OsgEarthNet.uav[55] utilizationCountIdleState 1
scalar OsgEarthNet.uav[55] utilizationFail 0
scalar OsgEarthNet.uav[55] simulationTime 1209600
scalar OsgEarthNet.uav[56] utilizationSecMission 181067.75312188
scalar OsgEarthNet.uav[56] utilizationSecMaintenance 116120.24587812
scalar OsgEarthNet.uav[56] utilizationSecCharge 912000
scalar OsgEarthNet.uav[56] utilizationSecIdle 412
scalar OsgEarthNet.uav[56] utilizationEnergyMission 876760.54324722
scalar OsgEarthNet.uav[56] utilizationEnergyMaintenance 551730.20380964
scalar OsgEarthNet.uav[56] utilizationEnergyCharge 1427253.1804199
scalar OsgEarthNet.uav[56] utilizationEnergyOverdrawMission 0
scalar OsgEarthNet.uav[56] utilizationEnergyOverdrawMaintenance 0
scalar OsgEarthNet.uav[56] utilizationCountMissions 335
scalar OsgEarthNet.uav[56] utilizationCountManeuversMission 5709
scalar OsgEarthNet.uav[56] utilizationCountManeuversMaintenance 670
scalar OsgEarthNet.uav[56] utilizationCountChargeState 335
scalar OsgEarthNet.uav[56] utilizationCountOverdrawnAfterMission 0
scalar OsgEarthNet.uav[56] utilizationCountIdleState 6
scalar OsgEarthNet.uav[56] utilizationFail 0
scalar OsgEarthNet.uav[56] simulationTime 1209600
scalar OsgEarthNet.cs[0] usedPower 19467846.621773
scalar OsgEarthNet.cs[0] chargedPower 19467846.621773
scalar OsgEarthNet.cs[0] chargedMobileNodes 22
scalar OsgEarthNet.cs[0] reservations 4515
scalar OsgEarthNet.cs[1] usedPower 23036417.308434
scalar OsgEarthNet.cs[1] chargedPower 23036417.308434
scalar OsgEarthNet.cs[1] chargedMobileNodes 147
scalar OsgEarthNet.cs[1] reservations 5753
scalar OsgEarthNet.cs[2] usedPower 37186663.63336
scalar OsgEarthNet.cs[2] chargedPower 37186663.63336
scalar OsgEarthNet.cs[2] chargedMobileNodes 48
scalar OsgEarthNet.cs[2] reservations 8268

