version 2
run Szenario_Hotel_Gabelbach-95-20180719-01:42:30-24676
attr configname Szenario_Hotel_Gabelbach
attr datetime 20180719-01:42:30
attr experiment Szenario_Hotel_Gabelbach
attr inifile omnetpp.ini
attr iterationvars "$replM=2, $biWeight=0.35, $replSearchM=1, $numUAVs=56"
attr iterationvarsf replM=2,biWeight=0.35,replSearchM=1,numUAVs=56-
attr measurement "$replM=2, $biWeight=0.35, $replSearchM=1, $numUAVs=56"
attr network OsgEarthNet
attr processid 24676
attr repetition 47
attr replication #47
attr resultdir results
attr runnumber 95
attr seedset 95
itervar biWeight 0.35
itervar numUAVs 56
itervar replM 2
itervar replSearchM 1
param *.osgEarthScene.scene "\"Szenario_Hotel_Gabelbach.earth\""
param *.playgroundLatitude 50.6830269
param *.playgroundLongitude 10.8538055
param *.playgroundWidth 3500m
param *.playgroundHeight 3500m
param *.cs[0].posX 3537m
param *.cs[0].posY 965m
param *.cs[0].posZ 538m
param *.cs[1].posX 312m
param *.cs[1].posY 1262m
param *.cs[1].posZ 539m
param *.cs[2].posX 2185m
param *.cs[2].posY 3026m
param *.cs[2].posZ 777m
param *.cs[3].posX 10m
param *.cs[3].posY 2200m
param *.cs[3].posZ 560m
param *.cs[4].posX 750m
param *.cs[4].posY 200m
param *.cs[4].posZ 540m
param *.cs[5].posX 2450m
param *.cs[5].posY 180m
param *.cs[5].posZ 524m
param *.cs[6].posX 3140m
param *.cs[6].posY 1790m
param *.cs[6].posZ 606m
param *.numCSs 3
param *.uav[*].replacementMethod 2
param *.uav[*].weightedSumWeight 0.35
param *.missionControl.replacementSearchMethod 1
param *.numUAVs 56
param *.*.timeStep 10s
param *.uav[*].commandPreviewCommandCount 20
param *.missionControl.missionFiles "\"missions\\\\Szenario_WB_Hotel_Gabelbach_Mission_Hotel.waypoints,missions\\\\Szenario_WB_Hotel_Gabelbach_Mission_Kickelhahn.waypoints,missions\\\\Szenario_WB_Hotel_Gabelbach_Mission_Ilmenau_Sportplatz.waypoints,missions\\\\Szenario_WB_Hotel_Gabelbach_Mission_Manebach_Mitte.waypoints,missions\\\\Szenario_WB_Hotel_Gabelbach_Mission_Manebach_Sued.waypoints,missions\\\\Szenario_WB_Hotel_Gabelbach_Hover_HoheSchlaufe.waypoints,missions\\\\Szenario_WB_Hotel_Gabelbach_Hover_Kickelhahn.waypoints,missions\\\\Szenario_WB_Hotel_Gabelbach_Hover_Gabelbachskopf.waypoints,missions\\\\Szenario_WB_Hotel_Gabelbach_Hover_Dachskopf.waypoints\""
param *.uav[0].startX 3537m
param *.uav[0].startY 965m
param *.uav[0].startZ 539m
param *.uav[1].startX 312m
param *.uav[1].startY 1262m
param *.uav[1].startZ 540m
param *.uav[2].startX 2185m
param *.uav[2].startY 3026m
param *.uav[2].startZ 778m
param *.uav[3].startX 3537m
param *.uav[3].startY 965m
param *.uav[3].startZ 539m
param *.uav[4].startX 312m
param *.uav[4].startY 1262m
param *.uav[4].startZ 540m
param *.uav[5].startX 2185m
param *.uav[5].startY 3026m
param *.uav[5].startZ 778m
param *.uav[6].startX 3537m
param *.uav[6].startY 965m
param *.uav[6].startZ 539m
param *.uav[7].startX 312m
param *.uav[7].startY 1262m
param *.uav[7].startZ 540m
param *.uav[8].startX 2185m
param *.uav[8].startY 3026m
param *.uav[8].startZ 778m
param *.uav[9].startX 3537m
param *.uav[9].startY 965m
param *.uav[9].startZ 539m
param *.uav[10].startX 3537m
param *.uav[10].startY 965m
param *.uav[10].startZ 539m
param *.uav[11].startX 312m
param *.uav[11].startY 1262m
param *.uav[11].startZ 540m
param *.uav[12].startX 2185m
param *.uav[12].startY 3026m
param *.uav[12].startZ 778m
param *.uav[13].startX 3537m
param *.uav[13].startY 965m
param *.uav[13].startZ 539m
param *.uav[14].startX 312m
param *.uav[14].startY 1262m
param *.uav[14].startZ 540m
param *.uav[15].startX 2185m
param *.uav[15].startY 3026m
param *.uav[15].startZ 778m
param *.uav[16].startX 3537m
param *.uav[16].startY 965m
param *.uav[16].startZ 539m
param *.uav[17].startX 312m
param *.uav[17].startY 1262m
param *.uav[17].startZ 540m
param *.uav[18].startX 2185m
param *.uav[18].startY 3026m
param *.uav[18].startZ 778m
param *.uav[19].startX 3537m
param *.uav[19].startY 965m
param *.uav[19].startZ 539m
param *.uav[20].startX 3537m
param *.uav[20].startY 965m
param *.uav[20].startZ 539m
param *.uav[21].startX 312m
param *.uav[21].startY 1262m
param *.uav[21].startZ 540m
param *.uav[22].startX 2185m
param *.uav[22].startY 3026m
param *.uav[22].startZ 778m
param *.uav[23].startX 3537m
param *.uav[23].startY 965m
param *.uav[23].startZ 539m
param *.uav[24].startX 312m
param *.uav[24].startY 1262m
param *.uav[24].startZ 540m
param *.uav[25].startX 2185m
param *.uav[25].startY 3026m
param *.uav[25].startZ 778m
param *.uav[26].startX 3537m
param *.uav[26].startY 965m
param *.uav[26].startZ 539m
param *.uav[27].startX 312m
param *.uav[27].startY 1262m
param *.uav[27].startZ 540m
param *.uav[28].startX 2185m
param *.uav[28].startY 3026m
param *.uav[28].startZ 778m
param *.uav[29].startX 3537m
param *.uav[29].startY 965m
param *.uav[29].startZ 539m
param *.uav[30].startX 3537m
param *.uav[30].startY 965m
param *.uav[30].startZ 539m
param *.uav[31].startX 312m
param *.uav[31].startY 1262m
param *.uav[31].startZ 540m
param *.uav[32].startX 2185m
param *.uav[32].startY 3026m
param *.uav[32].startZ 778m
param *.uav[33].startX 3537m
param *.uav[33].startY 965m
param *.uav[33].startZ 539m
param *.uav[34].startX 312m
param *.uav[34].startY 1262m
param *.uav[34].startZ 540m
param *.uav[35].startX 2185m
param *.uav[35].startY 3026m
param *.uav[35].startZ 778m
param *.uav[36].startX 3537m
param *.uav[36].startY 965m
param *.uav[36].startZ 539m
param *.uav[37].startX 312m
param *.uav[37].startY 1262m
param *.uav[37].startZ 540m
param *.uav[38].startX 2185m
param *.uav[38].startY 3026m
param *.uav[38].startZ 778m
param *.uav[39].startX 3537m
param *.uav[39].startY 965m
param *.uav[39].startZ 539m
param *.uav[40].startX 3537m
param *.uav[40].startY 965m
param *.uav[40].startZ 539m
param *.uav[41].startX 312m
param *.uav[41].startY 1262m
param *.uav[41].startZ 540m
param *.uav[42].startX 2185m
param *.uav[42].startY 3026m
param *.uav[42].startZ 778m
param *.uav[43].startX 3537m
param *.uav[43].startY 965m
param *.uav[43].startZ 539m
param *.uav[44].startX 312m
param *.uav[44].startY 1262m
param *.uav[44].startZ 540m
param *.uav[45].startX 2185m
param *.uav[45].startY 3026m
param *.uav[45].startZ 778m
param *.uav[46].startX 3537m
param *.uav[46].startY 965m
param *.uav[46].startZ 539m
param *.uav[47].startX 312m
param *.uav[47].startY 1262m
param *.uav[47].startZ 540m
param *.uav[48].startX 2185m
param *.uav[48].startY 3026m
param *.uav[48].startZ 778m
param *.uav[49].startX 3537m
param *.uav[49].startY 965m
param *.uav[49].startZ 539m
param *.uav[50].startX 3537m
param *.uav[50].startY 965m
param *.uav[50].startZ 539m
param *.uav[51].startX 312m
param *.uav[51].startY 1262m
param *.uav[51].startZ 540m
param *.uav[52].startX 2185m
param *.uav[52].startY 3026m
param *.uav[52].startZ 778m
param *.uav[53].startX 3537m
param *.uav[53].startY 965m
param *.uav[53].startZ 539m
param *.uav[54].startX 312m
param *.uav[54].startY 1262m
param *.uav[54].startZ 540m
param *.uav[55].startX 2185m
param *.uav[55].startY 3026m
param *.uav[55].startZ 778m
param *.uav[56].startX 3537m
param *.uav[56].startY 965m
param *.uav[56].startZ 539m
param *.uav[57].startX 312m
param *.uav[57].startY 1262m
param *.uav[57].startZ 540m
param *.uav[58].startX 2185m
param *.uav[58].startY 3026m
param *.uav[58].startZ 778m
param *.uav[59].startX 3537m
param *.uav[59].startY 965m
param *.uav[59].startZ 539m
param *.uav[60].startX 3537m
param *.uav[60].startY 965m
param *.uav[60].startZ 539m
param *.uav[61].startX 312m
param *.uav[61].startY 1262m
param *.uav[61].startZ 540m
param *.uav[62].startX 2185m
param *.uav[62].startY 3026m
param *.uav[62].startZ 778m
param *.uav[63].startX 3537m
param *.uav[63].startY 965m
param *.uav[63].startZ 539m
param *.uav[64].startX 312m
param *.uav[64].startY 1262m
param *.uav[64].startZ 540m
param *.uav[65].startX 2185m
param *.uav[65].startY 3026m
param *.uav[65].startZ 778m
param *.uav[66].startX 3537m
param *.uav[66].startY 965m
param *.uav[66].startZ 539m
param *.uav[67].startX 312m
param *.uav[67].startY 1262m
param *.uav[67].startZ 540m
param *.uav[68].startX 2185m
param *.uav[68].startY 3026m
param *.uav[68].startZ 778m
param *.uav[69].startX 3537m
param *.uav[69].startY 965m
param *.uav[69].startZ 539m
param *.uav[70].startX 3537m
param *.uav[70].startY 965m
param *.uav[70].startZ 539m
param *.uav[71].startX 312m
param *.uav[71].startY 1262m
param *.uav[71].startZ 540m
param *.uav[72].startX 2185m
param *.uav[72].startY 3026m
param *.uav[72].startZ 778m
param *.uav[73].startX 3537m
param *.uav[73].startY 965m
param *.uav[73].startZ 539m
param *.uav[74].startX 312m
param *.uav[74].startY 1262m
param *.uav[74].startZ 540m
param *.uav[75].startX 2185m
param *.uav[75].startY 3026m
param *.uav[75].startZ 778m
param *.uav[76].startX 3537m
param *.uav[76].startY 965m
param *.uav[76].startZ 539m
param *.uav[77].startX 312m
param *.uav[77].startY 1262m
param *.uav[77].startZ 540m
param *.uav[78].startX 2185m
param *.uav[78].startY 3026m
param *.uav[78].startZ 778m
param *.uav[79].startX 3537m
param *.uav[79].startY 965m
param *.uav[79].startZ 539m
param *.uav[80].startX 3537m
param *.uav[80].startY 965m
param *.uav[80].startZ 539m
param *.uav[81].startX 312m
param *.uav[81].startY 1262m
param *.uav[81].startZ 540m
param *.uav[82].startX 2185m
param *.uav[82].startY 3026m
param *.uav[82].startZ 778m
param *.uav[83].startX 3537m
param *.uav[83].startY 965m
param *.uav[83].startZ 539m
param *.uav[84].startX 312m
param *.uav[84].startY 1262m
param *.uav[84].startZ 540m
param *.uav[85].startX 2185m
param *.uav[85].startY 3026m
param *.uav[85].startZ 778m
param *.uav[86].startX 3537m
param *.uav[86].startY 965m
param *.uav[86].startZ 539m
param *.uav[87].startX 312m
param *.uav[87].startY 1262m
param *.uav[87].startZ 540m
param *.uav[88].startX 2185m
param *.uav[88].startY 3026m
param *.uav[88].startZ 778m
param *.uav[89].startX 3537m
param *.uav[89].startY 965m
param *.uav[89].startZ 539m
param *.uav[90].startX 3537m
param *.uav[90].startY 965m
param *.uav[90].startZ 539m
param *.uav[91].startX 312m
param *.uav[91].startY 1262m
param *.uav[91].startZ 540m
param *.uav[92].startX 2185m
param *.uav[92].startY 3026m
param *.uav[92].startZ 778m
param *.uav[93].startX 3537m
param *.uav[93].startY 965m
param *.uav[93].startZ 539m
param *.uav[94].startX 312m
param *.uav[94].startY 1262m
param *.uav[94].startZ 540m
param *.uav[95].startX 2185m
param *.uav[95].startY 3026m
param *.uav[95].startZ 778m
param *.uav[96].startX 3537m
param *.uav[96].startY 965m
param *.uav[96].startZ 539m
param *.uav[97].startX 312m
param *.uav[97].startY 1262m
param *.uav[97].startZ 540m
param *.uav[98].startX 2185m
param *.uav[98].startY 3026m
param *.uav[98].startZ 778m
param *.uav[99].startX 3537m
param *.uav[99].startY 965m
param *.uav[99].startZ 539m
param *.osgEarthScene.scene "\"boston.earth\""
param *.playgroundLatitude 42.3558
param *.playgroundLongitude -71.0677
param *.playgroundWidth 400m
param *.playgroundHeight 200m
param *.channelController.connectionColor "\"#0000FF40\""
param *.channelController.showConnections false
param *.uav[*].modelURL "\"quadrocopter.small.obj.15.scale.0,0,90.rot\""
param *.uav[*].labelColor "\"#FF7C00CC\""
param *.uav[*].label2Color "\"#FF7C00EE\""
param *.uav[*].batteryCapacity 5200mAh
param *.uav[*].batteryRemaining uav[index].batteryCapacity
param *.uav[*].predictionQuantile 0.95
param *.uav[*].replacementMethod 2
param *.uav[*].weightedSumWeight 0.5
param *.cs[*].modelURL "\"chargingstation_v1.osgt.2.scale.0,0,0.rot.0,0,-15e-1.trans\""
param *.cs[*].spotsWaiting 999
param *.cs[*].spotsCharging 999
param *.cs[*].chargeEffectivenessPercentage 100
param *.cs[*].nonLinearPhaseStartPercentage 85
param *.cs[*].chargeCurrent 6.0A
param *.cs[*].prioritizeFastCharge true
param *.missionControl.replacementSearchMethod 0
param *.*.timeStep 9s

scalar OsgEarthNet.uav[0] utilizationSecMission 179076.52728577
scalar OsgEarthNet.uav[0] utilizationSecMaintenance 122000.47994538
scalar OsgEarthNet.uav[0] utilizationSecCharge 906250.98676886
scalar OsgEarthNet.uav[0] utilizationSecIdle 2272.005
scalar OsgEarthNet.uav[0] utilizationEnergyMission 875957.48735046
scalar OsgEarthNet.uav[0] utilizationEnergyMaintenance 576760.81280136
scalar OsgEarthNet.uav[0] utilizationEnergyCharge 1438413.5536499
scalar OsgEarthNet.uav[0] utilizationEnergyOverdrawMission 0
scalar OsgEarthNet.uav[0] utilizationEnergyOverdrawMaintenance 0
scalar OsgEarthNet.uav[0] utilizationCountMissions 347
scalar OsgEarthNet.uav[0] utilizationCountManeuversMission 5951
scalar OsgEarthNet.uav[0] utilizationCountManeuversMaintenance 694
scalar OsgEarthNet.uav[0] utilizationCountChargeState 347
scalar OsgEarthNet.uav[0] utilizationCountOverdrawnAfterMission 0
scalar OsgEarthNet.uav[0] utilizationCountIdleState 2
scalar OsgEarthNet.uav[0] utilizationFail 0
scalar OsgEarthNet.uav[0] simulationTime 1209600
scalar OsgEarthNet.uav[1] utilizationSecMission 184044.11040107
scalar OsgEarthNet.uav[1] utilizationSecMaintenance 117950.44651024
scalar OsgEarthNet.uav[1] utilizationSecCharge 905400
scalar OsgEarthNet.uav[1] utilizationSecIdle 2205.4420886909
scalar OsgEarthNet.uav[1] utilizationEnergyMission 899041.8993798
scalar OsgEarthNet.uav[1] utilizationEnergyMaintenance 558877.96515655
scalar OsgEarthNet.uav[1] utilizationEnergyCharge 1450244.1286621
scalar OsgEarthNet.uav[1] utilizationEnergyOverdrawMission 0
scalar OsgEarthNet.uav[1] utilizationEnergyOverdrawMaintenance 0
scalar OsgEarthNet.uav[1] utilizationCountMissions 342
scalar OsgEarthNet.uav[1] utilizationCountManeuversMission 6112
scalar OsgEarthNet.uav[1] utilizationCountManeuversMaintenance 685
scalar OsgEarthNet.uav[1] utilizationCountChargeState 342
scalar OsgEarthNet.uav[1] utilizationCountOverdrawnAfterMission 0
scalar OsgEarthNet.uav[1] utilizationCountIdleState 1
scalar OsgEarthNet.uav[1] utilizationFail 0
scalar OsgEarthNet.uav[1] simulationTime 1209600
scalar OsgEarthNet.uav[2] utilizationSecMission 178146.13588184
scalar OsgEarthNet.uav[2] utilizationSecMaintenance 112800.95809017
scalar OsgEarthNet.uav[2] utilizationSecCharge 917510.90302799
scalar OsgEarthNet.uav[2] utilizationSecIdle 1142.002
scalar OsgEarthNet.uav[2] utilizationEnergyMission 864240.9695282
scalar OsgEarthNet.uav[2] utilizationEnergyMaintenance 534788.99927902
scalar OsgEarthNet.uav[2] utilizationEnergyCharge 1399395.6386719
scalar OsgEarthNet.uav[2] utilizationEnergyOverdrawMission 0
scalar OsgEarthNet.uav[2] utilizationEnergyOverdrawMaintenance 0
scalar OsgEarthNet.uav[2] utilizationCountMissions 344
scalar OsgEarthNet.uav[2] utilizationCountManeuversMission 5521
scalar OsgEarthNet.uav[2] utilizationCountManeuversMaintenance 688
scalar OsgEarthNet.uav[2] utilizationCountChargeState 344
scalar OsgEarthNet.uav[2] utilizationCountOverdrawnAfterMission 0
scalar OsgEarthNet.uav[2] utilizationCountIdleState 2
scalar OsgEarthNet.uav[2] utilizationFail 0
scalar OsgEarthNet.uav[2] simulationTime 1209600
scalar OsgEarthNet.uav[3] utilizationSecMission 200755.6454294
scalar OsgEarthNet.uav[3] utilizationSecMaintenance 99650.426774495
scalar OsgEarthNet.uav[3] utilizationSecCharge 906345.34613923
scalar OsgEarthNet.uav[3] utilizationSecIdle 2848.5806568717
scalar OsgEarthNet.uav[3] utilizationEnergyMission 971337.33401108
scalar OsgEarthNet.uav[3] utilizationEnergyMaintenance 464323.28078079
scalar OsgEarthNet.uav[3] utilizationEnergyCharge 1437430.0734863
scalar OsgEarthNet.uav[3] utilizationEnergyOverdrawMission 0
scalar OsgEarthNet.uav[3] utilizationEnergyOverdrawMaintenance 0
scalar OsgEarthNet.uav[3] utilizationCountMissions 327
scalar OsgEarthNet.uav[3] utilizationCountManeuversMission 6206
scalar OsgEarthNet.uav[3] utilizationCountManeuversMaintenance 654
scalar OsgEarthNet.uav[3] utilizationCountChargeState 327
scalar OsgEarthNet.uav[3] utilizationCountOverdrawnAfterMission 0
scalar OsgEarthNet.uav[3] utilizationCountIdleState 1
scalar OsgEarthNet.uav[3] utilizationFail 0
scalar OsgEarthNet.uav[3] simulationTime 1209600
scalar OsgEarthNet.uav[4] utilizationSecMission 196195.79669801
scalar OsgEarthNet.uav[4] utilizationSecMaintenance 105251.31032793
scalar OsgEarthNet.uav[4] utilizationSecCharge 906227.45088537
scalar OsgEarthNet.uav[4] utilizationSecIdle 1925.4410886909
scalar OsgEarthNet.uav[4] utilizationEnergyMission 950411.03032303
scalar OsgEarthNet.uav[4] utilizationEnergyMaintenance 492240.79445648
scalar OsgEarthNet.uav[4] utilizationEnergyCharge 1438388.2636719
scalar OsgEarthNet.uav[4] utilizationEnergyOverdrawMission 0
scalar OsgEarthNet.uav[4] utilizationEnergyOverdrawMaintenance 0
scalar OsgEarthNet.uav[4] utilizationCountMissions 333
scalar OsgEarthNet.uav[4] utilizationCountManeuversMission 6187
scalar OsgEarthNet.uav[4] utilizationCountManeuversMaintenance 666
scalar OsgEarthNet.uav[4] utilizationCountChargeState 333
scalar OsgEarthNet.uav[4] utilizationCountOverdrawnAfterMission 0
scalar OsgEarthNet.uav[4] utilizationCountIdleState 2
scalar OsgEarthNet.uav[4] utilizationFail 0
scalar OsgEarthNet.uav[4] simulationTime 1209600
scalar OsgEarthNet.uav[5] utilizationSecMission 188256.3752655
scalar OsgEarthNet.uav[5] utilizationSecMaintenance 111864.7084433
scalar OsgEarthNet.uav[5] utilizationSecCharge 907947.46233249
scalar OsgEarthNet.uav[5] utilizationSecIdle 1531.4529587171
scalar OsgEarthNet.uav[5] utilizationEnergyMission 905339.70935059
scalar OsgEarthNet.uav[5] utilizationEnergyMaintenance 525188.96163559
scalar OsgEarthNet.uav[5] utilizationEnergyCharge 1433426.397583
scalar OsgEarthNet.uav[5] utilizationEnergyOverdrawMission 0
scalar OsgEarthNet.uav[5] utilizationEnergyOverdrawMaintenance 0
scalar OsgEarthNet.uav[5] utilizationCountMissions 340
scalar OsgEarthNet.uav[5] utilizationCountManeuversMission 5776
scalar OsgEarthNet.uav[5] utilizationCountManeuversMaintenance 680
scalar OsgEarthNet.uav[5] utilizationCountChargeState 340
scalar OsgEarthNet.uav[5] utilizationCountOverdrawnAfterMission 0
scalar OsgEarthNet.uav[5] utilizationCountIdleState 3
scalar OsgEarthNet.uav[5] utilizationFail 0
scalar OsgEarthNet.uav[5] simulationTime 1209600
scalar OsgEarthNet.uav[6] utilizationSecMission 184149.84726564
scalar OsgEarthNet.uav[6] utilizationSecMaintenance 112988.96200861
scalar OsgEarthNet.uav[6] utilizationSecCharge 912439.18972575
scalar OsgEarthNet.uav[6] utilizationSecIdle 22
scalar OsgEarthNet.uav[6] utilizationEnergyMission 891985.28142929
scalar OsgEarthNet.uav[6] utilizationEnergyMaintenance 537459.08876038
scalar OsgEarthNet.uav[6] utilizationEnergyCharge 1427633.4511719
scalar OsgEarthNet.uav[6] utilizationEnergyOverdrawMission 0
scalar OsgEarthNet.uav[6] utilizationEnergyOverdrawMaintenance 0
scalar OsgEarthNet.uav[6] utilizationCountMissions 343
scalar OsgEarthNet.uav[6] utilizationCountManeuversMission 5626
scalar OsgEarthNet.uav[6] utilizationCountManeuversMaintenance 685
scalar OsgEarthNet.uav[6] utilizationCountChargeState 343
scalar OsgEarthNet.uav[6] utilizationCountOverdrawnAfterMission 0
scalar OsgEarthNet.uav[6] utilizationCountIdleState 2
scalar OsgEarthNet.uav[6] utilizationFail 0
scalar OsgEarthNet.uav[6] simulationTime 1209600
scalar OsgEarthNet.uav[7] utilizationSecMission 190686.68568001
scalar OsgEarthNet.uav[7] utilizationSecMaintenance 106621.31181327
scalar OsgEarthNet.uav[7] utilizationSecCharge 911400
scalar OsgEarthNet.uav[7] utilizationSecIdle 892.00150672213
scalar OsgEarthNet.uav[7] utilizationEnergyMission 921888.79977417
scalar OsgEarthNet.uav[7] utilizationEnergyMaintenance 499989.42952551
scalar OsgEarthNet.uav[7] utilizationEnergyCharge 1424397.9416504
scalar OsgEarthNet.uav[7] utilizationEnergyOverdrawMission 0
scalar OsgEarthNet.uav[7] utilizationEnergyOverdrawMaintenance 0
scalar OsgEarthNet.uav[7] utilizationCountMissions 333
scalar OsgEarthNet.uav[7] utilizationCountManeuversMission 6112
scalar OsgEarthNet.uav[7] utilizationCountManeuversMaintenance 667
scalar OsgEarthNet.uav[7] utilizationCountChargeState 333
scalar OsgEarthNet.uav[7] utilizationCountOverdrawnAfterMission 0
scalar OsgEarthNet.uav[7] utilizationCountIdleState 1
scalar OsgEarthNet.uav[7] utilizationFail 0
scalar OsgEarthNet.uav[7] simulationTime 1209600
scalar OsgEarthNet.uav[8] utilizationSecMission 190297.93245106
scalar OsgEarthNet.uav[8] utilizationSecMaintenance 109632.43546827
scalar OsgEarthNet.uav[8] utilizationSecCharge 907480
scalar OsgEarthNet.uav[8] utilizationSecIdle 2189.6310806652
scalar OsgEarthNet.uav[8] utilizationEnergyMission 923662.09366481
scalar OsgEarthNet.uav[8] utilizationEnergyMaintenance 514872.98300552
scalar OsgEarthNet.uav[8] utilizationEnergyCharge 1431083.2521973
scalar OsgEarthNet.uav[8] utilizationEnergyOverdrawMission 0
scalar OsgEarthNet.uav[8] utilizationEnergyOverdrawMaintenance 0
scalar OsgEarthNet.uav[8] utilizationCountMissions 340
scalar OsgEarthNet.uav[8] utilizationCountManeuversMission 5856
scalar OsgEarthNet.uav[8] utilizationCountManeuversMaintenance 681
scalar OsgEarthNet.uav[8] utilizationCountChargeState 340
scalar OsgEarthNet.uav[8] utilizationCountOverdrawnAfterMission 0
scalar OsgEarthNet.uav[8] utilizationCountIdleState 1
scalar OsgEarthNet.uav[8] utilizationFail 0
scalar OsgEarthNet.uav[8] simulationTime 1209600
scalar OsgEarthNet.uav[9] utilizationSecMission 181386.32427493
scalar OsgEarthNet.uav[9] utilizationSecMaintenance 116732.40089344
scalar OsgEarthNet.uav[9] utilizationSecCharge 910569.76017068
scalar OsgEarthNet.uav[9] utilizationSecIdle 911.51366094966
scalar OsgEarthNet.uav[9] utilizationEnergyMission 874456.46183014
scalar OsgEarthNet.uav[9] utilizationEnergyMaintenance 551953.63726807
scalar OsgEarthNet.uav[9] utilizationEnergyCharge 1429058.9667969
scalar OsgEarthNet.uav[9] utilizationEnergyOverdrawMission 0
scalar OsgEarthNet.uav[9] utilizationEnergyOverdrawMaintenance 0
scalar OsgEarthNet.uav[9] utilizationCountMissions 344
scalar OsgEarthNet.uav[9] utilizationCountManeuversMission 5675
scalar OsgEarthNet.uav[9] utilizationCountManeuversMaintenance 688
scalar OsgEarthNet.uav[9] utilizationCountChargeState 344
scalar OsgEarthNet.uav[9] utilizationCountOverdrawnAfterMission 0
scalar OsgEarthNet.uav[9] utilizationCountIdleState 2
scalar OsgEarthNet.uav[9] utilizationFail 0
scalar OsgEarthNet.uav[9] simulationTime 1209600
scalar OsgEarthNet.uav[10] utilizationSecMission 187309.13286308
scalar OsgEarthNet.uav[10] utilizationSecMaintenance 111508.10017158
scalar OsgEarthNet.uav[10] utilizationSecCharge 908340
scalar OsgEarthNet.uav[10] utilizationSecIdle 2442.765965339
scalar OsgEarthNet.uav[10] utilizationEnergyMission 910301.3802202
scalar OsgEarthNet.uav[10] utilizationEnergyMaintenance 525755.30583191
scalar OsgEarthNet.uav[10] utilizationEnergyCharge 1438113.6682129
scalar OsgEarthNet.uav[10] utilizationEnergyOverdrawMission 0
scalar OsgEarthNet.uav[10] utilizationEnergyOverdrawMaintenance 0
scalar OsgEarthNet.uav[10] utilizationCountMissions 334
scalar OsgEarthNet.uav[10] utilizationCountManeuversMission 5933
scalar OsgEarthNet.uav[10] utilizationCountManeuversMaintenance 669
scalar OsgEarthNet.uav[10] utilizationCountChargeState 334
scalar OsgEarthNet.uav[10] utilizationCountOverdrawnAfterMission 0
scalar OsgEarthNet.uav[10] utilizationCountIdleState 1
scalar OsgEarthNet.uav[10] utilizationFail 0
scalar OsgEarthNet.uav[10] simulationTime 1209600
scalar OsgEarthNet.uav[11] utilizationSecMission 182995.47254896
scalar OsgEarthNet.uav[11] utilizationSecMaintenance 115782.52645104
scalar OsgEarthNet.uav[11] utilizationSecCharge 910800
scalar OsgEarthNet.uav[11] utilizationSecIdle 22
scalar OsgEarthNet.uav[11] utilizationEnergyMission 886724.38384247
scalar OsgEarthNet.uav[11] utilizationEnergyMaintenance 547012.21526815
scalar OsgEarthNet.uav[11] utilizationEnergyCharge 1434244.7307129
scalar OsgEarthNet.uav[11] utilizationEnergyOverdrawMission 0
scalar OsgEarthNet.uav[11] utilizationEnergyOverdrawMaintenance 0
scalar OsgEarthNet.uav[11] utilizationCountMissions 343
scalar OsgEarthNet.uav[11] utilizationCountManeuversMission 5851
scalar OsgEarthNet.uav[11] utilizationCountManeuversMaintenance 686
scalar OsgEarthNet.uav[11] utilizationCountChargeState 343
scalar OsgEarthNet.uav[11] utilizationCountOverdrawnAfterMission 0
scalar OsgEarthNet.uav[11] utilizationCountIdleState 2
scalar OsgEarthNet.uav[11] utilizationFail 0
scalar OsgEarthNet.uav[11] simulationTime 1209600
scalar OsgEarthNet.uav[12] utilizationSecMission 193629.7190161
scalar OsgEarthNet.uav[12] utilizationSecMaintenance 108113.92976308
scalar OsgEarthNet.uav[12] utilizationSecCharge 906060
scalar OsgEarthNet.uav[12] utilizationSecIdle 1796.3502208215
scalar OsgEarthNet.uav[12] utilizationEnergyMission 947288.73345184
scalar OsgEarthNet.uav[12] utilizationEnergyMaintenance 506224.77479935
scalar OsgEarthNet.uav[12] utilizationEnergyCharge 1443786.0773926
scalar OsgEarthNet.uav[12] utilizationEnergyOverdrawMission 0
scalar OsgEarthNet.uav[12] utilizationEnergyOverdrawMaintenance 0
scalar OsgEarthNet.uav[12] utilizationCountMissions 337
scalar OsgEarthNet.uav[12] utilizationCountManeuversMission 6345
scalar OsgEarthNet.uav[12] utilizationCountManeuversMaintenance 675
scalar OsgEarthNet.uav[12] utilizationCountChargeState 337
scalar OsgEarthNet.uav[12] utilizationCountOverdrawnAfterMission 0
scalar OsgEarthNet.uav[12] utilizationCountIdleState 2
scalar OsgEarthNet.uav[12] utilizationFail 0
scalar OsgEarthNet.uav[12] simulationTime 1209600
scalar OsgEarthNet.uav[13] utilizationSecMission 194437.09315371
scalar OsgEarthNet.uav[13] utilizationSecMaintenance 104175.7287792
scalar OsgEarthNet.uav[13] utilizationSecCharge 908563.58640538
scalar OsgEarthNet.uav[13] utilizationSecIdle 2423.5906617084
scalar OsgEarthNet.uav[13] utilizationEnergyMission 935947.76026535
scalar OsgEarthNet.uav[13] utilizationEnergyMaintenance 490503.07384109
scalar OsgEarthNet.uav[13] utilizationEnergyCharge 1425376.5510254
scalar OsgEarthNet.uav[13] utilizationEnergyOverdrawMission 0
scalar OsgEarthNet.uav[13] utilizationEnergyOverdrawMaintenance 0
scalar OsgEarthNet.uav[13] utilizationCountMissions 333
scalar OsgEarthNet.uav[13] utilizationCountManeuversMission 5883
scalar OsgEarthNet.uav[13] utilizationCountManeuversMaintenance 666
scalar OsgEarthNet.uav[13] utilizationCountChargeState 333
scalar OsgEarthNet.uav[13] utilizationCountOverdrawnAfterMission 0
scalar OsgEarthNet.uav[13] utilizationCountIdleState 1
scalar OsgEarthNet.uav[13] utilizationFail 0
scalar OsgEarthNet.uav[13] simulationTime 1209600
scalar OsgEarthNet.uav[14] utilizationSecMission 196412.29696573
scalar OsgEarthNet.uav[14] utilizationSecMaintenance 104593.55955238
scalar OsgEarthNet.uav[14] utilizationSecCharge 907979.53059237
scalar OsgEarthNet.uav[14] utilizationSecIdle 614.61188951643
scalar OsgEarthNet.uav[14] utilizationEnergyMission 949067.59740829
scalar OsgEarthNet.uav[14] utilizationEnergyMaintenance 488605.7707901
scalar OsgEarthNet.uav[14] utilizationEnergyCharge 1430669.0345459
scalar OsgEarthNet.uav[14] utilizationEnergyOverdrawMission 0
scalar OsgEarthNet.uav[14] utilizationEnergyOverdrawMaintenance 0
scalar OsgEarthNet.uav[14] utilizationCountMissions 332
scalar OsgEarthNet.uav[14] utilizationCountManeuversMission 6048
scalar OsgEarthNet.uav[14] utilizationCountManeuversMaintenance 664
scalar OsgEarthNet.uav[14] utilizationCountChargeState 332
scalar OsgEarthNet.uav[14] utilizationCountOverdrawnAfterMission 0
scalar OsgEarthNet.uav[14] utilizationCountIdleState 3
scalar OsgEarthNet.uav[14] utilizationFail 0
scalar OsgEarthNet.uav[14] simulationTime 1209600
scalar OsgEarthNet.uav[15] utilizationSecMission 193031.36660557
scalar OsgEarthNet.uav[15] utilizationSecMaintenance 105344.87052434
scalar OsgEarthNet.uav[15] utilizationSecCharge 911221.7618701
scalar OsgEarthNet.uav[15] utilizationSecIdle 2
scalar OsgEarthNet.uav[15] utilizationEnergyMission 932249.59011176
scalar OsgEarthNet.uav[15] utilizationEnergyMaintenance 493414.82564545
scalar OsgEarthNet.uav[15] utilizationEnergyCharge 1418803.2258301
scalar OsgEarthNet.uav[15] utilizationEnergyOverdrawMission 0
scalar OsgEarthNet.uav[15] utilizationEnergyOverdrawMaintenance 0
scalar OsgEarthNet.uav[15] utilizationCountMissions 339
scalar OsgEarthNet.uav[15] utilizationCountManeuversMission 5779
scalar OsgEarthNet.uav[15] utilizationCountManeuversMaintenance 677
scalar OsgEarthNet.uav[15] utilizationCountChargeState 339
scalar OsgEarthNet.uav[15] utilizationCountOverdrawnAfterMission 0
scalar OsgEarthNet.uav[15] utilizationCountIdleState 1
scalar OsgEarthNet.uav[15] utilizationFail 0
scalar OsgEarthNet.uav[15] simulationTime 1209600
scalar OsgEarthNet.uav[16] utilizationSecMission 200342.7876293
scalar OsgEarthNet.uav[16] utilizationSecMaintenance 97138.743081159
scalar OsgEarthNet.uav[16] utilizationSecCharge 911676.46728954
scalar OsgEarthNet.uav[16] utilizationSecIdle 442.001
scalar OsgEarthNet.uav[16] utilizationEnergyMission 968749.93984222
scalar OsgEarthNet.uav[16] utilizationEnergyMaintenance 455173.63354492
scalar OsgEarthNet.uav[16] utilizationEnergyCharge 1426044.2099609
scalar OsgEarthNet.uav[16] utilizationEnergyOverdrawMission 0
scalar OsgEarthNet.uav[16] utilizationEnergyOverdrawMaintenance 0
scalar OsgEarthNet.uav[16] utilizationCountMissions 331
scalar OsgEarthNet.uav[16] utilizationCountManeuversMission 6085
scalar OsgEarthNet.uav[16] utilizationCountManeuversMaintenance 662
scalar OsgEarthNet.uav[16] utilizationCountChargeState 331
scalar OsgEarthNet.uav[16] utilizationCountOverdrawnAfterMission 0
scalar OsgEarthNet.uav[16] utilizationCountIdleState 1
scalar OsgEarthNet.uav[16] utilizationFail 0
scalar OsgEarthNet.uav[16] simulationTime 1209600
scalar OsgEarthNet.uav[17] utilizationSecMission 186973.72649017
scalar OsgEarthNet.uav[17] utilizationSecMaintenance 112448.11820303
scalar OsgEarthNet.uav[17] utilizationSecCharge 907632.71121811
scalar OsgEarthNet.uav[17] utilizationSecIdle 2545.443088691
scalar OsgEarthNet.uav[17] utilizationEnergyMission 903201.66986847
scalar OsgEarthNet.uav[17] utilizationEnergyMaintenance 532748.01609802
scalar OsgEarthNet.uav[17] utilizationEnergyCharge 1435213.3288574
scalar OsgEarthNet.uav[17] utilizationEnergyOverdrawMission 0
scalar OsgEarthNet.uav[17] utilizationEnergyOverdrawMaintenance 0
scalar OsgEarthNet.uav[17] utilizationCountMissions 341
scalar OsgEarthNet.uav[17] utilizationCountManeuversMission 5676
scalar OsgEarthNet.uav[17] utilizationCountManeuversMaintenance 682
scalar OsgEarthNet.uav[17] utilizationCountChargeState 341
scalar OsgEarthNet.uav[17] utilizationCountOverdrawnAfterMission 0
scalar OsgEarthNet.uav[17] utilizationCountIdleState 1
scalar OsgEarthNet.uav[17] utilizationFail 0
scalar OsgEarthNet.uav[17] simulationTime 1209600
scalar OsgEarthNet.uav[18] utilizationSecMission 204620.4113831
scalar OsgEarthNet.uav[18] utilizationSecMaintenance 98627.587616899
scalar OsgEarthNet.uav[18] utilizationSecCharge 906260
scalar OsgEarthNet.uav[18] utilizationSecIdle 92
scalar OsgEarthNet.uav[18] utilizationEnergyMission 985732.84852025
scalar OsgEarthNet.uav[18] utilizationEnergyMaintenance 459882.56531525
scalar OsgEarthNet.uav[18] utilizationEnergyCharge 1445272.0837402
scalar OsgEarthNet.uav[18] utilizationEnergyOverdrawMission 0
scalar OsgEarthNet.uav[18] utilizationEnergyOverdrawMaintenance 0
scalar OsgEarthNet.uav[18] utilizationCountMissions 328
scalar OsgEarthNet.uav[18] utilizationCountManeuversMission 6132
scalar OsgEarthNet.uav[18] utilizationCountManeuversMaintenance 656
scalar OsgEarthNet.uav[18] utilizationCountChargeState 328
scalar OsgEarthNet.uav[18] utilizationCountOverdrawnAfterMission 0
scalar OsgEarthNet.uav[18] utilizationCountIdleState 3
scalar OsgEarthNet.uav[18] utilizationFail 0
scalar OsgEarthNet.uav[18] simulationTime 1209600
scalar OsgEarthNet.uav[19] utilizationSecMission 187751.69285371
scalar OsgEarthNet.uav[19] utilizationSecMaintenance 111628.02904845
scalar OsgEarthNet.uav[19] utilizationSecCharge 910218.27709783
scalar OsgEarthNet.uav[19] utilizationSecIdle 2
scalar OsgEarthNet.uav[19] utilizationEnergyMission 915969.57684708
scalar OsgEarthNet.uav[19] utilizationEnergyMaintenance 525298.98084259
scalar OsgEarthNet.uav[19] utilizationEnergyCharge 1438966.001709
scalar OsgEarthNet.uav[19] utilizationEnergyOverdrawMission 0
scalar OsgEarthNet.uav[19] utilizationEnergyOverdrawMaintenance 0
scalar OsgEarthNet.uav[19] utilizationCountMissions 342
scalar OsgEarthNet.uav[19] utilizationCountManeuversMission 6041
scalar OsgEarthNet.uav[19] utilizationCountManeuversMaintenance 683
scalar OsgEarthNet.uav[19] utilizationCountChargeState 342
scalar OsgEarthNet.uav[19] utilizationCountOverdrawnAfterMission 0
scalar OsgEarthNet.uav[19] utilizationCountIdleState 1
scalar OsgEarthNet.uav[19] utilizationFail 0
scalar OsgEarthNet.uav[19] simulationTime 1209600
scalar OsgEarthNet.uav[20] utilizationSecMission 180133.87415712
scalar OsgEarthNet.uav[20] utilizationSecMaintenance 112863.1741191
scalar OsgEarthNet.uav[20] utilizationSecCharge 913389.55860625
scalar OsgEarthNet.uav[20] utilizationSecIdle 3213.3921175336
scalar OsgEarthNet.uav[20] utilizationEnergyMission 873399.18399429
scalar OsgEarthNet.uav[20] utilizationEnergyMaintenance 534015.10860062
scalar OsgEarthNet.uav[20] utilizationEnergyCharge 1410350.3000488
scalar OsgEarthNet.uav[20] utilizationEnergyOverdrawMission 0
scalar OsgEarthNet.uav[20] utilizationEnergyOverdrawMaintenance 0
scalar OsgEarthNet.uav[20] utilizationCountMissions 345
scalar OsgEarthNet.uav[20] utilizationCountManeuversMission 5597
scalar OsgEarthNet.uav[20] utilizationCountManeuversMaintenance 690
scalar OsgEarthNet.uav[20] utilizationCountChargeState 345
scalar OsgEarthNet.uav[20] utilizationCountOverdrawnAfterMission 0
scalar OsgEarthNet.uav[20] utilizationCountIdleState 1
scalar OsgEarthNet.uav[20] utilizationFail 0
scalar OsgEarthNet.uav[20] simulationTime 1209600
scalar OsgEarthNet.uav[21] utilizationSecMission 192307.94163349
scalar OsgEarthNet.uav[21] utilizationSecMaintenance 103391.18131444
scalar OsgEarthNet.uav[21] utilizationSecCharge 912399.91206639
scalar OsgEarthNet.uav[21] utilizationSecIdle 1500.9639856735
scalar OsgEarthNet.uav[21] utilizationEnergyMission 935271.33559418
scalar OsgEarthNet.uav[21] utilizationEnergyMaintenance 485436.78089905
scalar OsgEarthNet.uav[21] utilizationEnergyCharge 1419558.0336914
scalar OsgEarthNet.uav[21] utilizationEnergyOverdrawMission 0
scalar OsgEarthNet.uav[21] utilizationEnergyOverdrawMaintenance 0
scalar OsgEarthNet.uav[21] utilizationCountMissions 332
scalar OsgEarthNet.uav[21] utilizationCountManeuversMission 6173
scalar OsgEarthNet.uav[21] utilizationCountManeuversMaintenance 664
scalar OsgEarthNet.uav[21] utilizationCountChargeState 332
scalar OsgEarthNet.uav[21] utilizationCountOverdrawnAfterMission 0
scalar OsgEarthNet.uav[21] utilizationCountIdleState 1
scalar OsgEarthNet.uav[21] utilizationFail 0
scalar OsgEarthNet.uav[21] simulationTime 1209600
scalar OsgEarthNet.uav[22] utilizationSecMission 195701.45551464
scalar OsgEarthNet.uav[22] utilizationSecMaintenance 104804.43255785
scalar OsgEarthNet.uav[22] utilizationSecCharge 907752.10892751
scalar OsgEarthNet.uav[22] utilizationSecIdle 1342.002
scalar OsgEarthNet.uav[22] utilizationEnergyMission 953306.44360352
scalar OsgEarthNet.uav[22] utilizationEnergyMaintenance 489824.62516785
scalar OsgEarthNet.uav[22] utilizationEnergyCharge 1440473.9265747
scalar OsgEarthNet.uav[22] utilizationEnergyOverdrawMission 0
scalar OsgEarthNet.uav[22] utilizationEnergyOverdrawMaintenance 0
scalar OsgEarthNet.uav[22] utilizationCountMissions 336
scalar OsgEarthNet.uav[22] utilizationCountManeuversMission 6276
scalar OsgEarthNet.uav[22] utilizationCountManeuversMaintenance 672
scalar OsgEarthNet.uav[22] utilizationCountChargeState 336
scalar OsgEarthNet.uav[22] utilizationCountOverdrawnAfterMission 0
scalar OsgEarthNet.uav[22] utilizationCountIdleState 1
scalar OsgEarthNet.uav[22] utilizationFail 0
scalar OsgEarthNet.uav[22] simulationTime 1209600
scalar OsgEarthNet.uav[23] utilizationSecMission 192856.67016771
scalar OsgEarthNet.uav[23] utilizationSecMaintenance 103803.80618298
scalar OsgEarthNet.uav[23] utilizationSecCharge 909898.57339365
scalar OsgEarthNet.uav[23] utilizationSecIdle 3040.9492556647
scalar OsgEarthNet.uav[23] utilizationEnergyMission 930131.71308899
scalar OsgEarthNet.uav[23] utilizationEnergyMaintenance 488491.14806366
scalar OsgEarthNet.uav[23] utilizationEnergyCharge 1418992.4851074
scalar OsgEarthNet.uav[23] utilizationEnergyOverdrawMission 0
scalar OsgEarthNet.uav[23] utilizationEnergyOverdrawMaintenance 0
scalar OsgEarthNet.uav[23] utilizationCountMissions 334
scalar OsgEarthNet.uav[23] utilizationCountManeuversMission 5564
scalar OsgEarthNet.uav[23] utilizationCountManeuversMaintenance 668
scalar OsgEarthNet.uav[23] utilizationCountChargeState 334
scalar OsgEarthNet.uav[23] utilizationCountOverdrawnAfterMission 0
scalar OsgEarthNet.uav[23] utilizationCountIdleState 1
scalar OsgEarthNet.uav[23] utilizationFail 0
scalar OsgEarthNet.uav[23] simulationTime 1209600
scalar OsgEarthNet.uav[24] utilizationSecMission 190624.97176309
scalar OsgEarthNet.uav[24] utilizationSecMaintenance 109373.97834539
scalar OsgEarthNet.uav[24] utilizationSecCharge 906899.04389152
scalar OsgEarthNet.uav[24] utilizationSecIdle 2702.005
scalar OsgEarthNet.uav[24] utilizationEnergyMission 928331.63572693
scalar OsgEarthNet.uav[24] utilizationEnergyMaintenance 513563.3266449
scalar OsgEarthNet.uav[24] utilizationEnergyCharge 1437731.40625
scalar OsgEarthNet.uav[24] utilizationEnergyOverdrawMission 0
scalar OsgEarthNet.uav[24] utilizationEnergyOverdrawMaintenance 0
scalar OsgEarthNet.uav[24] utilizationCountMissions 336
scalar OsgEarthNet.uav[24] utilizationCountManeuversMission 6116
scalar OsgEarthNet.uav[24] utilizationCountManeuversMaintenance 672
scalar OsgEarthNet.uav[24] utilizationCountChargeState 336
scalar OsgEarthNet.uav[24] utilizationCountOverdrawnAfterMission 0
scalar OsgEarthNet.uav[24] utilizationCountIdleState 1
scalar OsgEarthNet.uav[24] utilizationFail 0
scalar OsgEarthNet.uav[24] simulationTime 1209600
scalar OsgEarthNet.uav[25] utilizationSecMission 201462.16298861
scalar OsgEarthNet.uav[25] utilizationSecMaintenance 99882.875493916
scalar OsgEarthNet.uav[25] utilizationSecCharge 907555.74090356
scalar OsgEarthNet.uav[25] utilizationSecIdle 699.21961391566
scalar OsgEarthNet.uav[25] utilizationEnergyMission 978698.62926865
scalar OsgEarthNet.uav[25] utilizationEnergyMaintenance 465816.84729004
scalar OsgEarthNet.uav[25] utilizationEnergyCharge 1443111.5385742
scalar OsgEarthNet.uav[25] utilizationEnergyOverdrawMission 0
scalar OsgEarthNet.uav[25] utilizationEnergyOverdrawMaintenance 0
scalar OsgEarthNet.uav[25] utilizationCountMissions 331
scalar OsgEarthNet.uav[25] utilizationCountManeuversMission 6168
scalar OsgEarthNet.uav[25] utilizationCountManeuversMaintenance 662
scalar OsgEarthNet.uav[25] utilizationCountChargeState 331
scalar OsgEarthNet.uav[25] utilizationCountOverdrawnAfterMission 0
scalar OsgEarthNet.uav[25] utilizationCountIdleState 2
scalar OsgEarthNet.uav[25] utilizationFail 0
scalar OsgEarthNet.uav[25] simulationTime 1209600
scalar OsgEarthNet.uav[26] utilizationSecMission 195593.85477089
scalar OsgEarthNet.uav[26] utilizationSecMaintenance 104758.89064827
scalar OsgEarthNet.uav[26] utilizationSecCharge 907465.24958084
scalar OsgEarthNet.uav[26] utilizationSecIdle 1782.004
scalar OsgEarthNet.uav[26] utilizationEnergyMission 952887.36937714
scalar OsgEarthNet.uav[26] utilizationEnergyMaintenance 489712.54462433
scalar OsgEarthNet.uav[26] utilizationEnergyCharge 1436045.7214355
scalar OsgEarthNet.uav[26] utilizationEnergyOverdrawMission 0
scalar OsgEarthNet.uav[26] utilizationEnergyOverdrawMaintenance 0
scalar OsgEarthNet.uav[26] utilizationCountMissions 334
scalar OsgEarthNet.uav[26] utilizationCountManeuversMission 6329
scalar OsgEarthNet.uav[26] utilizationCountManeuversMaintenance 668
scalar OsgEarthNet.uav[26] utilizationCountChargeState 334
scalar OsgEarthNet.uav[26] utilizationCountOverdrawnAfterMission 0
scalar OsgEarthNet.uav[26] utilizationCountIdleState 1
scalar OsgEarthNet.uav[26] utilizationFail 0
scalar OsgEarthNet.uav[26] simulationTime 1209600
scalar OsgEarthNet.uav[27] utilizationSecMission 197042.49757822
scalar OsgEarthNet.uav[27] utilizationSecMaintenance 102905.50042178
scalar OsgEarthNet.uav[27] utilizationSecCharge 909110
scalar OsgEarthNet.uav[27] utilizationSecIdle 542.001
scalar OsgEarthNet.uav[27] utilizationEnergyMission 951967.31554046
scalar OsgEarthNet.uav[27] utilizationEnergyMaintenance 483344.14417267
scalar OsgEarthNet.uav[27] utilizationEnergyCharge 1428087.7810059
scalar OsgEarthNet.uav[27] utilizationEnergyOverdrawMission 0
scalar OsgEarthNet.uav[27] utilizationEnergyOverdrawMaintenance 0
scalar OsgEarthNet.uav[27] utilizationCountMissions 333
scalar OsgEarthNet.uav[27] utilizationCountManeuversMission 5779
scalar OsgEarthNet.uav[27] utilizationCountManeuversMaintenance 667
scalar OsgEarthNet.uav[27] utilizationCountChargeState 333
scalar OsgEarthNet.uav[27] utilizationCountOverdrawnAfterMission 0
scalar OsgEarthNet.uav[27] utilizationCountIdleState 1
scalar OsgEarthNet.uav[27] utilizationFail 0
scalar OsgEarthNet.uav[27] simulationTime 1209600
scalar OsgEarthNet.uav[28] utilizationSecMission 183476.50412767
scalar OsgEarthNet.uav[28] utilizationSecMaintenance 115194.17619817
scalar OsgEarthNet.uav[28] utilizationSecCharge 908907.31567416
scalar OsgEarthNet.uav[28] utilizationSecIdle 2022.003
scalar OsgEarthNet.uav[28] utilizationEnergyMission 887453.29035187
scalar OsgEarthNet.uav[28] utilizationEnergyMaintenance 547969.08679962
scalar OsgEarthNet.uav[28] utilizationEnergyCharge 1428106.4487305
scalar OsgEarthNet.uav[28] utilizationEnergyOverdrawMission 0
scalar OsgEarthNet.uav[28] utilizationEnergyOverdrawMaintenance 0
scalar OsgEarthNet.uav[28] utilizationCountMissions 343
scalar OsgEarthNet.uav[28] utilizationCountManeuversMission 5693
scalar OsgEarthNet.uav[28] utilizationCountManeuversMaintenance 686
scalar OsgEarthNet.uav[28] utilizationCountChargeState 343
scalar OsgEarthNet.uav[28] utilizationCountOverdrawnAfterMission 0
scalar OsgEarthNet.uav[28] utilizationCountIdleState 1
scalar OsgEarthNet.uav[28] utilizationFail 0
scalar OsgEarthNet.uav[28] simulationTime 1209600
scalar OsgEarthNet.uav[29] utilizationSecMission 193476.49494074
scalar OsgEarthNet.uav[29] utilizationSecMaintenance 107825.03513785
scalar OsgEarthNet.uav[29] utilizationSecCharge 905436.32418146
scalar OsgEarthNet.uav[29] utilizationSecIdle 2862.1447399488
scalar OsgEarthNet.uav[29] utilizationEnergyMission 938072.33763123
scalar OsgEarthNet.uav[29] utilizationEnergyMaintenance 505309.6458931
scalar OsgEarthNet.uav[29] utilizationEnergyCharge 1438742.7008057
scalar OsgEarthNet.uav[29] utilizationEnergyOverdrawMission 0
scalar OsgEarthNet.uav[29] utilizationEnergyOverdrawMaintenance 0
scalar OsgEarthNet.uav[29] utilizationCountMissions 338
scalar OsgEarthNet.uav[29] utilizationCountManeuversMission 5975
scalar OsgEarthNet.uav[29] utilizationCountManeuversMaintenance 676
scalar OsgEarthNet.uav[29] utilizationCountChargeState 338
scalar OsgEarthNet.uav[29] utilizationCountOverdrawnAfterMission 0
scalar OsgEarthNet.uav[29] utilizationCountIdleState 2
scalar OsgEarthNet.uav[29] utilizationFail 0
scalar OsgEarthNet.uav[29] simulationTime 1209600
scalar OsgEarthNet.uav[30] utilizationSecMission 196551.32326456
scalar OsgEarthNet.uav[30] utilizationSecMaintenance 106983.2639293
scalar OsgEarthNet.uav[30] utilizationSecCharge 905183.40980615
scalar OsgEarthNet.uav[30] utilizationSecIdle 882.002
scalar OsgEarthNet.uav[30] utilizationEnergyMission 958866.81459808
scalar OsgEarthNet.uav[30] utilizationEnergyMaintenance 500931.39762115
scalar OsgEarthNet.uav[30] utilizationEnergyCharge 1455142.8818359
scalar OsgEarthNet.uav[30] utilizationEnergyOverdrawMission 0
scalar OsgEarthNet.uav[30] utilizationEnergyOverdrawMaintenance 0
scalar OsgEarthNet.uav[30] utilizationCountMissions 333
scalar OsgEarthNet.uav[30] utilizationCountManeuversMission 6406
scalar OsgEarthNet.uav[30] utilizationCountManeuversMaintenance 666
scalar OsgEarthNet.uav[30] utilizationCountChargeState 333
scalar OsgEarthNet.uav[30] utilizationCountOverdrawnAfterMission 0
scalar OsgEarthNet.uav[30] utilizationCountIdleState 1
scalar OsgEarthNet.uav[30] utilizationFail 0
scalar OsgEarthNet.uav[30] simulationTime 1209600
scalar OsgEarthNet.uav[31] utilizationSecMission 203662.64535266
scalar OsgEarthNet.uav[31] utilizationSecMaintenance 98513.541205777
scalar OsgEarthNet.uav[31] utilizationSecCharge 905585.45883868
scalar OsgEarthNet.uav[31] utilizationSecIdle 1838.3536028792
scalar OsgEarthNet.uav[31] utilizationEnergyMission 989694.66149902
scalar OsgEarthNet.uav[31] utilizationEnergyMaintenance 454988.83050537
scalar OsgEarthNet.uav[31] utilizationEnergyCharge 1444727.6762695
scalar OsgEarthNet.uav[31] utilizationEnergyOverdrawMission 0
scalar OsgEarthNet.uav[31] utilizationEnergyOverdrawMaintenance 0
scalar OsgEarthNet.uav[31] utilizationCountMissions 328
scalar OsgEarthNet.uav[31] utilizationCountManeuversMission 6435
scalar OsgEarthNet.uav[31] utilizationCountManeuversMaintenance 656
scalar OsgEarthNet.uav[31] utilizationCountChargeState 328
scalar OsgEarthNet.uav[31] utilizationCountOverdrawnAfterMission 0
scalar OsgEarthNet.uav[31] utilizationCountIdleState 2
scalar OsgEarthNet.uav[31] utilizationFail 0
scalar OsgEarthNet.uav[31] simulationTime 1209600
scalar OsgEarthNet.uav[32] utilizationSecMission 200214.07981621
scalar OsgEarthNet.uav[32] utilizationSecMaintenance 101436.66841174
scalar OsgEarthNet.uav[32] utilizationSecCharge 906347.24777206
scalar OsgEarthNet.uav[32] utilizationSecIdle 1602.003
scalar OsgEarthNet.uav[32] utilizationEnergyMission 960712.3685112
scalar OsgEarthNet.uav[32] utilizationEnergyMaintenance 473467.39746475
scalar OsgEarthNet.uav[32] utilizationEnergyCharge 1433877.2272949
scalar OsgEarthNet.uav[32] utilizationEnergyOverdrawMission 0
scalar OsgEarthNet.uav[32] utilizationEnergyOverdrawMaintenance 0
scalar OsgEarthNet.uav[32] utilizationCountMissions 330
scalar OsgEarthNet.uav[32] utilizationCountManeuversMission 6086
scalar OsgEarthNet.uav[32] utilizationCountManeuversMaintenance 660
scalar OsgEarthNet.uav[32] utilizationCountChargeState 330
scalar OsgEarthNet.uav[32] utilizationCountOverdrawnAfterMission 0
scalar OsgEarthNet.uav[32] utilizationCountIdleState 2
scalar OsgEarthNet.uav[32] utilizationFail 0
scalar OsgEarthNet.uav[32] simulationTime 1209600
scalar OsgEarthNet.uav[33] utilizationSecMission 192449.11656325
scalar OsgEarthNet.uav[33] utilizationSecMaintenance 106958.87943674
scalar OsgEarthNet.uav[33] utilizationSecCharge 908830
scalar OsgEarthNet.uav[33] utilizationSecIdle 1362.003
scalar OsgEarthNet.uav[33] utilizationEnergyMission 935071.75053787
scalar OsgEarthNet.uav[33] utilizationEnergyMaintenance 500683.44088105
scalar OsgEarthNet.uav[33] utilizationEnergyCharge 1430919.5048828
scalar OsgEarthNet.uav[33] utilizationEnergyOverdrawMission 0
scalar OsgEarthNet.uav[33] utilizationEnergyOverdrawMaintenance 0
scalar OsgEarthNet.uav[33] utilizationCountMissions 335
scalar OsgEarthNet.uav[33] utilizationCountManeuversMission 5892
scalar OsgEarthNet.uav[33] utilizationCountManeuversMaintenance 671
scalar OsgEarthNet.uav[33] utilizationCountChargeState 335
scalar OsgEarthNet.uav[33] utilizationCountOverdrawnAfterMission 0
scalar OsgEarthNet.uav[33] utilizationCountIdleState 1
scalar OsgEarthNet.uav[33] utilizationFail 0
scalar OsgEarthNet.uav[33] simulationTime 1209600
scalar OsgEarthNet.uav[34] utilizationSecMission 190588.59000031
scalar OsgEarthNet.uav[34] utilizationSecMaintenance 108691.60878109
scalar OsgEarthNet.uav[34] utilizationSecCharge 907790
scalar OsgEarthNet.uav[34] utilizationSecIdle 2529.8002186065
scalar OsgEarthNet.uav[34] utilizationEnergyMission 927493.17626851
scalar OsgEarthNet.uav[34] utilizationEnergyMaintenance 510869.21577835
scalar OsgEarthNet.uav[34] utilizationEnergyCharge 1435847.9030762
scalar OsgEarthNet.uav[34] utilizationEnergyOverdrawMission 0
scalar OsgEarthNet.uav[34] utilizationEnergyOverdrawMaintenance 0
scalar OsgEarthNet.uav[34] utilizationCountMissions 334
scalar OsgEarthNet.uav[34] utilizationCountManeuversMission 6107
scalar OsgEarthNet.uav[34] utilizationCountManeuversMaintenance 669
scalar OsgEarthNet.uav[34] utilizationCountChargeState 334
scalar OsgEarthNet.uav[34] utilizationCountOverdrawnAfterMission 0
scalar OsgEarthNet.uav[34] utilizationCountIdleState 1
scalar OsgEarthNet.uav[34] utilizationFail 0
scalar OsgEarthNet.uav[34] simulationTime 1209600
scalar OsgEarthNet.uav[35] utilizationSecMission 207777.1783714
scalar OsgEarthNet.uav[35] utilizationSecMaintenance 91352.529524333
scalar OsgEarthNet.uav[35] utilizationSecCharge 910448.29110427
scalar OsgEarthNet.uav[35] utilizationSecIdle 22
scalar OsgEarthNet.uav[35] utilizationEnergyMission 1008503.8863754
scalar OsgEarthNet.uav[35] utilizationEnergyMaintenance 424066.55216599
scalar OsgEarthNet.uav[35] utilizationEnergyCharge 1429372.0151367
scalar OsgEarthNet.uav[35] utilizationEnergyOverdrawMission 0
scalar OsgEarthNet.uav[35] utilizationEnergyOverdrawMaintenance 0
scalar OsgEarthNet.uav[35] utilizationCountMissions 324
scalar OsgEarthNet.uav[35] utilizationCountManeuversMission 6432
scalar OsgEarthNet.uav[35] utilizationCountManeuversMaintenance 648
scalar OsgEarthNet.uav[35] utilizationCountChargeState 324
scalar OsgEarthNet.uav[35] utilizationCountOverdrawnAfterMission 0
scalar OsgEarthNet.uav[35] utilizationCountIdleState 2
scalar OsgEarthNet.uav[35] utilizationFail 0
scalar OsgEarthNet.uav[35] simulationTime 1209600
scalar OsgEarthNet.uav[36] utilizationSecMission 198208.87247015
scalar OsgEarthNet.uav[36] utilizationSecMaintenance 99730.178274185
scalar OsgEarthNet.uav[36] utilizationSecCharge 909110
scalar OsgEarthNet.uav[36] utilizationSecIdle 2550.9482556647
scalar OsgEarthNet.uav[36] utilizationEnergyMission 953684.50103619
scalar OsgEarthNet.uav[36] utilizationEnergyMaintenance 467590.00600433
scalar OsgEarthNet.uav[36] utilizationEnergyCharge 1420867.7104492
scalar OsgEarthNet.uav[36] utilizationEnergyOverdrawMission 0
scalar OsgEarthNet.uav[36] utilizationEnergyOverdrawMaintenance 0
scalar OsgEarthNet.uav[36] utilizationCountMissions 329
scalar OsgEarthNet.uav[36] utilizationCountManeuversMission 5738
scalar OsgEarthNet.uav[36] utilizationCountManeuversMaintenance 659
scalar OsgEarthNet.uav[36] utilizationCountChargeState 329
scalar OsgEarthNet.uav[36] utilizationCountOverdrawnAfterMission 0
scalar OsgEarthNet.uav[36] utilizationCountIdleState 2
scalar OsgEarthNet.uav[36] utilizationFail 0
scalar OsgEarthNet.uav[36] simulationTime 1209600
scalar OsgEarthNet.uav[37] utilizationSecMission 201724.29784786
scalar OsgEarthNet.uav[37] utilizationSecMaintenance 97860.126940286
scalar OsgEarthNet.uav[37] utilizationSecCharge 907813.57021186
scalar OsgEarthNet.uav[37] utilizationSecIdle 2202.004
scalar OsgEarthNet.uav[37] utilizationEnergyMission 975835.89190292
scalar OsgEarthNet.uav[37] utilizationEnergyMaintenance 454470.86405945
scalar OsgEarthNet.uav[37] utilizationEnergyCharge 1427709.769043
scalar OsgEarthNet.uav[37] utilizationEnergyOverdrawMission 0
scalar OsgEarthNet.uav[37] utilizationEnergyOverdrawMaintenance 0
scalar OsgEarthNet.uav[37] utilizationCountMissions 328
scalar OsgEarthNet.uav[37] utilizationCountManeuversMission 6194
scalar OsgEarthNet.uav[37] utilizationCountManeuversMaintenance 656
scalar OsgEarthNet.uav[37] utilizationCountChargeState 328
scalar OsgEarthNet.uav[37] utilizationCountOverdrawnAfterMission 0
scalar OsgEarthNet.uav[37] utilizationCountIdleState 1
scalar OsgEarthNet.uav[37] utilizationFail 0
scalar OsgEarthNet.uav[37] simulationTime 1209600
scalar OsgEarthNet.uav[38] utilizationSecMission 189034.43620714
scalar OsgEarthNet.uav[38] utilizationSecMaintenance 112644.92819556
scalar OsgEarthNet.uav[38] utilizationSecCharge 906291.20925001
scalar OsgEarthNet.uav[38] utilizationSecIdle 1629.4253472904
scalar OsgEarthNet.uav[38] utilizationEnergyMission 924428.72879791
scalar OsgEarthNet.uav[38] utilizationEnergyMaintenance 530591.58609772
scalar OsgEarthNet.uav[38] utilizationEnergyCharge 1441259.282959
scalar OsgEarthNet.uav[38] utilizationEnergyOverdrawMission 0
scalar OsgEarthNet.uav[38] utilizationEnergyOverdrawMaintenance 0
scalar OsgEarthNet.uav[38] utilizationCountMissions 340
scalar OsgEarthNet.uav[38] utilizationCountManeuversMission 6066
scalar OsgEarthNet.uav[38] utilizationCountManeuversMaintenance 680
scalar OsgEarthNet.uav[38] utilizationCountChargeState 340
scalar OsgEarthNet.uav[38] utilizationCountOverdrawnAfterMission 0
scalar OsgEarthNet.uav[38] utilizationCountIdleState 3
scalar OsgEarthNet.uav[38] utilizationFail 0
scalar OsgEarthNet.uav[38] simulationTime 1209600
scalar OsgEarthNet.uav[39] utilizationSecMission 183672.87196808
scalar OsgEarthNet.uav[39] utilizationSecMaintenance 112261.22913934
scalar OsgEarthNet.uav[39] utilizationSecCharge 910337.81491279
scalar OsgEarthNet.uav[39] utilizationSecIdle 3328.0829797894
scalar OsgEarthNet.uav[39] utilizationEnergyMission 892718.16344833
scalar OsgEarthNet.uav[39] utilizationEnergyMaintenance 529649.252388
scalar OsgEarthNet.uav[39] utilizationEnergyCharge 1420155.1418457
scalar OsgEarthNet.uav[39] utilizationEnergyOverdrawMission 0
scalar OsgEarthNet.uav[39] utilizationEnergyOverdrawMaintenance 0
scalar OsgEarthNet.uav[39] utilizationCountMissions 339
scalar OsgEarthNet.uav[39] utilizationCountManeuversMission 5936
scalar OsgEarthNet.uav[39] utilizationCountManeuversMaintenance 678
scalar OsgEarthNet.uav[39] utilizationCountChargeState 339
scalar OsgEarthNet.uav[39] utilizationCountOverdrawnAfterMission 0
scalar OsgEarthNet.uav[39] utilizationCountIdleState 2
scalar OsgEarthNet.uav[39] utilizationFail 0
scalar OsgEarthNet.uav[39] simulationTime 1209600
scalar OsgEarthNet.uav[40] utilizationSecMission 195610.94271251
scalar OsgEarthNet.uav[40] utilizationSecMaintenance 103186.7974892
scalar OsgEarthNet.uav[40] utilizationSecCharge 907825.48251137
scalar OsgEarthNet.uav[40] utilizationSecIdle 2976.7762869274
scalar OsgEarthNet.uav[40] utilizationEnergyMission 949912.57577133
scalar OsgEarthNet.uav[40] utilizationEnergyMaintenance 483050.1505661
scalar OsgEarthNet.uav[40] utilizationEnergyCharge 1428715.1254883
scalar OsgEarthNet.uav[40] utilizationEnergyOverdrawMission 0
scalar OsgEarthNet.uav[40] utilizationEnergyOverdrawMaintenance 0
scalar OsgEarthNet.uav[40] utilizationCountMissions 334
scalar OsgEarthNet.uav[40] utilizationCountManeuversMission 6094
scalar OsgEarthNet.uav[40] utilizationCountManeuversMaintenance 668
scalar OsgEarthNet.uav[40] utilizationCountChargeState 334
scalar OsgEarthNet.uav[40] utilizationCountOverdrawnAfterMission 0
scalar OsgEarthNet.uav[40] utilizationCountIdleState 2
scalar OsgEarthNet.uav[40] utilizationFail 0
scalar OsgEarthNet.uav[40] simulationTime 1209600
scalar OsgEarthNet.uav[41] utilizationSecMission 188552.39411332
scalar OsgEarthNet.uav[41] utilizationSecMaintenance 108700.29579849
scalar OsgEarthNet.uav[41] utilizationSecCharge 911255.30708819
scalar OsgEarthNet.uav[41] utilizationSecIdle 1092.002
scalar OsgEarthNet.uav[41] utilizationEnergyMission 915806.4211731
scalar OsgEarthNet.uav[41] utilizationEnergyMaintenance 511604.26011658
scalar OsgEarthNet.uav[41] utilizationEnergyCharge 1424148.5515137
scalar OsgEarthNet.uav[41] utilizationEnergyOverdrawMission 0
scalar OsgEarthNet.uav[41] utilizationEnergyOverdrawMaintenance 0
scalar OsgEarthNet.uav[41] utilizationCountMissions 340
scalar OsgEarthNet.uav[41] utilizationCountManeuversMission 5967
scalar OsgEarthNet.uav[41] utilizationCountManeuversMaintenance 680
scalar OsgEarthNet.uav[41] utilizationCountChargeState 340
scalar OsgEarthNet.uav[41] utilizationCountOverdrawnAfterMission 0
scalar OsgEarthNet.uav[41] utilizationCountIdleState 2
scalar OsgEarthNet.uav[41] utilizationFail 0
scalar OsgEarthNet.uav[41] simulationTime 1209600
scalar OsgEarthNet.uav[42] utilizationSecMission 189647.18352142
scalar OsgEarthNet.uav[42] utilizationSecMaintenance 115517.72742636
scalar OsgEarthNet.uav[42] utilizationSecCharge 903545.91294181
scalar OsgEarthNet.uav[42] utilizationSecIdle 889.17511041073
scalar OsgEarthNet.uav[42] utilizationEnergyMission 925565.8230896
scalar OsgEarthNet.uav[42] utilizationEnergyMaintenance 542959.72101593
scalar OsgEarthNet.uav[42] utilizationEnergyCharge 1461294.7470703
scalar OsgEarthNet.uav[42] utilizationEnergyOverdrawMission 0
scalar OsgEarthNet.uav[42] utilizationEnergyOverdrawMaintenance 0
scalar OsgEarthNet.uav[42] utilizationCountMissions 339
scalar OsgEarthNet.uav[42] utilizationCountManeuversMission 6133
scalar OsgEarthNet.uav[42] utilizationCountManeuversMaintenance 678
scalar OsgEarthNet.uav[42] utilizationCountChargeState 339
scalar OsgEarthNet.uav[42] utilizationCountOverdrawnAfterMission 0
scalar OsgEarthNet.uav[42] utilizationCountIdleState 1
scalar OsgEarthNet.uav[42] utilizationFail 0
scalar OsgEarthNet.uav[42] simulationTime 1209600
scalar OsgEarthNet.uav[43] utilizationSecMission 198954.14904578
scalar OsgEarthNet.uav[43] utilizationSecMaintenance 101973.84995422
scalar OsgEarthNet.uav[43] utilizationSecCharge 908600
scalar OsgEarthNet.uav[43] utilizationSecIdle 72
scalar OsgEarthNet.uav[43] utilizationEnergyMission 958797.21703747
scalar OsgEarthNet.uav[43] utilizationEnergyMaintenance 476319.93021774
scalar OsgEarthNet.uav[43] utilizationEnergyCharge 1438961.3503418
scalar OsgEarthNet.uav[43] utilizationEnergyOverdrawMission 0
scalar OsgEarthNet.uav[43] utilizationEnergyOverdrawMaintenance 0
scalar OsgEarthNet.uav[43] utilizationCountMissions 332
scalar OsgEarthNet.uav[43] utilizationCountManeuversMission 5994
scalar OsgEarthNet.uav[43] utilizationCountManeuversMaintenance 665
scalar OsgEarthNet.uav[43] utilizationCountChargeState 332
scalar OsgEarthNet.uav[43] utilizationCountOverdrawnAfterMission 0
scalar OsgEarthNet.uav[43] utilizationCountIdleState 2
scalar OsgEarthNet.uav[43] utilizationFail 0
scalar OsgEarthNet.uav[43] simulationTime 1209600
scalar OsgEarthNet.uav[44] utilizationSecMission 189663.82462419
scalar OsgEarthNet.uav[44] utilizationSecMaintenance 109709.35236999
scalar OsgEarthNet.uav[44] utilizationSecCharge 908218.8221553
scalar OsgEarthNet.uav[44] utilizationSecIdle 2007.9998505245
scalar OsgEarthNet.uav[44] utilizationEnergyMission 924602.07408142
scalar OsgEarthNet.uav[44] utilizationEnergyMaintenance 514510.64376068
scalar OsgEarthNet.uav[44] utilizationEnergyCharge 1439756.1774902
scalar OsgEarthNet.uav[44] utilizationEnergyOverdrawMission 0
scalar OsgEarthNet.uav[44] utilizationEnergyOverdrawMaintenance 0
scalar OsgEarthNet.uav[44] utilizationCountMissions 333
scalar OsgEarthNet.uav[44] utilizationCountManeuversMission 6267
scalar OsgEarthNet.uav[44] utilizationCountManeuversMaintenance 666
scalar OsgEarthNet.uav[44] utilizationCountChargeState 333
scalar OsgEarthNet.uav[44] utilizationCountOverdrawnAfterMission 0
scalar OsgEarthNet.uav[44] utilizationCountIdleState 1
scalar OsgEarthNet.uav[44] utilizationFail 0
scalar OsgEarthNet.uav[44] simulationTime 1209600
scalar OsgEarthNet.uav[45] utilizationSecMission 202866.4011278
scalar OsgEarthNet.uav[45] utilizationSecMaintenance 97981.597872197
scalar OsgEarthNet.uav[45] utilizationSecCharge 908750
scalar OsgEarthNet.uav[45] utilizationSecIdle 2
scalar OsgEarthNet.uav[45] utilizationEnergyMission 982304.28483963
scalar OsgEarthNet.uav[45] utilizationEnergyMaintenance 454505.37685194
scalar OsgEarthNet.uav[45] utilizationEnergyCharge 1437061.3903809
scalar OsgEarthNet.uav[45] utilizationEnergyOverdrawMission 0
scalar OsgEarthNet.uav[45] utilizationEnergyOverdrawMaintenance 0
scalar OsgEarthNet.uav[45] utilizationCountMissions 327
scalar OsgEarthNet.uav[45] utilizationCountManeuversMission 6435
scalar OsgEarthNet.uav[45] utilizationCountManeuversMaintenance 655
scalar OsgEarthNet.uav[45] utilizationCountChargeState 327
scalar OsgEarthNet.uav[45] utilizationCountOverdrawnAfterMission 0
scalar OsgEarthNet.uav[45] utilizationCountIdleState 1
scalar OsgEarthNet.uav[45] utilizationFail 0
scalar OsgEarthNet.uav[45] simulationTime 1209600
scalar OsgEarthNet.uav[46] utilizationSecMission 192999.82283859
scalar OsgEarthNet.uav[46] utilizationSecMaintenance 107256.72749971
scalar OsgEarthNet.uav[46] utilizationSecCharge 906601.4426617
scalar OsgEarthNet.uav[46] utilizationSecIdle 2742.006
scalar OsgEarthNet.uav[46] utilizationEnergyMission 941289.05304718
scalar OsgEarthNet.uav[46] utilizationEnergyMaintenance 505030.15790176
scalar OsgEarthNet.uav[46] utilizationEnergyCharge 1441374.5808105
scalar OsgEarthNet.uav[46] utilizationEnergyOverdrawMission 0
scalar OsgEarthNet.uav[46] utilizationEnergyOverdrawMaintenance 0
scalar OsgEarthNet.uav[46] utilizationCountMissions 335
scalar OsgEarthNet.uav[46] utilizationCountManeuversMission 6348
scalar OsgEarthNet.uav[46] utilizationCountManeuversMaintenance 670
scalar OsgEarthNet.uav[46] utilizationCountChargeState 335
scalar OsgEarthNet.uav[46] utilizationCountOverdrawnAfterMission 0
scalar OsgEarthNet.uav[46] utilizationCountIdleState 1
scalar OsgEarthNet.uav[46] utilizationFail 0
scalar OsgEarthNet.uav[46] simulationTime 1209600
scalar OsgEarthNet.uav[47] utilizationSecMission 194608.18791805
scalar OsgEarthNet.uav[47] utilizationSecMaintenance 108939.81108195
scalar OsgEarthNet.uav[47] utilizationSecCharge 906050
scalar OsgEarthNet.uav[47] utilizationSecIdle 2
scalar OsgEarthNet.uav[47] utilizationEnergyMission 943983.54276657
scalar OsgEarthNet.uav[47] utilizationEnergyMaintenance 510406.9382273
scalar OsgEarthNet.uav[47] utilizationEnergyCharge 1451300.2243652
scalar OsgEarthNet.uav[47] utilizationEnergyOverdrawMission 0
scalar OsgEarthNet.uav[47] utilizationEnergyOverdrawMaintenance 0
scalar OsgEarthNet.uav[47] utilizationCountMissions 338
scalar OsgEarthNet.uav[47] utilizationCountManeuversMission 6013
scalar OsgEarthNet.uav[47] utilizationCountManeuversMaintenance 676
scalar OsgEarthNet.uav[47] utilizationCountChargeState 337
scalar OsgEarthNet.uav[47] utilizationCountOverdrawnAfterMission 0
scalar OsgEarthNet.uav[47] utilizationCountIdleState 1
scalar OsgEarthNet.uav[47] utilizationFail 0
scalar OsgEarthNet.uav[47] simulationTime 1209600
scalar OsgEarthNet.uav[48] utilizationSecMission 187203.57811404
scalar OsgEarthNet.uav[48] utilizationSecMaintenance 111086.98138838
scalar OsgEarthNet.uav[48] utilizationSecCharge 910767.43849757
scalar OsgEarthNet.uav[48] utilizationSecIdle 542.001
scalar OsgEarthNet.uav[48] utilizationEnergyMission 900311.51741791
scalar OsgEarthNet.uav[48] utilizationEnergyMaintenance 521532.10199738
scalar OsgEarthNet.uav[48] utilizationEnergyCharge 1420761.7915039
scalar OsgEarthNet.uav[48] utilizationEnergyOverdrawMission 0
scalar OsgEarthNet.uav[48] utilizationEnergyOverdrawMaintenance 0
scalar OsgEarthNet.uav[48] utilizationCountMissions 342
scalar OsgEarthNet.uav[48] utilizationCountManeuversMission 5559
scalar OsgEarthNet.uav[48] utilizationCountManeuversMaintenance 684
scalar OsgEarthNet.uav[48] utilizationCountChargeState 342
scalar OsgEarthNet.uav[48] utilizationCountOverdrawnAfterMission 0
scalar OsgEarthNet.uav[48] utilizationCountIdleState 1
scalar OsgEarthNet.uav[48] utilizationFail 0
scalar OsgEarthNet.uav[48] simulationTime 1209600
scalar OsgEarthNet.uav[49] utilizationSecMission 196418.41427607
scalar OsgEarthNet.uav[49] utilizationSecMaintenance 104947.81293609
scalar OsgEarthNet.uav[49] utilizationSecCharge 905387.34652662
scalar OsgEarthNet.uav[49] utilizationSecIdle 2846.4252612234
scalar OsgEarthNet.uav[49] utilizationEnergyMission 948809.06907272
scalar OsgEarthNet.uav[49] utilizationEnergyMaintenance 489368.51298904
scalar OsgEarthNet.uav[49] utilizationEnergyCharge 1435621.5472412
scalar OsgEarthNet.uav[49] utilizationEnergyOverdrawMission 0
scalar OsgEarthNet.uav[49] utilizationEnergyOverdrawMaintenance 0
scalar OsgEarthNet.uav[49] utilizationCountMissions 333
scalar OsgEarthNet.uav[49] utilizationCountManeuversMission 6088
scalar OsgEarthNet.uav[49] utilizationCountManeuversMaintenance 666
scalar OsgEarthNet.uav[49] utilizationCountChargeState 333
scalar OsgEarthNet.uav[49] utilizationCountOverdrawnAfterMission 0
scalar OsgEarthNet.uav[49] utilizationCountIdleState 1
scalar OsgEarthNet.uav[49] utilizationFail 0
scalar OsgEarthNet.uav[49] simulationTime 1209600
scalar OsgEarthNet.uav[50] utilizationSecMission 188825.75425092
scalar OsgEarthNet.uav[50] utilizationSecMaintenance 111795.69048858
scalar OsgEarthNet.uav[50] utilizationSecCharge 907306.41444736
scalar OsgEarthNet.uav[50] utilizationSecIdle 1672.1398131443
scalar OsgEarthNet.uav[50] utilizationEnergyMission 919439.97934723
scalar OsgEarthNet.uav[50] utilizationEnergyMaintenance 524991.83842468
scalar OsgEarthNet.uav[50] utilizationEnergyCharge 1445495.6828613
scalar OsgEarthNet.uav[50] utilizationEnergyOverdrawMission 0
scalar OsgEarthNet.uav[50] utilizationEnergyOverdrawMaintenance 0
scalar OsgEarthNet.uav[50] utilizationCountMissions 336
scalar OsgEarthNet.uav[50] utilizationCountManeuversMission 5997
scalar OsgEarthNet.uav[50] utilizationCountManeuversMaintenance 672
scalar OsgEarthNet.uav[50] utilizationCountChargeState 336
scalar OsgEarthNet.uav[50] utilizationCountOverdrawnAfterMission 0
scalar OsgEarthNet.uav[50] utilizationCountIdleState 1
scalar OsgEarthNet.uav[50] utilizationFail 0
scalar OsgEarthNet.uav[50] simulationTime 1209600
scalar OsgEarthNet.uav[51] utilizationSecMission 193890.3707202
scalar OsgEarthNet.uav[51] utilizationSecMaintenance 103537.0884046
scalar OsgEarthNet.uav[51] utilizationSecCharge 909755.22379337
scalar OsgEarthNet.uav[51] utilizationSecIdle 2417.3160818306
scalar OsgEarthNet.uav[51] utilizationEnergyMission 942823.57118225
scalar OsgEarthNet.uav[51] utilizationEnergyMaintenance 482271.8691864
scalar OsgEarthNet.uav[51] utilizationEnergyCharge 1420145.4625244
scalar OsgEarthNet.uav[51] utilizationEnergyOverdrawMission 0
scalar OsgEarthNet.uav[51] utilizationEnergyOverdrawMaintenance 0
scalar OsgEarthNet.uav[51] utilizationCountMissions 335
scalar OsgEarthNet.uav[51] utilizationCountManeuversMission 6204
scalar OsgEarthNet.uav[51] utilizationCountManeuversMaintenance 670
scalar OsgEarthNet.uav[51] utilizationCountChargeState 335
scalar OsgEarthNet.uav[51] utilizationCountOverdrawnAfterMission 0
scalar OsgEarthNet.uav[51] utilizationCountIdleState 1
scalar OsgEarthNet.uav[51] utilizationFail 0
scalar OsgEarthNet.uav[51] simulationTime 1209600
scalar OsgEarthNet.uav[52] utilizationSecMission 193939.09444478
scalar OsgEarthNet.uav[52] utilizationSecMaintenance 110266.15202257
scalar OsgEarthNet.uav[52] utilizationSecCharge 904752.75153265
scalar OsgEarthNet.uav[52] utilizationSecIdle 642.001
scalar OsgEarthNet.uav[52] utilizationEnergyMission 952326.6631279
scalar OsgEarthNet.uav[52] utilizationEnergyMaintenance 515814.18371201
scalar OsgEarthNet.uav[52] utilizationEnergyCharge 1463995.4768066
scalar OsgEarthNet.uav[52] utilizationEnergyOverdrawMission 0
scalar OsgEarthNet.uav[52] utilizationEnergyOverdrawMaintenance 0
scalar OsgEarthNet.uav[52] utilizationCountMissions 337
scalar OsgEarthNet.uav[52] utilizationCountManeuversMission 6641
scalar OsgEarthNet.uav[52] utilizationCountManeuversMaintenance 674
scalar OsgEarthNet.uav[52] utilizationCountChargeState 337
scalar OsgEarthNet.uav[52] utilizationCountOverdrawnAfterMission 0
scalar OsgEarthNet.uav[52] utilizationCountIdleState 1
scalar OsgEarthNet.uav[52] utilizationFail 0
scalar OsgEarthNet.uav[52] simulationTime 1209600
scalar OsgEarthNet.uav[53] utilizationSecMission 189006.9082757
scalar OsgEarthNet.uav[53] utilizationSecMaintenance 107140.56260383
scalar OsgEarthNet.uav[53] utilizationSecCharge 910190.52112047
scalar OsgEarthNet.uav[53] utilizationSecIdle 3262.007
scalar OsgEarthNet.uav[53] utilizationEnergyMission 923464.97047043
scalar OsgEarthNet.uav[53] utilizationEnergyMaintenance 504256.06784058
scalar OsgEarthNet.uav[53] utilizationEnergyCharge 1422249.7878418
scalar OsgEarthNet.uav[53] utilizationEnergyOverdrawMission 0
scalar OsgEarthNet.uav[53] utilizationEnergyOverdrawMaintenance 0
scalar OsgEarthNet.uav[53] utilizationCountMissions 337
scalar OsgEarthNet.uav[53] utilizationCountManeuversMission 5884
scalar OsgEarthNet.uav[53] utilizationCountManeuversMaintenance 674
scalar OsgEarthNet.uav[53] utilizationCountChargeState 337
scalar OsgEarthNet.uav[53] utilizationCountOverdrawnAfterMission 0
scalar OsgEarthNet.uav[53] utilizationCountIdleState 3
scalar OsgEarthNet.uav[53] utilizationFail 0
scalar OsgEarthNet.uav[53] simulationTime 1209600
scalar OsgEarthNet.uav[54] utilizationSecMission 195733.89245725
scalar OsgEarthNet.uav[54] utilizationSecMaintenance 103722.67386678
scalar OsgEarthNet.uav[54] utilizationSecCharge 908501.42967597
scalar OsgEarthNet.uav[54] utilizationSecIdle 1642.003
scalar OsgEarthNet.uav[54] utilizationEnergyMission 949099.64985275
scalar OsgEarthNet.uav[54] utilizationEnergyMaintenance 489023.06442642
scalar OsgEarthNet.uav[54] utilizationEnergyCharge 1426392.0730896
scalar OsgEarthNet.uav[54] utilizationEnergyOverdrawMission 0
scalar OsgEarthNet.uav[54] utilizationEnergyOverdrawMaintenance 0
scalar OsgEarthNet.uav[54] utilizationCountMissions 330
scalar OsgEarthNet.uav[54] utilizationCountManeuversMission 5960
scalar OsgEarthNet.uav[54] utilizationCountManeuversMaintenance 660
scalar OsgEarthNet.uav[54] utilizationCountChargeState 330
scalar OsgEarthNet.uav[54] utilizationCountOverdrawnAfterMission 0
scalar OsgEarthNet.uav[54] utilizationCountIdleState 1
scalar OsgEarthNet.uav[54] utilizationFail 0
scalar OsgEarthNet.uav[54] simulationTime 1209600
scalar OsgEarthNet.uav[55] utilizationSecMission 206278.11411422
scalar OsgEarthNet.uav[55] utilizationSecMaintenance 95556.742175186
scalar OsgEarthNet.uav[55] utilizationSecCharge 906997.69244656
scalar OsgEarthNet.uav[55] utilizationSecIdle 767.4502640309
scalar OsgEarthNet.uav[55] utilizationEnergyMission 995565.1792984
scalar OsgEarthNet.uav[55] utilizationEnergyMaintenance 446762.24044418
scalar OsgEarthNet.uav[55] utilizationEnergyCharge 1440852.5158691
scalar OsgEarthNet.uav[55] utilizationEnergyOverdrawMission 0
scalar OsgEarthNet.uav[55] utilizationEnergyOverdrawMaintenance 0
scalar OsgEarthNet.uav[55] utilizationCountMissions 326
scalar OsgEarthNet.uav[55] utilizationCountManeuversMission 6131
scalar OsgEarthNet.uav[55] utilizationCountManeuversMaintenance 652
scalar OsgEarthNet.uav[55] utilizationCountChargeState 326
scalar OsgEarthNet.uav[55] utilizationCountOverdrawnAfterMission 0
scalar OsgEarthNet.uav[55] utilizationCountIdleState 1
scalar OsgEarthNet.uav[55] utilizationFail 0
scalar OsgEarthNet.uav[55] simulationTime 1209600
scalar OsgEarthNet.cs[0] usedPower 19797225.326191
scalar OsgEarthNet.cs[0] chargedPower 19797225.326191
scalar OsgEarthNet.cs[0] chargedMobileNodes 4
scalar OsgEarthNet.cs[0] reservations 4643
scalar OsgEarthNet.cs[1] usedPower 22333978.586735
scalar OsgEarthNet.cs[1] chargedPower 22333978.586735
scalar OsgEarthNet.cs[1] chargedMobileNodes 12
scalar OsgEarthNet.cs[1] reservations 5599
scalar OsgEarthNet.cs[2] usedPower 38153892.99531
scalar OsgEarthNet.cs[2] chargedPower 38153892.99531
scalar OsgEarthNet.cs[2] chargedMobileNodes 11
scalar OsgEarthNet.cs[2] reservations 8547

