version 2
run Szenario_Hotel_Gabelbach-22-20180711-17:06:40-5300
attr configname Szenario_Hotel_Gabelbach
attr datetime 20180711-17:06:40
attr experiment Szenario_Hotel_Gabelbach
attr inifile omnetpp.ini
attr iterationvars "$replM=0, $replSearchM=1"
attr iterationvarsf replM=0,replSearchM=1-
attr measurement "$replM=0, $replSearchM=1"
attr network OsgEarthNet
attr processid 5300
attr repetition 6
attr replication #6
attr resultdir results
attr runnumber 22
attr seedset 22
itervar replM 0
itervar replSearchM 1
param *.osgEarthScene.scene "\"Szenario_Hotel_Gabelbach.earth\""
param *.playgroundLatitude 50.6830269
param *.playgroundLongitude 10.8538055
param *.playgroundWidth 3500m
param *.playgroundHeight 3500m
param *.numCSs 3
param *.numUAVs 100
param *.cs[0].posX 3537m
param *.cs[0].posY 965m
param *.cs[0].posZ 538m
param *.cs[1].posX 312m
param *.cs[1].posY 1262m
param *.cs[1].posZ 539m
param *.cs[2].posX 2185m
param *.cs[2].posY 3026m
param *.cs[2].posZ 777m
param *.cs[3].posX 10m
param *.cs[3].posY 2200m
param *.cs[3].posZ 560m
param *.cs[4].posX 750m
param *.cs[4].posY 200m
param *.cs[4].posZ 540m
param *.cs[5].posX 2450m
param *.cs[5].posY 180m
param *.cs[5].posZ 524m
param *.cs[6].posX 3140m
param *.cs[6].posY 1790m
param *.cs[6].posZ 606m
param *.numCSs 3
param *.numUAVs 100
param *.uav[*].replacementMethod 0
param *.missionControl.replacementSearchMethod 1
param *.*.timeStep 10s
param *.uav[*].commandPreviewCommandCount 20
param *.missionControl.missionFiles "\"missions\\\\Szenario_WB_Hotel_Gabelbach_Mission_Hotel.waypoints,missions\\\\Szenario_WB_Hotel_Gabelbach_Mission_Kickelhahn.waypoints,missions\\\\Szenario_WB_Hotel_Gabelbach_Mission_Ilmenau_Sportplatz.waypoints,missions\\\\Szenario_WB_Hotel_Gabelbach_Mission_Manebach_Mitte.waypoints,missions\\\\Szenario_WB_Hotel_Gabelbach_Mission_Manebach_Sued.waypoints,missions\\\\Szenario_WB_Hotel_Gabelbach_Hover_HoheSchlaufe.waypoints,missions\\\\Szenario_WB_Hotel_Gabelbach_Hover_Kickelhahn.waypoints,missions\\\\Szenario_WB_Hotel_Gabelbach_Hover_Gabelbachskopf.waypoints,missions\\\\Szenario_WB_Hotel_Gabelbach_Hover_Dachskopf.waypoints\""
param *.uav[0].startX 3537m
param *.uav[0].startY 965m
param *.uav[0].startZ 539m
param *.uav[1].startX 312m
param *.uav[1].startY 1262m
param *.uav[1].startZ 540m
param *.uav[2].startX 2185m
param *.uav[2].startY 3026m
param *.uav[2].startZ 778m
param *.uav[3].startX 3537m
param *.uav[3].startY 965m
param *.uav[3].startZ 539m
param *.uav[4].startX 312m
param *.uav[4].startY 1262m
param *.uav[4].startZ 540m
param *.uav[5].startX 2185m
param *.uav[5].startY 3026m
param *.uav[5].startZ 778m
param *.uav[6].startX 3537m
param *.uav[6].startY 965m
param *.uav[6].startZ 539m
param *.uav[7].startX 312m
param *.uav[7].startY 1262m
param *.uav[7].startZ 540m
param *.uav[8].startX 2185m
param *.uav[8].startY 3026m
param *.uav[8].startZ 778m
param *.uav[9].startX 3537m
param *.uav[9].startY 965m
param *.uav[9].startZ 539m
param *.uav[10].startX 3537m
param *.uav[10].startY 965m
param *.uav[10].startZ 539m
param *.uav[11].startX 312m
param *.uav[11].startY 1262m
param *.uav[11].startZ 540m
param *.uav[12].startX 2185m
param *.uav[12].startY 3026m
param *.uav[12].startZ 778m
param *.uav[13].startX 3537m
param *.uav[13].startY 965m
param *.uav[13].startZ 539m
param *.uav[14].startX 312m
param *.uav[14].startY 1262m
param *.uav[14].startZ 540m
param *.uav[15].startX 2185m
param *.uav[15].startY 3026m
param *.uav[15].startZ 778m
param *.uav[16].startX 3537m
param *.uav[16].startY 965m
param *.uav[16].startZ 539m
param *.uav[17].startX 312m
param *.uav[17].startY 1262m
param *.uav[17].startZ 540m
param *.uav[18].startX 2185m
param *.uav[18].startY 3026m
param *.uav[18].startZ 778m
param *.uav[19].startX 3537m
param *.uav[19].startY 965m
param *.uav[19].startZ 539m
param *.uav[20].startX 3537m
param *.uav[20].startY 965m
param *.uav[20].startZ 539m
param *.uav[21].startX 312m
param *.uav[21].startY 1262m
param *.uav[21].startZ 540m
param *.uav[22].startX 2185m
param *.uav[22].startY 3026m
param *.uav[22].startZ 778m
param *.uav[23].startX 3537m
param *.uav[23].startY 965m
param *.uav[23].startZ 539m
param *.uav[24].startX 312m
param *.uav[24].startY 1262m
param *.uav[24].startZ 540m
param *.uav[25].startX 2185m
param *.uav[25].startY 3026m
param *.uav[25].startZ 778m
param *.uav[26].startX 3537m
param *.uav[26].startY 965m
param *.uav[26].startZ 539m
param *.uav[27].startX 312m
param *.uav[27].startY 1262m
param *.uav[27].startZ 540m
param *.uav[28].startX 2185m
param *.uav[28].startY 3026m
param *.uav[28].startZ 778m
param *.uav[29].startX 3537m
param *.uav[29].startY 965m
param *.uav[29].startZ 539m
param *.uav[30].startX 3537m
param *.uav[30].startY 965m
param *.uav[30].startZ 539m
param *.uav[31].startX 312m
param *.uav[31].startY 1262m
param *.uav[31].startZ 540m
param *.uav[32].startX 2185m
param *.uav[32].startY 3026m
param *.uav[32].startZ 778m
param *.uav[33].startX 3537m
param *.uav[33].startY 965m
param *.uav[33].startZ 539m
param *.uav[34].startX 312m
param *.uav[34].startY 1262m
param *.uav[34].startZ 540m
param *.uav[35].startX 2185m
param *.uav[35].startY 3026m
param *.uav[35].startZ 778m
param *.uav[36].startX 3537m
param *.uav[36].startY 965m
param *.uav[36].startZ 539m
param *.uav[37].startX 312m
param *.uav[37].startY 1262m
param *.uav[37].startZ 540m
param *.uav[38].startX 2185m
param *.uav[38].startY 3026m
param *.uav[38].startZ 778m
param *.uav[39].startX 3537m
param *.uav[39].startY 965m
param *.uav[39].startZ 539m
param *.uav[40].startX 3537m
param *.uav[40].startY 965m
param *.uav[40].startZ 539m
param *.uav[41].startX 312m
param *.uav[41].startY 1262m
param *.uav[41].startZ 540m
param *.uav[42].startX 2185m
param *.uav[42].startY 3026m
param *.uav[42].startZ 778m
param *.uav[43].startX 3537m
param *.uav[43].startY 965m
param *.uav[43].startZ 539m
param *.uav[44].startX 312m
param *.uav[44].startY 1262m
param *.uav[44].startZ 540m
param *.uav[45].startX 2185m
param *.uav[45].startY 3026m
param *.uav[45].startZ 778m
param *.uav[46].startX 3537m
param *.uav[46].startY 965m
param *.uav[46].startZ 539m
param *.uav[47].startX 312m
param *.uav[47].startY 1262m
param *.uav[47].startZ 540m
param *.uav[48].startX 2185m
param *.uav[48].startY 3026m
param *.uav[48].startZ 778m
param *.uav[49].startX 3537m
param *.uav[49].startY 965m
param *.uav[49].startZ 539m
param *.uav[50].startX 3537m
param *.uav[50].startY 965m
param *.uav[50].startZ 539m
param *.uav[51].startX 312m
param *.uav[51].startY 1262m
param *.uav[51].startZ 540m
param *.uav[52].startX 2185m
param *.uav[52].startY 3026m
param *.uav[52].startZ 778m
param *.uav[53].startX 3537m
param *.uav[53].startY 965m
param *.uav[53].startZ 539m
param *.uav[54].startX 312m
param *.uav[54].startY 1262m
param *.uav[54].startZ 540m
param *.uav[55].startX 2185m
param *.uav[55].startY 3026m
param *.uav[55].startZ 778m
param *.uav[56].startX 3537m
param *.uav[56].startY 965m
param *.uav[56].startZ 539m
param *.uav[57].startX 312m
param *.uav[57].startY 1262m
param *.uav[57].startZ 540m
param *.uav[58].startX 2185m
param *.uav[58].startY 3026m
param *.uav[58].startZ 778m
param *.uav[59].startX 3537m
param *.uav[59].startY 965m
param *.uav[59].startZ 539m
param *.uav[60].startX 3537m
param *.uav[60].startY 965m
param *.uav[60].startZ 539m
param *.uav[61].startX 312m
param *.uav[61].startY 1262m
param *.uav[61].startZ 540m
param *.uav[62].startX 2185m
param *.uav[62].startY 3026m
param *.uav[62].startZ 778m
param *.uav[63].startX 3537m
param *.uav[63].startY 965m
param *.uav[63].startZ 539m
param *.uav[64].startX 312m
param *.uav[64].startY 1262m
param *.uav[64].startZ 540m
param *.uav[65].startX 2185m
param *.uav[65].startY 3026m
param *.uav[65].startZ 778m
param *.uav[66].startX 3537m
param *.uav[66].startY 965m
param *.uav[66].startZ 539m
param *.uav[67].startX 312m
param *.uav[67].startY 1262m
param *.uav[67].startZ 540m
param *.uav[68].startX 2185m
param *.uav[68].startY 3026m
param *.uav[68].startZ 778m
param *.uav[69].startX 3537m
param *.uav[69].startY 965m
param *.uav[69].startZ 539m
param *.uav[70].startX 3537m
param *.uav[70].startY 965m
param *.uav[70].startZ 539m
param *.uav[71].startX 312m
param *.uav[71].startY 1262m
param *.uav[71].startZ 540m
param *.uav[72].startX 2185m
param *.uav[72].startY 3026m
param *.uav[72].startZ 778m
param *.uav[73].startX 3537m
param *.uav[73].startY 965m
param *.uav[73].startZ 539m
param *.uav[74].startX 312m
param *.uav[74].startY 1262m
param *.uav[74].startZ 540m
param *.uav[75].startX 2185m
param *.uav[75].startY 3026m
param *.uav[75].startZ 778m
param *.uav[76].startX 3537m
param *.uav[76].startY 965m
param *.uav[76].startZ 539m
param *.uav[77].startX 312m
param *.uav[77].startY 1262m
param *.uav[77].startZ 540m
param *.uav[78].startX 2185m
param *.uav[78].startY 3026m
param *.uav[78].startZ 778m
param *.uav[79].startX 3537m
param *.uav[79].startY 965m
param *.uav[79].startZ 539m
param *.uav[80].startX 3537m
param *.uav[80].startY 965m
param *.uav[80].startZ 539m
param *.uav[81].startX 312m
param *.uav[81].startY 1262m
param *.uav[81].startZ 540m
param *.uav[82].startX 2185m
param *.uav[82].startY 3026m
param *.uav[82].startZ 778m
param *.uav[83].startX 3537m
param *.uav[83].startY 965m
param *.uav[83].startZ 539m
param *.uav[84].startX 312m
param *.uav[84].startY 1262m
param *.uav[84].startZ 540m
param *.uav[85].startX 2185m
param *.uav[85].startY 3026m
param *.uav[85].startZ 778m
param *.uav[86].startX 3537m
param *.uav[86].startY 965m
param *.uav[86].startZ 539m
param *.uav[87].startX 312m
param *.uav[87].startY 1262m
param *.uav[87].startZ 540m
param *.uav[88].startX 2185m
param *.uav[88].startY 3026m
param *.uav[88].startZ 778m
param *.uav[89].startX 3537m
param *.uav[89].startY 965m
param *.uav[89].startZ 539m
param *.uav[90].startX 3537m
param *.uav[90].startY 965m
param *.uav[90].startZ 539m
param *.uav[91].startX 312m
param *.uav[91].startY 1262m
param *.uav[91].startZ 540m
param *.uav[92].startX 2185m
param *.uav[92].startY 3026m
param *.uav[92].startZ 778m
param *.uav[93].startX 3537m
param *.uav[93].startY 965m
param *.uav[93].startZ 539m
param *.uav[94].startX 312m
param *.uav[94].startY 1262m
param *.uav[94].startZ 540m
param *.uav[95].startX 2185m
param *.uav[95].startY 3026m
param *.uav[95].startZ 778m
param *.uav[96].startX 3537m
param *.uav[96].startY 965m
param *.uav[96].startZ 539m
param *.uav[97].startX 312m
param *.uav[97].startY 1262m
param *.uav[97].startZ 540m
param *.uav[98].startX 2185m
param *.uav[98].startY 3026m
param *.uav[98].startZ 778m
param *.uav[99].startX 3537m
param *.uav[99].startY 965m
param *.uav[99].startZ 539m
param *.osgEarthScene.scene "\"boston.earth\""
param *.playgroundLatitude 42.3558
param *.playgroundLongitude -71.0677
param *.playgroundWidth 400m
param *.playgroundHeight 200m
param *.channelController.connectionColor "\"#0000FF40\""
param *.channelController.showConnections false
param *.uav[*].modelURL "\"quadrocopter.small.obj.15.scale.0,0,90.rot\""
param *.uav[*].labelColor "\"#FF7C00CC\""
param *.uav[*].label2Color "\"#FF7C00EE\""
param *.uav[*].batteryCapacity 5200mAh
param *.uav[*].batteryRemaining uav[index].batteryCapacity
param *.uav[*].predictionQuantile 0.95
param *.uav[*].replacementMethod 2
param *.uav[*].weightedSumWeight 0.5
param *.cs[*].modelURL "\"chargingstation_v1.osgt.2.scale.0,0,0.rot.0,0,-15e-1.trans\""
param *.cs[*].spotsWaiting 999
param *.cs[*].spotsCharging 999
param *.cs[*].chargeEffectivenessPercentage 100
param *.cs[*].nonLinearPhaseStartPercentage 85
param *.cs[*].chargeCurrent 6.0A
param *.cs[*].prioritizeFastCharge true
param *.missionControl.replacementSearchMethod 0
param *.*.timeStep 9s

scalar OsgEarthNet.uav[0] utilizationSecMission 760.62515258028
scalar OsgEarthNet.uav[0] utilizationSecMaintenance 202.91610409653
scalar OsgEarthNet.uav[0] utilizationSecCharge 3580
scalar OsgEarthNet.uav[0] utilizationSecIdle 254656.45774332
scalar OsgEarthNet.uav[0] utilizationEnergyMission 3774.0307617188
scalar OsgEarthNet.uav[0] utilizationEnergyMaintenance 962.01503753662
scalar OsgEarthNet.uav[0] utilizationEnergyCharge 4736.0444335938
scalar OsgEarthNet.uav[0] utilizationEnergyOverdrawMission 0
scalar OsgEarthNet.uav[0] utilizationEnergyOverdrawMaintenance 0
scalar OsgEarthNet.uav[0] utilizationCountMissions 1
scalar OsgEarthNet.uav[0] utilizationCountManeuversMission 12
scalar OsgEarthNet.uav[0] utilizationCountManeuversMaintenance 2
scalar OsgEarthNet.uav[0] utilizationCountChargeState 1
scalar OsgEarthNet.uav[0] utilizationCountOverdrawnAfterMission 0
scalar OsgEarthNet.uav[0] utilizationCountIdleState 2
scalar OsgEarthNet.uav[0] utilizationFail 0
scalar OsgEarthNet.uav[0] simulationTime 259200
scalar OsgEarthNet.uav[1] utilizationSecMission 8403.6712106825
scalar OsgEarthNet.uav[1] utilizationSecMaintenance 5912.2984654545
scalar OsgEarthNet.uav[1] utilizationSecCharge 53250
scalar OsgEarthNet.uav[1] utilizationSecIdle 191634.02932386
scalar OsgEarthNet.uav[1] utilizationEnergyMission 40600.806697845
scalar OsgEarthNet.uav[1] utilizationEnergyMaintenance 28009.366046905
scalar OsgEarthNet.uav[1] utilizationEnergyCharge 68749.422851562
scalar OsgEarthNet.uav[1] utilizationEnergyOverdrawMission 0
scalar OsgEarthNet.uav[1] utilizationEnergyOverdrawMaintenance 0
scalar OsgEarthNet.uav[1] utilizationCountMissions 15
scalar OsgEarthNet.uav[1] utilizationCountManeuversMission 299
scalar OsgEarthNet.uav[1] utilizationCountManeuversMaintenance 30
scalar OsgEarthNet.uav[1] utilizationCountChargeState 15
scalar OsgEarthNet.uav[1] utilizationCountOverdrawnAfterMission 0
scalar OsgEarthNet.uav[1] utilizationCountIdleState 16
scalar OsgEarthNet.uav[1] utilizationFail 0
scalar OsgEarthNet.uav[1] simulationTime 259200
scalar OsgEarthNet.uav[2] utilizationSecMission 26977.616075545
scalar OsgEarthNet.uav[2] utilizationSecMaintenance 11239.629996789
scalar OsgEarthNet.uav[2] utilizationSecCharge 138970
scalar OsgEarthNet.uav[2] utilizationSecIdle 82012.752927666
scalar OsgEarthNet.uav[2] utilizationEnergyMission 128646.70083237
scalar OsgEarthNet.uav[2] utilizationEnergyMaintenance 51604.863147736
scalar OsgEarthNet.uav[2] utilizationEnergyCharge 181246.79638672
scalar OsgEarthNet.uav[2] utilizationEnergyOverdrawMission 0
scalar OsgEarthNet.uav[2] utilizationEnergyOverdrawMaintenance 0
scalar OsgEarthNet.uav[2] utilizationCountMissions 39
scalar OsgEarthNet.uav[2] utilizationCountManeuversMission 770
scalar OsgEarthNet.uav[2] utilizationCountManeuversMaintenance 78
scalar OsgEarthNet.uav[2] utilizationCountChargeState 39
scalar OsgEarthNet.uav[2] utilizationCountOverdrawnAfterMission 0
scalar OsgEarthNet.uav[2] utilizationCountIdleState 37
scalar OsgEarthNet.uav[2] utilizationFail 0
scalar OsgEarthNet.uav[2] simulationTime 259200
scalar OsgEarthNet.uav[3] utilizationSecMission 5292.1334964914
scalar OsgEarthNet.uav[3] utilizationSecMaintenance 3318.1228871361
scalar OsgEarthNet.uav[3] utilizationSecCharge 31480
scalar OsgEarthNet.uav[3] utilizationSecIdle 219109.74261637
scalar OsgEarthNet.uav[3] utilizationEnergyMission 25051.716373444
scalar OsgEarthNet.uav[3] utilizationEnergyMaintenance 15400.88816452
scalar OsgEarthNet.uav[3] utilizationEnergyCharge 40494.440429688
scalar OsgEarthNet.uav[3] utilizationEnergyOverdrawMission 0
scalar OsgEarthNet.uav[3] utilizationEnergyOverdrawMaintenance 0
scalar OsgEarthNet.uav[3] utilizationCountMissions 9
scalar OsgEarthNet.uav[3] utilizationCountManeuversMission 182
scalar OsgEarthNet.uav[3] utilizationCountManeuversMaintenance 18
scalar OsgEarthNet.uav[3] utilizationCountChargeState 9
scalar OsgEarthNet.uav[3] utilizationCountOverdrawnAfterMission 0
scalar OsgEarthNet.uav[3] utilizationCountIdleState 10
scalar OsgEarthNet.uav[3] utilizationFail 0
scalar OsgEarthNet.uav[3] simulationTime 259200
scalar OsgEarthNet.uav[4] utilizationSecMission 15312.528846986
scalar OsgEarthNet.uav[4] utilizationSecMaintenance 7196.3578420136
scalar OsgEarthNet.uav[4] utilizationSecCharge 82760
scalar OsgEarthNet.uav[4] utilizationSecIdle 153931.112311
scalar OsgEarthNet.uav[4] utilizationEnergyMission 72326.639610291
scalar OsgEarthNet.uav[4] utilizationEnergyMaintenance 33995.49074173
scalar OsgEarthNet.uav[4] utilizationEnergyCharge 107473.421875
scalar OsgEarthNet.uav[4] utilizationEnergyOverdrawMission 0
scalar OsgEarthNet.uav[4] utilizationEnergyOverdrawMaintenance 0
scalar OsgEarthNet.uav[4] utilizationCountMissions 23
scalar OsgEarthNet.uav[4] utilizationCountManeuversMission 410
scalar OsgEarthNet.uav[4] utilizationCountManeuversMaintenance 46
scalar OsgEarthNet.uav[4] utilizationCountChargeState 23
scalar OsgEarthNet.uav[4] utilizationCountOverdrawnAfterMission 0
scalar OsgEarthNet.uav[4] utilizationCountIdleState 24
scalar OsgEarthNet.uav[4] utilizationFail 0
scalar OsgEarthNet.uav[4] simulationTime 259200
scalar OsgEarthNet.uav[5] utilizationSecMission 31455.995068721
scalar OsgEarthNet.uav[5] utilizationSecMaintenance 17496.553667248
scalar OsgEarthNet.uav[5] utilizationSecCharge 178570
scalar OsgEarthNet.uav[5] utilizationSecIdle 31677.450264031
scalar OsgEarthNet.uav[5] utilizationEnergyMission 154987.93779755
scalar OsgEarthNet.uav[5] utilizationEnergyMaintenance 81880.529684624
scalar OsgEarthNet.uav[5] utilizationEnergyCharge 234109.59667969
scalar OsgEarthNet.uav[5] utilizationEnergyOverdrawMission 0
scalar OsgEarthNet.uav[5] utilizationEnergyOverdrawMaintenance 0
scalar OsgEarthNet.uav[5] utilizationCountMissions 51
scalar OsgEarthNet.uav[5] utilizationCountManeuversMission 1074
scalar OsgEarthNet.uav[5] utilizationCountManeuversMaintenance 103
scalar OsgEarthNet.uav[5] utilizationCountChargeState 51
scalar OsgEarthNet.uav[5] utilizationCountOverdrawnAfterMission 0
scalar OsgEarthNet.uav[5] utilizationCountIdleState 39
scalar OsgEarthNet.uav[5] utilizationFail 0
scalar OsgEarthNet.uav[5] simulationTime 259200
scalar OsgEarthNet.uav[6] utilizationSecMission 6202.5006103211
scalar OsgEarthNet.uav[6] utilizationSecMaintenance 4001.8641444224
scalar OsgEarthNet.uav[6] utilizationSecCharge 38590
scalar OsgEarthNet.uav[6] utilizationSecIdle 210405.63424526
scalar OsgEarthNet.uav[6] utilizationEnergyMission 30132.711578369
scalar OsgEarthNet.uav[6] utilizationEnergyMaintenance 18927.202377319
scalar OsgEarthNet.uav[6] utilizationEnergyCharge 49741.921875
scalar OsgEarthNet.uav[6] utilizationEnergyOverdrawMission 0
scalar OsgEarthNet.uav[6] utilizationEnergyOverdrawMaintenance 0
scalar OsgEarthNet.uav[6] utilizationCountMissions 11
scalar OsgEarthNet.uav[6] utilizationCountManeuversMission 206
scalar OsgEarthNet.uav[6] utilizationCountManeuversMaintenance 22
scalar OsgEarthNet.uav[6] utilizationCountChargeState 11
scalar OsgEarthNet.uav[6] utilizationCountOverdrawnAfterMission 0
scalar OsgEarthNet.uav[6] utilizationCountIdleState 12
scalar OsgEarthNet.uav[6] utilizationFail 0
scalar OsgEarthNet.uav[6] simulationTime 259200
scalar OsgEarthNet.uav[7] utilizationSecMission 23513.233150245
scalar OsgEarthNet.uav[7] utilizationSecMaintenance 14936.651326306
scalar OsgEarthNet.uav[7] utilizationSecCharge 140890
scalar OsgEarthNet.uav[7] utilizationSecIdle 79860.114523449
scalar OsgEarthNet.uav[7] utilizationEnergyMission 112869.74557114
scalar OsgEarthNet.uav[7] utilizationEnergyMaintenance 71095.308513641
scalar OsgEarthNet.uav[7] utilizationEnergyCharge 184226.07373047
scalar OsgEarthNet.uav[7] utilizationEnergyOverdrawMission 0
scalar OsgEarthNet.uav[7] utilizationEnergyOverdrawMaintenance 0
scalar OsgEarthNet.uav[7] utilizationCountMissions 40
scalar OsgEarthNet.uav[7] utilizationCountManeuversMission 708
scalar OsgEarthNet.uav[7] utilizationCountManeuversMaintenance 80
scalar OsgEarthNet.uav[7] utilizationCountChargeState 40
scalar OsgEarthNet.uav[7] utilizationCountOverdrawnAfterMission 0
scalar OsgEarthNet.uav[7] utilizationCountIdleState 31
scalar OsgEarthNet.uav[7] utilizationFail 0
scalar OsgEarthNet.uav[7] simulationTime 259200
scalar OsgEarthNet.uav[8] utilizationSecMission 20888.640314481
scalar OsgEarthNet.uav[8] utilizationSecMaintenance 9260.7829741312
scalar OsgEarthNet.uav[8] utilizationSecCharge 108880
scalar OsgEarthNet.uav[8] utilizationSecIdle 120170.57571139
scalar OsgEarthNet.uav[8] utilizationEnergyMission 99208.099075317
scalar OsgEarthNet.uav[8] utilizationEnergyMaintenance 42591.007038116
scalar OsgEarthNet.uav[8] utilizationEnergyCharge 142668.49804688
scalar OsgEarthNet.uav[8] utilizationEnergyOverdrawMission 0
scalar OsgEarthNet.uav[8] utilizationEnergyOverdrawMaintenance 0
scalar OsgEarthNet.uav[8] utilizationCountMissions 31
scalar OsgEarthNet.uav[8] utilizationCountManeuversMission 660
scalar OsgEarthNet.uav[8] utilizationCountManeuversMaintenance 62
scalar OsgEarthNet.uav[8] utilizationCountChargeState 31
scalar OsgEarthNet.uav[8] utilizationCountOverdrawnAfterMission 0
scalar OsgEarthNet.uav[8] utilizationCountIdleState 26
scalar OsgEarthNet.uav[8] utilizationFail 0
scalar OsgEarthNet.uav[8] simulationTime 259200
scalar OsgEarthNet.uav[9] utilizationSecMission 3991.5083439111
scalar OsgEarthNet.uav[9] utilizationSecMaintenance 2687.5362706924
scalar OsgEarthNet.uav[9] utilizationSecCharge 24710
scalar OsgEarthNet.uav[9] utilizationSecIdle 227810.9543854
scalar OsgEarthNet.uav[9] utilizationEnergyMission 18743.790870667
scalar OsgEarthNet.uav[9] utilizationEnergyMaintenance 12749.732543945
scalar OsgEarthNet.uav[9] utilizationEnergyCharge 31993.755371094
scalar OsgEarthNet.uav[9] utilizationEnergyOverdrawMission 0
scalar OsgEarthNet.uav[9] utilizationEnergyOverdrawMaintenance 0
scalar OsgEarthNet.uav[9] utilizationCountMissions 7
scalar OsgEarthNet.uav[9] utilizationCountManeuversMission 143
scalar OsgEarthNet.uav[9] utilizationCountManeuversMaintenance 14
scalar OsgEarthNet.uav[9] utilizationCountChargeState 7
scalar OsgEarthNet.uav[9] utilizationCountOverdrawnAfterMission 0
scalar OsgEarthNet.uav[9] utilizationCountIdleState 8
scalar OsgEarthNet.uav[9] utilizationFail 0
scalar OsgEarthNet.uav[9] simulationTime 259200
scalar OsgEarthNet.uav[10] utilizationSecMission 15985.78518463
scalar OsgEarthNet.uav[10] utilizationSecMaintenance 9934.9881022213
scalar OsgEarthNet.uav[10] utilizationSecCharge 92927.225713149
scalar OsgEarthNet.uav[10] utilizationSecIdle 140352
scalar OsgEarthNet.uav[10] utilizationEnergyMission 76755.639560699
scalar OsgEarthNet.uav[10] utilizationEnergyMaintenance 46745.679630279
scalar OsgEarthNet.uav[10] utilizationEnergyCharge 120681.59985352
scalar OsgEarthNet.uav[10] utilizationEnergyOverdrawMission 0
scalar OsgEarthNet.uav[10] utilizationEnergyOverdrawMaintenance 0
scalar OsgEarthNet.uav[10] utilizationCountMissions 27
scalar OsgEarthNet.uav[10] utilizationCountManeuversMission 484
scalar OsgEarthNet.uav[10] utilizationCountManeuversMaintenance 53
scalar OsgEarthNet.uav[10] utilizationCountChargeState 27
scalar OsgEarthNet.uav[10] utilizationCountOverdrawnAfterMission 0
scalar OsgEarthNet.uav[10] utilizationCountIdleState 26
scalar OsgEarthNet.uav[10] utilizationFail 0
scalar OsgEarthNet.uav[10] simulationTime 259200
scalar OsgEarthNet.uav[11] utilizationSecMission 18976.924596185
scalar OsgEarthNet.uav[11] utilizationSecMaintenance 9551.0594038146
scalar OsgEarthNet.uav[11] utilizationSecCharge 104580
scalar OsgEarthNet.uav[11] utilizationSecIdle 126092.015
scalar OsgEarthNet.uav[11] utilizationEnergyMission 91978.055309296
scalar OsgEarthNet.uav[11] utilizationEnergyMaintenance 44860.722516681
scalar OsgEarthNet.uav[11] utilizationEnergyCharge 135786.82275391
scalar OsgEarthNet.uav[11] utilizationEnergyOverdrawMission 0
scalar OsgEarthNet.uav[11] utilizationEnergyOverdrawMaintenance 0
scalar OsgEarthNet.uav[11] utilizationCountMissions 29
scalar OsgEarthNet.uav[11] utilizationCountManeuversMission 516
scalar OsgEarthNet.uav[11] utilizationCountManeuversMaintenance 59
scalar OsgEarthNet.uav[11] utilizationCountChargeState 29
scalar OsgEarthNet.uav[11] utilizationCountOverdrawnAfterMission 0
scalar OsgEarthNet.uav[11] utilizationCountIdleState 28
scalar OsgEarthNet.uav[11] utilizationFail 0
scalar OsgEarthNet.uav[11] simulationTime 259200
scalar OsgEarthNet.uav[12] utilizationSecMission 23061.18882436
scalar OsgEarthNet.uav[12] utilizationSecMaintenance 12640.834307488
scalar OsgEarthNet.uav[12] utilizationSecCharge 127075.97586815
scalar OsgEarthNet.uav[12] utilizationSecIdle 96422
scalar OsgEarthNet.uav[12] utilizationEnergyMission 112173.49147415
scalar OsgEarthNet.uav[12] utilizationEnergyMaintenance 58479.847679138
scalar OsgEarthNet.uav[12] utilizationEnergyCharge 167160.2109375
scalar OsgEarthNet.uav[12] utilizationEnergyOverdrawMission 0
scalar OsgEarthNet.uav[12] utilizationEnergyOverdrawMaintenance 0
scalar OsgEarthNet.uav[12] utilizationCountMissions 37
scalar OsgEarthNet.uav[12] utilizationCountManeuversMission 787
scalar OsgEarthNet.uav[12] utilizationCountManeuversMaintenance 74
scalar OsgEarthNet.uav[12] utilizationCountChargeState 37
scalar OsgEarthNet.uav[12] utilizationCountOverdrawnAfterMission 0
scalar OsgEarthNet.uav[12] utilizationCountIdleState 31
scalar OsgEarthNet.uav[12] utilizationFail 0
scalar OsgEarthNet.uav[12] simulationTime 259200
scalar OsgEarthNet.uav[13] utilizationSecMission 8436.3458984945
scalar OsgEarthNet.uav[13] utilizationSecMaintenance 7168.822468433
scalar OsgEarthNet.uav[13] utilizationSecCharge 59410
scalar OsgEarthNet.uav[13] utilizationSecIdle 184184.83063307
scalar OsgEarthNet.uav[13] utilizationEnergyMission 42803.973854065
scalar OsgEarthNet.uav[13] utilizationEnergyMaintenance 34306.600536346
scalar OsgEarthNet.uav[13] utilizationEnergyCharge 76334.170898438
scalar OsgEarthNet.uav[13] utilizationEnergyOverdrawMission 0
scalar OsgEarthNet.uav[13] utilizationEnergyOverdrawMaintenance 0
scalar OsgEarthNet.uav[13] utilizationCountMissions 17
scalar OsgEarthNet.uav[13] utilizationCountManeuversMission 341
scalar OsgEarthNet.uav[13] utilizationCountManeuversMaintenance 34
scalar OsgEarthNet.uav[13] utilizationCountChargeState 17
scalar OsgEarthNet.uav[13] utilizationCountOverdrawnAfterMission 0
scalar OsgEarthNet.uav[13] utilizationCountIdleState 18
scalar OsgEarthNet.uav[13] utilizationFail 0
scalar OsgEarthNet.uav[13] simulationTime 259200
scalar OsgEarthNet.uav[14] utilizationSecMission 17916.777180205
scalar OsgEarthNet.uav[14] utilizationSecMaintenance 9876.9173497551
scalar OsgEarthNet.uav[14] utilizationSecCharge 104180
scalar OsgEarthNet.uav[14] utilizationSecIdle 127226.30447004
scalar OsgEarthNet.uav[14] utilizationEnergyMission 87329.383781433
scalar OsgEarthNet.uav[14] utilizationEnergyMaintenance 47281.12179184
scalar OsgEarthNet.uav[14] utilizationEnergyCharge 135227.23925781
scalar OsgEarthNet.uav[14] utilizationEnergyOverdrawMission 0
scalar OsgEarthNet.uav[14] utilizationEnergyOverdrawMaintenance 0
scalar OsgEarthNet.uav[14] utilizationCountMissions 29
scalar OsgEarthNet.uav[14] utilizationCountManeuversMission 606
scalar OsgEarthNet.uav[14] utilizationCountManeuversMaintenance 58
scalar OsgEarthNet.uav[14] utilizationCountChargeState 29
scalar OsgEarthNet.uav[14] utilizationCountOverdrawnAfterMission 0
scalar OsgEarthNet.uav[14] utilizationCountIdleState 29
scalar OsgEarthNet.uav[14] utilizationFail 0
scalar OsgEarthNet.uav[14] simulationTime 259200
scalar OsgEarthNet.uav[15] utilizationSecMission 30514.245424233
scalar OsgEarthNet.uav[15] utilizationSecMaintenance 14085.711028352
scalar OsgEarthNet.uav[15] utilizationSecCharge 160030
scalar OsgEarthNet.uav[15] utilizationSecIdle 54570.042547415
scalar OsgEarthNet.uav[15] utilizationEnergyMission 148135.06203461
scalar OsgEarthNet.uav[15] utilizationEnergyMaintenance 65134.08449421
scalar OsgEarthNet.uav[15] utilizationEnergyCharge 208388.18652344
scalar OsgEarthNet.uav[15] utilizationEnergyOverdrawMission 0
scalar OsgEarthNet.uav[15] utilizationEnergyOverdrawMaintenance 0
scalar OsgEarthNet.uav[15] utilizationCountMissions 46
scalar OsgEarthNet.uav[15] utilizationCountManeuversMission 959
scalar OsgEarthNet.uav[15] utilizationCountManeuversMaintenance 92
scalar OsgEarthNet.uav[15] utilizationCountChargeState 45
scalar OsgEarthNet.uav[15] utilizationCountOverdrawnAfterMission 0
scalar OsgEarthNet.uav[15] utilizationCountIdleState 44
scalar OsgEarthNet.uav[15] utilizationFail 0
scalar OsgEarthNet.uav[15] simulationTime 259200
scalar OsgEarthNet.uav[16] utilizationSecMission 14216.618639633
scalar OsgEarthNet.uav[16] utilizationSecMaintenance 8333.95194214
scalar OsgEarthNet.uav[16] utilizationSecCharge 83717.288596488
scalar OsgEarthNet.uav[16] utilizationSecIdle 152932.13982174
scalar OsgEarthNet.uav[16] utilizationEnergyMission 68221.80316925
scalar OsgEarthNet.uav[16] utilizationEnergyMaintenance 40167.347484589
scalar OsgEarthNet.uav[16] utilizationEnergyCharge 108991.29052734
scalar OsgEarthNet.uav[16] utilizationEnergyOverdrawMission 0
scalar OsgEarthNet.uav[16] utilizationEnergyOverdrawMaintenance 0
scalar OsgEarthNet.uav[16] utilizationCountMissions 24
scalar OsgEarthNet.uav[16] utilizationCountManeuversMission 429
scalar OsgEarthNet.uav[16] utilizationCountManeuversMaintenance 48
scalar OsgEarthNet.uav[16] utilizationCountChargeState 24
scalar OsgEarthNet.uav[16] utilizationCountOverdrawnAfterMission 0
scalar OsgEarthNet.uav[16] utilizationCountIdleState 24
scalar OsgEarthNet.uav[16] utilizationFail 0
scalar OsgEarthNet.uav[16] simulationTime 259200
scalar OsgEarthNet.uav[17] utilizationSecMission 22876.589304296
scalar OsgEarthNet.uav[17] utilizationSecMaintenance 10184.025691118
scalar OsgEarthNet.uav[17] utilizationSecCharge 121900
scalar OsgEarthNet.uav[17] utilizationSecIdle 104239.38400459
scalar OsgEarthNet.uav[17] utilizationEnergyMission 108060.0888176
scalar OsgEarthNet.uav[17] utilizationEnergyMaintenance 47718.641515388
scalar OsgEarthNet.uav[17] utilizationEnergyCharge 157363.45458984
scalar OsgEarthNet.uav[17] utilizationEnergyOverdrawMission 0
scalar OsgEarthNet.uav[17] utilizationEnergyOverdrawMaintenance 0
scalar OsgEarthNet.uav[17] utilizationCountMissions 34
scalar OsgEarthNet.uav[17] utilizationCountManeuversMission 594
scalar OsgEarthNet.uav[17] utilizationCountManeuversMaintenance 69
scalar OsgEarthNet.uav[17] utilizationCountChargeState 34
scalar OsgEarthNet.uav[17] utilizationCountOverdrawnAfterMission 0
scalar OsgEarthNet.uav[17] utilizationCountIdleState 35
scalar OsgEarthNet.uav[17] utilizationFail 0
scalar OsgEarthNet.uav[17] simulationTime 259200
scalar OsgEarthNet.uav[18] utilizationSecMission 20273.093862089
scalar OsgEarthNet.uav[18] utilizationSecMaintenance 13537.147182005
scalar OsgEarthNet.uav[18] utilizationSecCharge 124217.75595591
scalar OsgEarthNet.uav[18] utilizationSecIdle 101172.002
scalar OsgEarthNet.uav[18] utilizationEnergyMission 98978.626972198
scalar OsgEarthNet.uav[18] utilizationEnergyMaintenance 64063.513809204
scalar OsgEarthNet.uav[18] utilizationEnergyCharge 162717.98510742
scalar OsgEarthNet.uav[18] utilizationEnergyOverdrawMission 0
scalar OsgEarthNet.uav[18] utilizationEnergyOverdrawMaintenance 0
scalar OsgEarthNet.uav[18] utilizationCountMissions 36
scalar OsgEarthNet.uav[18] utilizationCountManeuversMission 776
scalar OsgEarthNet.uav[18] utilizationCountManeuversMaintenance 72
scalar OsgEarthNet.uav[18] utilizationCountChargeState 36
scalar OsgEarthNet.uav[18] utilizationCountOverdrawnAfterMission 0
scalar OsgEarthNet.uav[18] utilizationCountIdleState 31
scalar OsgEarthNet.uav[18] utilizationFail 0
scalar OsgEarthNet.uav[18] simulationTime 259200
scalar OsgEarthNet.uav[19] utilizationSecMission 13305.626373223
scalar OsgEarthNet.uav[19] utilizationSecMaintenance 8274.55192699
scalar OsgEarthNet.uav[19] utilizationSecCharge 80817.054725854
scalar OsgEarthNet.uav[19] utilizationSecIdle 156802.76597393
scalar OsgEarthNet.uav[19] utilizationEnergyMission 64937.129676819
scalar OsgEarthNet.uav[19] utilizationEnergyMaintenance 38722.519592285
scalar OsgEarthNet.uav[19] utilizationEnergyCharge 104011.83300781
scalar OsgEarthNet.uav[19] utilizationEnergyOverdrawMission 0
scalar OsgEarthNet.uav[19] utilizationEnergyOverdrawMaintenance 0
scalar OsgEarthNet.uav[19] utilizationCountMissions 23
scalar OsgEarthNet.uav[19] utilizationCountManeuversMission 431
scalar OsgEarthNet.uav[19] utilizationCountManeuversMaintenance 46
scalar OsgEarthNet.uav[19] utilizationCountChargeState 23
scalar OsgEarthNet.uav[19] utilizationCountOverdrawnAfterMission 0
scalar OsgEarthNet.uav[19] utilizationCountIdleState 23
scalar OsgEarthNet.uav[19] utilizationFail 0
scalar OsgEarthNet.uav[19] simulationTime 259200
scalar OsgEarthNet.uav[20] utilizationSecMission 14185.626373223
scalar OsgEarthNet.uav[20] utilizationSecMaintenance 9334.1387662928
scalar OsgEarthNet.uav[20] utilizationSecCharge 88470
scalar OsgEarthNet.uav[20] utilizationSecIdle 147210.23386048
scalar OsgEarthNet.uav[20] utilizationEnergyMission 70533.888160706
scalar OsgEarthNet.uav[20] utilizationEnergyMaintenance 44162.149364471
scalar OsgEarthNet.uav[20] utilizationEnergyCharge 114182.00390625
scalar OsgEarthNet.uav[20] utilizationEnergyOverdrawMission 0
scalar OsgEarthNet.uav[20] utilizationEnergyOverdrawMaintenance 0
scalar OsgEarthNet.uav[20] utilizationCountMissions 25
scalar OsgEarthNet.uav[20] utilizationCountManeuversMission 475
scalar OsgEarthNet.uav[20] utilizationCountManeuversMaintenance 50
scalar OsgEarthNet.uav[20] utilizationCountChargeState 25
scalar OsgEarthNet.uav[20] utilizationCountOverdrawnAfterMission 0
scalar OsgEarthNet.uav[20] utilizationCountIdleState 26
scalar OsgEarthNet.uav[20] utilizationFail 0
scalar OsgEarthNet.uav[20] simulationTime 259200
scalar OsgEarthNet.uav[21] utilizationSecMission 20325.780527323
scalar OsgEarthNet.uav[21] utilizationSecMaintenance 10628.06140693
scalar OsgEarthNet.uav[21] utilizationSecCharge 114430
scalar OsgEarthNet.uav[21] utilizationSecIdle 113816.15706575
scalar OsgEarthNet.uav[21] utilizationEnergyMission 98480.655761719
scalar OsgEarthNet.uav[21] utilizationEnergyMaintenance 50016.888305664
scalar OsgEarthNet.uav[21] utilizationEnergyCharge 147886.57470703
scalar OsgEarthNet.uav[21] utilizationEnergyOverdrawMission 0
scalar OsgEarthNet.uav[21] utilizationEnergyOverdrawMaintenance 0
scalar OsgEarthNet.uav[21] utilizationCountMissions 32
scalar OsgEarthNet.uav[21] utilizationCountManeuversMission 689
scalar OsgEarthNet.uav[21] utilizationCountManeuversMaintenance 64
scalar OsgEarthNet.uav[21] utilizationCountChargeState 32
scalar OsgEarthNet.uav[21] utilizationCountOverdrawnAfterMission 0
scalar OsgEarthNet.uav[21] utilizationCountIdleState 32
scalar OsgEarthNet.uav[21] utilizationFail 0
scalar OsgEarthNet.uav[21] simulationTime 259200
scalar OsgEarthNet.uav[22] utilizationSecMission 26858.9600594
scalar OsgEarthNet.uav[22] utilizationSecMaintenance 11347.513609368
scalar OsgEarthNet.uav[22] utilizationSecCharge 133630
scalar OsgEarthNet.uav[22] utilizationSecIdle 87363.525331232
scalar OsgEarthNet.uav[22] utilizationEnergyMission 130553.99291992
scalar OsgEarthNet.uav[22] utilizationEnergyMaintenance 52302.628304266
scalar OsgEarthNet.uav[22] utilizationEnergyCharge 174877.80664062
scalar OsgEarthNet.uav[22] utilizationEnergyOverdrawMission 0
scalar OsgEarthNet.uav[22] utilizationEnergyOverdrawMaintenance 0
scalar OsgEarthNet.uav[22] utilizationCountMissions 39
scalar OsgEarthNet.uav[22] utilizationCountManeuversMission 745
scalar OsgEarthNet.uav[22] utilizationCountManeuversMaintenance 78
scalar OsgEarthNet.uav[22] utilizationCountChargeState 38
scalar OsgEarthNet.uav[22] utilizationCountOverdrawnAfterMission 0
scalar OsgEarthNet.uav[22] utilizationCountIdleState 33
scalar OsgEarthNet.uav[22] utilizationFail 0
scalar OsgEarthNet.uav[22] simulationTime 259200
scalar OsgEarthNet.uav[23] utilizationSecMission 15005.626373223
scalar OsgEarthNet.uav[23] utilizationSecMaintenance 10064.278834389
scalar OsgEarthNet.uav[23] utilizationSecCharge 92566.075514066
scalar OsgEarthNet.uav[23] utilizationSecIdle 141564.01827832
scalar OsgEarthNet.uav[23] utilizationEnergyMission 73870.674606323
scalar OsgEarthNet.uav[23] utilizationEnergyMaintenance 47339.389083862
scalar OsgEarthNet.uav[23] utilizationEnergyCharge 119596.79931641
scalar OsgEarthNet.uav[23] utilizationEnergyOverdrawMission 0
scalar OsgEarthNet.uav[23] utilizationEnergyOverdrawMaintenance 0
scalar OsgEarthNet.uav[23] utilizationCountMissions 27
scalar OsgEarthNet.uav[23] utilizationCountManeuversMission 516
scalar OsgEarthNet.uav[23] utilizationCountManeuversMaintenance 54
scalar OsgEarthNet.uav[23] utilizationCountChargeState 27
scalar OsgEarthNet.uav[23] utilizationCountOverdrawnAfterMission 0
scalar OsgEarthNet.uav[23] utilizationCountIdleState 27
scalar OsgEarthNet.uav[23] utilizationFail 0
scalar OsgEarthNet.uav[23] simulationTime 259200
scalar OsgEarthNet.uav[24] utilizationSecMission 21060.70672564
scalar OsgEarthNet.uav[24] utilizationSecMaintenance 9677.9773211357
scalar OsgEarthNet.uav[24] utilizationSecCharge 114020
scalar OsgEarthNet.uav[24] utilizationSecIdle 114441.31495322
scalar OsgEarthNet.uav[24] utilizationEnergyMission 102636.59233475
scalar OsgEarthNet.uav[24] utilizationEnergyMaintenance 44556.741668701
scalar OsgEarthNet.uav[24] utilizationEnergyCharge 147202.25683594
scalar OsgEarthNet.uav[24] utilizationEnergyOverdrawMission 0
scalar OsgEarthNet.uav[24] utilizationEnergyOverdrawMaintenance 0
scalar OsgEarthNet.uav[24] utilizationCountMissions 32
scalar OsgEarthNet.uav[24] utilizationCountManeuversMission 708
scalar OsgEarthNet.uav[24] utilizationCountManeuversMaintenance 64
scalar OsgEarthNet.uav[24] utilizationCountChargeState 32
scalar OsgEarthNet.uav[24] utilizationCountOverdrawnAfterMission 0
scalar OsgEarthNet.uav[24] utilizationCountIdleState 32
scalar OsgEarthNet.uav[24] utilizationFail 0
scalar OsgEarthNet.uav[24] simulationTime 259200
scalar OsgEarthNet.uav[25] utilizationSecMission 27809.476255774
scalar OsgEarthNet.uav[25] utilizationSecMaintenance 11297.815156216
scalar OsgEarthNet.uav[25] utilizationSecCharge 142510
scalar OsgEarthNet.uav[25] utilizationSecIdle 77582.70758801
scalar OsgEarthNet.uav[25] utilizationEnergyMission 133455.94753208
scalar OsgEarthNet.uav[25] utilizationEnergyMaintenance 52556.759735107
scalar OsgEarthNet.uav[25] utilizationEnergyCharge 185333.77929688
scalar OsgEarthNet.uav[25] utilizationEnergyOverdrawMission 0
scalar OsgEarthNet.uav[25] utilizationEnergyOverdrawMaintenance 0
scalar OsgEarthNet.uav[25] utilizationCountMissions 40
scalar OsgEarthNet.uav[25] utilizationCountManeuversMission 791
scalar OsgEarthNet.uav[25] utilizationCountManeuversMaintenance 79
scalar OsgEarthNet.uav[25] utilizationCountChargeState 40
scalar OsgEarthNet.uav[25] utilizationCountOverdrawnAfterMission 0
scalar OsgEarthNet.uav[25] utilizationCountIdleState 37
scalar OsgEarthNet.uav[25] utilizationFail 0
scalar OsgEarthNet.uav[25] simulationTime 259200
scalar OsgEarthNet.uav[26] utilizationSecMission 13785.626373223
scalar OsgEarthNet.uav[26] utilizationSecMaintenance 8711.972395505
scalar OsgEarthNet.uav[26] utilizationSecCharge 83840
scalar OsgEarthNet.uav[26] utilizationSecIdle 152862.40023127
scalar OsgEarthNet.uav[26] utilizationEnergyMission 65513.78302002
scalar OsgEarthNet.uav[26] utilizationEnergyMaintenance 41247.994293213
scalar OsgEarthNet.uav[26] utilizationEnergyCharge 107361.84667969
scalar OsgEarthNet.uav[26] utilizationEnergyOverdrawMission 0
scalar OsgEarthNet.uav[26] utilizationEnergyOverdrawMaintenance 0
scalar OsgEarthNet.uav[26] utilizationCountMissions 24
scalar OsgEarthNet.uav[26] utilizationCountManeuversMission 455
scalar OsgEarthNet.uav[26] utilizationCountManeuversMaintenance 48
scalar OsgEarthNet.uav[26] utilizationCountChargeState 24
scalar OsgEarthNet.uav[26] utilizationCountOverdrawnAfterMission 0
scalar OsgEarthNet.uav[26] utilizationCountIdleState 25
scalar OsgEarthNet.uav[26] utilizationFail 0
scalar OsgEarthNet.uav[26] simulationTime 259200
scalar OsgEarthNet.uav[27] utilizationSecMission 28967.287102703
scalar OsgEarthNet.uav[27] utilizationSecMaintenance 13734.307223971
scalar OsgEarthNet.uav[27] utilizationSecCharge 157410
scalar OsgEarthNet.uav[27] utilizationSecIdle 59088.404673325
scalar OsgEarthNet.uav[27] utilizationEnergyMission 141287.76948166
scalar OsgEarthNet.uav[27] utilizationEnergyMaintenance 63690.862579346
scalar OsgEarthNet.uav[27] utilizationEnergyCharge 203366.63476562
scalar OsgEarthNet.uav[27] utilizationEnergyOverdrawMission 0
scalar OsgEarthNet.uav[27] utilizationEnergyOverdrawMaintenance 0
scalar OsgEarthNet.uav[27] utilizationCountMissions 44
scalar OsgEarthNet.uav[27] utilizationCountManeuversMission 934
scalar OsgEarthNet.uav[27] utilizationCountManeuversMaintenance 88
scalar OsgEarthNet.uav[27] utilizationCountChargeState 44
scalar OsgEarthNet.uav[27] utilizationCountOverdrawnAfterMission 0
scalar OsgEarthNet.uav[27] utilizationCountIdleState 45
scalar OsgEarthNet.uav[27] utilizationFail 0
scalar OsgEarthNet.uav[27] simulationTime 259200
scalar OsgEarthNet.uav[28] utilizationSecMission 27149.458985592
scalar OsgEarthNet.uav[28] utilizationSecMaintenance 11703.582962551
scalar OsgEarthNet.uav[28] utilizationSecCharge 142910
scalar OsgEarthNet.uav[28] utilizationSecIdle 77436.957051857
scalar OsgEarthNet.uav[28] utilizationEnergyMission 133868.07385635
scalar OsgEarthNet.uav[28] utilizationEnergyMaintenance 55495.478210449
scalar OsgEarthNet.uav[28] utilizationEnergyCharge 186680.01855469
scalar OsgEarthNet.uav[28] utilizationEnergyOverdrawMission 0
scalar OsgEarthNet.uav[28] utilizationEnergyOverdrawMaintenance 0
scalar OsgEarthNet.uav[28] utilizationCountMissions 40
scalar OsgEarthNet.uav[28] utilizationCountManeuversMission 834
scalar OsgEarthNet.uav[28] utilizationCountManeuversMaintenance 80
scalar OsgEarthNet.uav[28] utilizationCountChargeState 40
scalar OsgEarthNet.uav[28] utilizationCountOverdrawnAfterMission 0
scalar OsgEarthNet.uav[28] utilizationCountIdleState 37
scalar OsgEarthNet.uav[28] utilizationFail 0
scalar OsgEarthNet.uav[28] simulationTime 259200
scalar OsgEarthNet.uav[29] utilizationSecMission 20025.206107369
scalar OsgEarthNet.uav[29] utilizationSecMaintenance 11748.261660386
scalar OsgEarthNet.uav[29] utilizationSecCharge 117210
scalar OsgEarthNet.uav[29] utilizationSecIdle 110216.53123224
scalar OsgEarthNet.uav[29] utilizationEnergyMission 96375.543354034
scalar OsgEarthNet.uav[29] utilizationEnergyMaintenance 55590.71818161
scalar OsgEarthNet.uav[29] utilizationEnergyCharge 151654.34716797
scalar OsgEarthNet.uav[29] utilizationEnergyOverdrawMission 0
scalar OsgEarthNet.uav[29] utilizationEnergyOverdrawMaintenance 0
scalar OsgEarthNet.uav[29] utilizationCountMissions 33
scalar OsgEarthNet.uav[29] utilizationCountManeuversMission 570
scalar OsgEarthNet.uav[29] utilizationCountManeuversMaintenance 66
scalar OsgEarthNet.uav[29] utilizationCountChargeState 33
scalar OsgEarthNet.uav[29] utilizationCountOverdrawnAfterMission 0
scalar OsgEarthNet.uav[29] utilizationCountIdleState 33
scalar OsgEarthNet.uav[29] utilizationFail 0
scalar OsgEarthNet.uav[29] simulationTime 259200
scalar OsgEarthNet.uav[30] utilizationSecMission 13485.626373223
scalar OsgEarthNet.uav[30] utilizationSecMaintenance 8351.9079906244
scalar OsgEarthNet.uav[30] utilizationSecCharge 81390
scalar OsgEarthNet.uav[30] utilizationSecIdle 155972.46463615
scalar OsgEarthNet.uav[30] utilizationEnergyMission 66083.698799133
scalar OsgEarthNet.uav[30] utilizationEnergyMaintenance 39882.400836944
scalar OsgEarthNet.uav[30] utilizationEnergyCharge 104976.50634766
scalar OsgEarthNet.uav[30] utilizationEnergyOverdrawMission 0
scalar OsgEarthNet.uav[30] utilizationEnergyOverdrawMaintenance 0
scalar OsgEarthNet.uav[30] utilizationCountMissions 23
scalar OsgEarthNet.uav[30] utilizationCountManeuversMission 440
scalar OsgEarthNet.uav[30] utilizationCountManeuversMaintenance 46
scalar OsgEarthNet.uav[30] utilizationCountChargeState 23
scalar OsgEarthNet.uav[30] utilizationCountOverdrawnAfterMission 0
scalar OsgEarthNet.uav[30] utilizationCountIdleState 24
scalar OsgEarthNet.uav[30] utilizationFail 0
scalar OsgEarthNet.uav[30] simulationTime 259200
scalar OsgEarthNet.uav[31] utilizationSecMission 24292.502035707
scalar OsgEarthNet.uav[31] utilizationSecMaintenance 15674.08342707
scalar OsgEarthNet.uav[31] utilizationSecCharge 147140
scalar OsgEarthNet.uav[31] utilizationSecIdle 72093.413537223
scalar OsgEarthNet.uav[31] utilizationEnergyMission 119731.70431137
scalar OsgEarthNet.uav[31] utilizationEnergyMaintenance 73993.198722839
scalar OsgEarthNet.uav[31] utilizationEnergyCharge 192252.24853516
scalar OsgEarthNet.uav[31] utilizationEnergyOverdrawMission 0
scalar OsgEarthNet.uav[31] utilizationEnergyOverdrawMaintenance 0
scalar OsgEarthNet.uav[31] utilizationCountMissions 42
scalar OsgEarthNet.uav[31] utilizationCountManeuversMission 851
scalar OsgEarthNet.uav[31] utilizationCountManeuversMaintenance 84
scalar OsgEarthNet.uav[31] utilizationCountChargeState 42
scalar OsgEarthNet.uav[31] utilizationCountOverdrawnAfterMission 0
scalar OsgEarthNet.uav[31] utilizationCountIdleState 33
scalar OsgEarthNet.uav[31] utilizationFail 0
scalar OsgEarthNet.uav[31] simulationTime 259200
scalar OsgEarthNet.uav[32] utilizationSecMission 29945.450914501
scalar OsgEarthNet.uav[32] utilizationSecMaintenance 12429.803571941
scalar OsgEarthNet.uav[32] utilizationSecCharge 152520
scalar OsgEarthNet.uav[32] utilizationSecIdle 64304.744513558
scalar OsgEarthNet.uav[32] utilizationEnergyMission 144069.50411987
scalar OsgEarthNet.uav[32] utilizationEnergyMaintenance 56558.984928131
scalar OsgEarthNet.uav[32] utilizationEnergyCharge 199214.57861328
scalar OsgEarthNet.uav[32] utilizationEnergyOverdrawMission 0
scalar OsgEarthNet.uav[32] utilizationEnergyOverdrawMaintenance 0
scalar OsgEarthNet.uav[32] utilizationCountMissions 43
scalar OsgEarthNet.uav[32] utilizationCountManeuversMission 882
scalar OsgEarthNet.uav[32] utilizationCountManeuversMaintenance 86
scalar OsgEarthNet.uav[32] utilizationCountChargeState 43
scalar OsgEarthNet.uav[32] utilizationCountOverdrawnAfterMission 0
scalar OsgEarthNet.uav[32] utilizationCountIdleState 38
scalar OsgEarthNet.uav[32] utilizationFail 0
scalar OsgEarthNet.uav[32] simulationTime 259200
scalar OsgEarthNet.uav[33] utilizationSecMission 18117.580180834
scalar OsgEarthNet.uav[33] utilizationSecMaintenance 9382.7239204243
scalar OsgEarthNet.uav[33] utilizationSecCharge 99473.798163835
scalar OsgEarthNet.uav[33] utilizationSecIdle 132225.89673491
scalar OsgEarthNet.uav[33] utilizationEnergyMission 86644.707626343
scalar OsgEarthNet.uav[33] utilizationEnergyMaintenance 43916.3347435
scalar OsgEarthNet.uav[33] utilizationEnergyCharge 129452.42675781
scalar OsgEarthNet.uav[33] utilizationEnergyOverdrawMission 0
scalar OsgEarthNet.uav[33] utilizationEnergyOverdrawMaintenance 0
scalar OsgEarthNet.uav[33] utilizationCountMissions 28
scalar OsgEarthNet.uav[33] utilizationCountManeuversMission 459
scalar OsgEarthNet.uav[33] utilizationCountManeuversMaintenance 56
scalar OsgEarthNet.uav[33] utilizationCountChargeState 28
scalar OsgEarthNet.uav[33] utilizationCountOverdrawnAfterMission 0
scalar OsgEarthNet.uav[33] utilizationCountIdleState 28
scalar OsgEarthNet.uav[33] utilizationFail 0
scalar OsgEarthNet.uav[33] simulationTime 259200
scalar OsgEarthNet.uav[34] utilizationSecMission 28392.599663204
scalar OsgEarthNet.uav[34] utilizationSecMaintenance 12284.661181697
scalar OsgEarthNet.uav[34] utilizationSecCharge 147486.05734721
scalar OsgEarthNet.uav[34] utilizationSecIdle 71036.680807888
scalar OsgEarthNet.uav[34] utilizationEnergyMission 139811.38761139
scalar OsgEarthNet.uav[34] utilizationEnergyMaintenance 56521.326011658
scalar OsgEarthNet.uav[34] utilizationEnergyCharge 191453.91290283
scalar OsgEarthNet.uav[34] utilizationEnergyOverdrawMission 0
scalar OsgEarthNet.uav[34] utilizationEnergyOverdrawMaintenance 0
scalar OsgEarthNet.uav[34] utilizationCountMissions 42
scalar OsgEarthNet.uav[34] utilizationCountManeuversMission 937
scalar OsgEarthNet.uav[34] utilizationCountManeuversMaintenance 84
scalar OsgEarthNet.uav[34] utilizationCountChargeState 42
scalar OsgEarthNet.uav[34] utilizationCountOverdrawnAfterMission 0
scalar OsgEarthNet.uav[34] utilizationCountIdleState 41
scalar OsgEarthNet.uav[34] utilizationFail 0
scalar OsgEarthNet.uav[34] simulationTime 259200
scalar OsgEarthNet.uav[35] utilizationSecMission 28110.961544619
scalar OsgEarthNet.uav[35] utilizationSecMaintenance 13077.51321758
scalar OsgEarthNet.uav[35] utilizationSecCharge 152500
scalar OsgEarthNet.uav[35] utilizationSecIdle 65511.524237801
scalar OsgEarthNet.uav[35] utilizationEnergyMission 138604.89776611
scalar OsgEarthNet.uav[35] utilizationEnergyMaintenance 59917.914203644
scalar OsgEarthNet.uav[35] utilizationEnergyCharge 198858.75683594
scalar OsgEarthNet.uav[35] utilizationEnergyOverdrawMission 0
scalar OsgEarthNet.uav[35] utilizationEnergyOverdrawMaintenance 0
scalar OsgEarthNet.uav[35] utilizationCountMissions 43
scalar OsgEarthNet.uav[35] utilizationCountManeuversMission 943
scalar OsgEarthNet.uav[35] utilizationCountManeuversMaintenance 86
scalar OsgEarthNet.uav[35] utilizationCountChargeState 43
scalar OsgEarthNet.uav[35] utilizationCountOverdrawnAfterMission 0
scalar OsgEarthNet.uav[35] utilizationCountIdleState 38
scalar OsgEarthNet.uav[35] utilizationFail 0
scalar OsgEarthNet.uav[35] simulationTime 259200
scalar OsgEarthNet.uav[36] utilizationSecMission 22936.556294237
scalar OsgEarthNet.uav[36] utilizationSecMaintenance 13540.053754493
scalar OsgEarthNet.uav[36] utilizationSecCharge 133801.38895127
scalar OsgEarthNet.uav[36] utilizationSecIdle 88922
scalar OsgEarthNet.uav[36] utilizationEnergyMission 110779.92778778
scalar OsgEarthNet.uav[36] utilizationEnergyMaintenance 63522.015083313
scalar OsgEarthNet.uav[36] utilizationEnergyCharge 175339.21459961
scalar OsgEarthNet.uav[36] utilizationEnergyOverdrawMission 0
scalar OsgEarthNet.uav[36] utilizationEnergyOverdrawMaintenance 0
scalar OsgEarthNet.uav[36] utilizationCountMissions 38
scalar OsgEarthNet.uav[36] utilizationCountManeuversMission 735
scalar OsgEarthNet.uav[36] utilizationCountManeuversMaintenance 76
scalar OsgEarthNet.uav[36] utilizationCountChargeState 38
scalar OsgEarthNet.uav[36] utilizationCountOverdrawnAfterMission 0
scalar OsgEarthNet.uav[36] utilizationCountIdleState 35
scalar OsgEarthNet.uav[36] utilizationFail 0
scalar OsgEarthNet.uav[36] simulationTime 259200
scalar OsgEarthNet.uav[37] utilizationSecMission 27319.400130771
scalar OsgEarthNet.uav[37] utilizationSecMaintenance 18398.574291867
scalar OsgEarthNet.uav[37] utilizationSecCharge 168222.39283861
scalar OsgEarthNet.uav[37] utilizationSecIdle 45259.631738748
scalar OsgEarthNet.uav[37] utilizationEnergyMission 133571.08778
scalar OsgEarthNet.uav[37] utilizationEnergyMaintenance 86822.372142792
scalar OsgEarthNet.uav[37] utilizationEnergyCharge 219995.24755859
scalar OsgEarthNet.uav[37] utilizationEnergyOverdrawMission 0
scalar OsgEarthNet.uav[37] utilizationEnergyOverdrawMaintenance 0
scalar OsgEarthNet.uav[37] utilizationCountMissions 48
scalar OsgEarthNet.uav[37] utilizationCountManeuversMission 954
scalar OsgEarthNet.uav[37] utilizationCountManeuversMaintenance 96
scalar OsgEarthNet.uav[37] utilizationCountChargeState 48
scalar OsgEarthNet.uav[37] utilizationCountOverdrawnAfterMission 0
scalar OsgEarthNet.uav[37] utilizationCountIdleState 38
scalar OsgEarthNet.uav[37] utilizationFail 0
scalar OsgEarthNet.uav[37] simulationTime 259200
scalar OsgEarthNet.uav[38] utilizationSecMission 30124.699201423
scalar OsgEarthNet.uav[38] utilizationSecMaintenance 13900.594474197
scalar OsgEarthNet.uav[38] utilizationSecCharge 162910
scalar OsgEarthNet.uav[38] utilizationSecIdle 52264.70532438
scalar OsgEarthNet.uav[38] utilizationEnergyMission 144450.60563278
scalar OsgEarthNet.uav[38] utilizationEnergyMaintenance 65034.67691803
scalar OsgEarthNet.uav[38] utilizationEnergyCharge 211884.55712891
scalar OsgEarthNet.uav[38] utilizationEnergyOverdrawMission 0
scalar OsgEarthNet.uav[38] utilizationEnergyOverdrawMaintenance 0
scalar OsgEarthNet.uav[38] utilizationCountMissions 46
scalar OsgEarthNet.uav[38] utilizationCountManeuversMission 941
scalar OsgEarthNet.uav[38] utilizationCountManeuversMaintenance 92
scalar OsgEarthNet.uav[38] utilizationCountChargeState 46
scalar OsgEarthNet.uav[38] utilizationCountOverdrawnAfterMission 0
scalar OsgEarthNet.uav[38] utilizationCountIdleState 42
scalar OsgEarthNet.uav[38] utilizationFail 0
scalar OsgEarthNet.uav[38] simulationTime 259200
scalar OsgEarthNet.uav[39] utilizationSecMission 20678.783778156
scalar OsgEarthNet.uav[39] utilizationSecMaintenance 12658.860497188
scalar OsgEarthNet.uav[39] utilizationSecCharge 121480.33172466
scalar OsgEarthNet.uav[39] utilizationSecIdle 104382.023
scalar OsgEarthNet.uav[39] utilizationEnergyMission 100274.9918251
scalar OsgEarthNet.uav[39] utilizationEnergyMaintenance 59822.472904205
scalar OsgEarthNet.uav[39] utilizationEnergyCharge 157253.29638672
scalar OsgEarthNet.uav[39] utilizationEnergyOverdrawMission 0
scalar OsgEarthNet.uav[39] utilizationEnergyOverdrawMaintenance 0
scalar OsgEarthNet.uav[39] utilizationCountMissions 35
scalar OsgEarthNet.uav[39] utilizationCountManeuversMission 697
scalar OsgEarthNet.uav[39] utilizationCountManeuversMaintenance 70
scalar OsgEarthNet.uav[39] utilizationCountChargeState 35
scalar OsgEarthNet.uav[39] utilizationCountOverdrawnAfterMission 0
scalar OsgEarthNet.uav[39] utilizationCountIdleState 33
scalar OsgEarthNet.uav[39] utilizationFail 0
scalar OsgEarthNet.uav[39] simulationTime 259200
scalar OsgEarthNet.uav[40] utilizationSecMission 17063.652583113
scalar OsgEarthNet.uav[40] utilizationSecMaintenance 9787.2538871184
scalar OsgEarthNet.uav[40] utilizationSecCharge 98157.081529768
scalar OsgEarthNet.uav[40] utilizationSecIdle 134192.011
scalar OsgEarthNet.uav[40] utilizationEnergyMission 81674.07617569
scalar OsgEarthNet.uav[40] utilizationEnergyMaintenance 46522.229385376
scalar OsgEarthNet.uav[40] utilizationEnergyCharge 127305.34130859
scalar OsgEarthNet.uav[40] utilizationEnergyOverdrawMission 0
scalar OsgEarthNet.uav[40] utilizationEnergyOverdrawMaintenance 0
scalar OsgEarthNet.uav[40] utilizationCountMissions 28
scalar OsgEarthNet.uav[40] utilizationCountManeuversMission 463
scalar OsgEarthNet.uav[40] utilizationCountManeuversMaintenance 56
scalar OsgEarthNet.uav[40] utilizationCountChargeState 28
scalar OsgEarthNet.uav[40] utilizationCountOverdrawnAfterMission 0
scalar OsgEarthNet.uav[40] utilizationCountIdleState 28
scalar OsgEarthNet.uav[40] utilizationFail 0
scalar OsgEarthNet.uav[40] simulationTime 259200
scalar OsgEarthNet.uav[41] utilizationSecMission 18649.329526367
scalar OsgEarthNet.uav[41] utilizationSecMaintenance 12424.448859639
scalar OsgEarthNet.uav[41] utilizationSecCharge 116235.5513542
scalar OsgEarthNet.uav[41] utilizationSecIdle 111890.6692598
scalar OsgEarthNet.uav[41] utilizationEnergyMission 91139.53093338
scalar OsgEarthNet.uav[41] utilizationEnergyMaintenance 58905.940666199
scalar OsgEarthNet.uav[41] utilizationEnergyCharge 150225.28564453
scalar OsgEarthNet.uav[41] utilizationEnergyOverdrawMission 0
scalar OsgEarthNet.uav[41] utilizationEnergyOverdrawMaintenance 0
scalar OsgEarthNet.uav[41] utilizationCountMissions 33
scalar OsgEarthNet.uav[41] utilizationCountManeuversMission 607
scalar OsgEarthNet.uav[41] utilizationCountManeuversMaintenance 66
scalar OsgEarthNet.uav[41] utilizationCountChargeState 33
scalar OsgEarthNet.uav[41] utilizationCountOverdrawnAfterMission 0
scalar OsgEarthNet.uav[41] utilizationCountIdleState 33
scalar OsgEarthNet.uav[41] utilizationFail 0
scalar OsgEarthNet.uav[41] simulationTime 259200
scalar OsgEarthNet.uav[42] utilizationSecMission 30282.714688254
scalar OsgEarthNet.uav[42] utilizationSecMaintenance 12895.284311746
scalar OsgEarthNet.uav[42] utilizationSecCharge 154760
scalar OsgEarthNet.uav[42] utilizationSecIdle 61262
scalar OsgEarthNet.uav[42] utilizationEnergyMission 143437.9680614
scalar OsgEarthNet.uav[42] utilizationEnergyMaintenance 59680.234420776
scalar OsgEarthNet.uav[42] utilizationEnergyCharge 201440.41796875
scalar OsgEarthNet.uav[42] utilizationEnergyOverdrawMission 0
scalar OsgEarthNet.uav[42] utilizationEnergyOverdrawMaintenance 0
scalar OsgEarthNet.uav[42] utilizationCountMissions 44
scalar OsgEarthNet.uav[42] utilizationCountManeuversMission 856
scalar OsgEarthNet.uav[42] utilizationCountManeuversMaintenance 88
scalar OsgEarthNet.uav[42] utilizationCountChargeState 44
scalar OsgEarthNet.uav[42] utilizationCountOverdrawnAfterMission 0
scalar OsgEarthNet.uav[42] utilizationCountIdleState 37
scalar OsgEarthNet.uav[42] utilizationFail 0
scalar OsgEarthNet.uav[42] simulationTime 259200
scalar OsgEarthNet.uav[43] utilizationSecMission 16705.154629366
scalar OsgEarthNet.uav[43] utilizationSecMaintenance 9632.8273706336
scalar OsgEarthNet.uav[43] utilizationSecCharge 98480
scalar OsgEarthNet.uav[43] utilizationSecIdle 134382.017
scalar OsgEarthNet.uav[43] utilizationEnergyMission 80630.774119835
scalar OsgEarthNet.uav[43] utilizationEnergyMaintenance 46010.590194702
scalar OsgEarthNet.uav[43] utilizationEnergyCharge 126761.76806641
scalar OsgEarthNet.uav[43] utilizationEnergyOverdrawMission 0
scalar OsgEarthNet.uav[43] utilizationEnergyOverdrawMaintenance 0
scalar OsgEarthNet.uav[43] utilizationCountMissions 28
scalar OsgEarthNet.uav[43] utilizationCountManeuversMission 520
scalar OsgEarthNet.uav[43] utilizationCountManeuversMaintenance 57
scalar OsgEarthNet.uav[43] utilizationCountChargeState 28
scalar OsgEarthNet.uav[43] utilizationCountOverdrawnAfterMission 0
scalar OsgEarthNet.uav[43] utilizationCountIdleState 29
scalar OsgEarthNet.uav[43] utilizationFail 0
scalar OsgEarthNet.uav[43] simulationTime 259200
scalar OsgEarthNet.uav[44] utilizationSecMission 26888.112689663
scalar OsgEarthNet.uav[44] utilizationSecMaintenance 17991.791848657
scalar OsgEarthNet.uav[44] utilizationSecCharge 164230
scalar OsgEarthNet.uav[44] utilizationSecIdle 50090.094461681
scalar OsgEarthNet.uav[44] utilizationEnergyMission 129621.36917114
scalar OsgEarthNet.uav[44] utilizationEnergyMaintenance 85506.958820343
scalar OsgEarthNet.uav[44] utilizationEnergyCharge 213909.28027344
scalar OsgEarthNet.uav[44] utilizationEnergyOverdrawMission 0
scalar OsgEarthNet.uav[44] utilizationEnergyOverdrawMaintenance 0
scalar OsgEarthNet.uav[44] utilizationCountMissions 47
scalar OsgEarthNet.uav[44] utilizationCountManeuversMission 861
scalar OsgEarthNet.uav[44] utilizationCountManeuversMaintenance 94
scalar OsgEarthNet.uav[44] utilizationCountChargeState 47
scalar OsgEarthNet.uav[44] utilizationCountOverdrawnAfterMission 0
scalar OsgEarthNet.uav[44] utilizationCountIdleState 37
scalar OsgEarthNet.uav[44] utilizationFail 0
scalar OsgEarthNet.uav[44] simulationTime 259200
scalar OsgEarthNet.uav[45] utilizationSecMission 29586.616688177
scalar OsgEarthNet.uav[45] utilizationSecMaintenance 13433.750684628
scalar OsgEarthNet.uav[45] utilizationSecCharge 153997.6266272
scalar OsgEarthNet.uav[45] utilizationSecIdle 62182.005
scalar OsgEarthNet.uav[45] utilizationEnergyMission 142484.70843124
scalar OsgEarthNet.uav[45] utilizationEnergyMaintenance 62412.634216309
scalar OsgEarthNet.uav[45] utilizationEnergyCharge 200830.64697266
scalar OsgEarthNet.uav[45] utilizationEnergyOverdrawMission 0
scalar OsgEarthNet.uav[45] utilizationEnergyOverdrawMaintenance 0
scalar OsgEarthNet.uav[45] utilizationCountMissions 44
scalar OsgEarthNet.uav[45] utilizationCountManeuversMission 844
scalar OsgEarthNet.uav[45] utilizationCountManeuversMaintenance 88
scalar OsgEarthNet.uav[45] utilizationCountChargeState 44
scalar OsgEarthNet.uav[45] utilizationCountOverdrawnAfterMission 0
scalar OsgEarthNet.uav[45] utilizationCountIdleState 39
scalar OsgEarthNet.uav[45] utilizationFail 0
scalar OsgEarthNet.uav[45] simulationTime 259200
scalar OsgEarthNet.uav[46] utilizationSecMission 17978.834631563
scalar OsgEarthNet.uav[46] utilizationSecMaintenance 10849.146368437
scalar OsgEarthNet.uav[46] utilizationSecCharge 105870
scalar OsgEarthNet.uav[46] utilizationSecIdle 124502.018
scalar OsgEarthNet.uav[46] utilizationEnergyMission 85968.675350276
scalar OsgEarthNet.uav[46] utilizationEnergyMaintenance 52036.619636535
scalar OsgEarthNet.uav[46] utilizationEnergyCharge 136351.77685547
scalar OsgEarthNet.uav[46] utilizationEnergyOverdrawMission 0
scalar OsgEarthNet.uav[46] utilizationEnergyOverdrawMaintenance 0
scalar OsgEarthNet.uav[46] utilizationCountMissions 30
scalar OsgEarthNet.uav[46] utilizationCountManeuversMission 549
scalar OsgEarthNet.uav[46] utilizationCountManeuversMaintenance 61
scalar OsgEarthNet.uav[46] utilizationCountChargeState 30
scalar OsgEarthNet.uav[46] utilizationCountOverdrawnAfterMission 0
scalar OsgEarthNet.uav[46] utilizationCountIdleState 31
scalar OsgEarthNet.uav[46] utilizationFail 0
scalar OsgEarthNet.uav[46] simulationTime 259200
scalar OsgEarthNet.uav[47] utilizationSecMission 27419.545870249
scalar OsgEarthNet.uav[47] utilizationSecMaintenance 12788.451129751
scalar OsgEarthNet.uav[47] utilizationSecCharge 145910
scalar OsgEarthNet.uav[47] utilizationSecIdle 73082.002
scalar OsgEarthNet.uav[47] utilizationEnergyMission 132535.85219752
scalar OsgEarthNet.uav[47] utilizationEnergyMaintenance 58995.766735077
scalar OsgEarthNet.uav[47] utilizationEnergyCharge 187916.15966797
scalar OsgEarthNet.uav[47] utilizationEnergyOverdrawMission 0
scalar OsgEarthNet.uav[47] utilizationEnergyOverdrawMaintenance 0
scalar OsgEarthNet.uav[47] utilizationCountMissions 41
scalar OsgEarthNet.uav[47] utilizationCountManeuversMission 920
scalar OsgEarthNet.uav[47] utilizationCountManeuversMaintenance 83
scalar OsgEarthNet.uav[47] utilizationCountChargeState 41
scalar OsgEarthNet.uav[47] utilizationCountOverdrawnAfterMission 0
scalar OsgEarthNet.uav[47] utilizationCountIdleState 42
scalar OsgEarthNet.uav[47] utilizationFail 0
scalar OsgEarthNet.uav[47] simulationTime 259200
scalar OsgEarthNet.uav[48] utilizationSecMission 30423.104026046
scalar OsgEarthNet.uav[48] utilizationSecMaintenance 13415.303207175
scalar OsgEarthNet.uav[48] utilizationSecCharge 160070
scalar OsgEarthNet.uav[48] utilizationSecIdle 55291.591766779
scalar OsgEarthNet.uav[48] utilizationEnergyMission 147216.66950226
scalar OsgEarthNet.uav[48] utilizationEnergyMaintenance 61849.62569809
scalar OsgEarthNet.uav[48] utilizationEnergyCharge 208108.55175781
scalar OsgEarthNet.uav[48] utilizationEnergyOverdrawMission 0
scalar OsgEarthNet.uav[48] utilizationEnergyOverdrawMaintenance 0
scalar OsgEarthNet.uav[48] utilizationCountMissions 45
scalar OsgEarthNet.uav[48] utilizationCountManeuversMission 955
scalar OsgEarthNet.uav[48] utilizationCountManeuversMaintenance 90
scalar OsgEarthNet.uav[48] utilizationCountChargeState 45
scalar OsgEarthNet.uav[48] utilizationCountOverdrawnAfterMission 0
scalar OsgEarthNet.uav[48] utilizationCountIdleState 43
scalar OsgEarthNet.uav[48] utilizationFail 0
scalar OsgEarthNet.uav[48] simulationTime 259200
scalar OsgEarthNet.uav[49] utilizationSecMission 17197.134717134
scalar OsgEarthNet.uav[49] utilizationSecMaintenance 11117.061627118
scalar OsgEarthNet.uav[49] utilizationSecCharge 105613.78165575
scalar OsgEarthNet.uav[49] utilizationSecIdle 125272.021
scalar OsgEarthNet.uav[49] utilizationEnergyMission 83213.269882202
scalar OsgEarthNet.uav[49] utilizationEnergyMaintenance 52978.21811676
scalar OsgEarthNet.uav[49] utilizationEnergyCharge 136962.6484375
scalar OsgEarthNet.uav[49] utilizationEnergyOverdrawMission 0
scalar OsgEarthNet.uav[49] utilizationEnergyOverdrawMaintenance 0
scalar OsgEarthNet.uav[49] utilizationCountMissions 30
scalar OsgEarthNet.uav[49] utilizationCountManeuversMission 569
scalar OsgEarthNet.uav[49] utilizationCountManeuversMaintenance 60
scalar OsgEarthNet.uav[49] utilizationCountChargeState 30
scalar OsgEarthNet.uav[49] utilizationCountOverdrawnAfterMission 0
scalar OsgEarthNet.uav[49] utilizationCountIdleState 30
scalar OsgEarthNet.uav[49] utilizationFail 0
scalar OsgEarthNet.uav[49] simulationTime 259200
scalar OsgEarthNet.uav[50] utilizationSecMission 15938.670827724
scalar OsgEarthNet.uav[50] utilizationSecMaintenance 11439.409837955
scalar OsgEarthNet.uav[50] utilizationSecCharge 100139.90433432
scalar OsgEarthNet.uav[50] utilizationSecIdle 131682.014
scalar OsgEarthNet.uav[50] utilizationEnergyMission 77535.371932983
scalar OsgEarthNet.uav[50] utilizationEnergyMaintenance 54933.573421478
scalar OsgEarthNet.uav[50] utilizationEnergyCharge 130131.77685547
scalar OsgEarthNet.uav[50] utilizationEnergyOverdrawMission 0
scalar OsgEarthNet.uav[50] utilizationEnergyOverdrawMaintenance 0
scalar OsgEarthNet.uav[50] utilizationCountMissions 29
scalar OsgEarthNet.uav[50] utilizationCountManeuversMission 575
scalar OsgEarthNet.uav[50] utilizationCountManeuversMaintenance 58
scalar OsgEarthNet.uav[50] utilizationCountChargeState 29
scalar OsgEarthNet.uav[50] utilizationCountOverdrawnAfterMission 0
scalar OsgEarthNet.uav[50] utilizationCountIdleState 28
scalar OsgEarthNet.uav[50] utilizationFail 0
scalar OsgEarthNet.uav[50] simulationTime 259200
scalar OsgEarthNet.uav[51] utilizationSecMission 25816.910349837
scalar OsgEarthNet.uav[51] utilizationSecMaintenance 12941.001448879
scalar OsgEarthNet.uav[51] utilizationSecCharge 142700
scalar OsgEarthNet.uav[51] utilizationSecIdle 77742.087201284
scalar OsgEarthNet.uav[51] utilizationEnergyMission 125750.99780263
scalar OsgEarthNet.uav[51] utilizationEnergyMaintenance 61681.180786133
scalar OsgEarthNet.uav[51] utilizationEnergyCharge 185554.30859375
scalar OsgEarthNet.uav[51] utilizationEnergyOverdrawMission 0
scalar OsgEarthNet.uav[51] utilizationEnergyOverdrawMaintenance 0
scalar OsgEarthNet.uav[51] utilizationCountMissions 40
scalar OsgEarthNet.uav[51] utilizationCountManeuversMission 796
scalar OsgEarthNet.uav[51] utilizationCountManeuversMaintenance 81
scalar OsgEarthNet.uav[51] utilizationCountChargeState 40
scalar OsgEarthNet.uav[51] utilizationCountOverdrawnAfterMission 0
scalar OsgEarthNet.uav[51] utilizationCountIdleState 37
scalar OsgEarthNet.uav[51] utilizationFail 0
scalar OsgEarthNet.uav[51] simulationTime 259200
scalar OsgEarthNet.uav[52] utilizationSecMission 30268.059079187
scalar OsgEarthNet.uav[52] utilizationSecMaintenance 12303.550333126
scalar OsgEarthNet.uav[52] utilizationSecCharge 152078.9642404
scalar OsgEarthNet.uav[52] utilizationSecIdle 64549.42534729
scalar OsgEarthNet.uav[52] utilizationEnergyMission 142556.92612839
scalar OsgEarthNet.uav[52] utilizationEnergyMaintenance 56238.030902863
scalar OsgEarthNet.uav[52] utilizationEnergyCharge 198832.64404297
scalar OsgEarthNet.uav[52] utilizationEnergyOverdrawMission 0
scalar OsgEarthNet.uav[52] utilizationEnergyOverdrawMaintenance 21.341793060303
scalar OsgEarthNet.uav[52] utilizationCountMissions 43
scalar OsgEarthNet.uav[52] utilizationCountManeuversMission 703
scalar OsgEarthNet.uav[52] utilizationCountManeuversMaintenance 86
scalar OsgEarthNet.uav[52] utilizationCountChargeState 43
scalar OsgEarthNet.uav[52] utilizationCountOverdrawnAfterMission 1
scalar OsgEarthNet.uav[52] utilizationCountIdleState 38
scalar OsgEarthNet.uav[52] utilizationFail 0
scalar OsgEarthNet.uav[52] simulationTime 259200
scalar OsgEarthNet.uav[53] utilizationSecMission 18277.243792213
scalar OsgEarthNet.uav[53] utilizationSecMaintenance 11659.160240224
scalar OsgEarthNet.uav[53] utilizationSecCharge 110267.07208046
scalar OsgEarthNet.uav[53] utilizationSecIdle 118996.5228871
scalar OsgEarthNet.uav[53] utilizationEnergyMission 88493.43145752
scalar OsgEarthNet.uav[53] utilizationEnergyMaintenance 55890.19587326
scalar OsgEarthNet.uav[53] utilizationEnergyCharge 142274.58789062
scalar OsgEarthNet.uav[53] utilizationEnergyOverdrawMission 0
scalar OsgEarthNet.uav[53] utilizationEnergyOverdrawMaintenance 0
scalar OsgEarthNet.uav[53] utilizationCountMissions 32
scalar OsgEarthNet.uav[53] utilizationCountManeuversMission 606
scalar OsgEarthNet.uav[53] utilizationCountManeuversMaintenance 64
scalar OsgEarthNet.uav[53] utilizationCountChargeState 32
scalar OsgEarthNet.uav[53] utilizationCountOverdrawnAfterMission 0
scalar OsgEarthNet.uav[53] utilizationCountIdleState 32
scalar OsgEarthNet.uav[53] utilizationFail 0
scalar OsgEarthNet.uav[53] simulationTime 259200
scalar OsgEarthNet.uav[54] utilizationSecMission 30254.775265104
scalar OsgEarthNet.uav[54] utilizationSecMaintenance 12836.06588372
scalar OsgEarthNet.uav[54] utilizationSecCharge 153930.80524391
scalar OsgEarthNet.uav[54] utilizationSecIdle 62178.352607263
scalar OsgEarthNet.uav[54] utilizationEnergyMission 145237.8176384
scalar OsgEarthNet.uav[54] utilizationEnergyMaintenance 59586.025951386
scalar OsgEarthNet.uav[54] utilizationEnergyCharge 198710.25646973
scalar OsgEarthNet.uav[54] utilizationEnergyOverdrawMission 0
scalar OsgEarthNet.uav[54] utilizationEnergyOverdrawMaintenance 0
scalar OsgEarthNet.uav[54] utilizationCountMissions 44
scalar OsgEarthNet.uav[54] utilizationCountManeuversMission 798
scalar OsgEarthNet.uav[54] utilizationCountManeuversMaintenance 88
scalar OsgEarthNet.uav[54] utilizationCountChargeState 44
scalar OsgEarthNet.uav[54] utilizationCountOverdrawnAfterMission 0
scalar OsgEarthNet.uav[54] utilizationCountIdleState 44
scalar OsgEarthNet.uav[54] utilizationFail 0
scalar OsgEarthNet.uav[54] simulationTime 259200
scalar OsgEarthNet.uav[55] utilizationSecMission 30696.514622899
scalar OsgEarthNet.uav[55] utilizationSecMaintenance 14062.766429657
scalar OsgEarthNet.uav[55] utilizationSecCharge 164040
scalar OsgEarthNet.uav[55] utilizationSecIdle 50400.717947444
scalar OsgEarthNet.uav[55] utilizationEnergyMission 147929.56933594
scalar OsgEarthNet.uav[55] utilizationEnergyMaintenance 64660.233783722
scalar OsgEarthNet.uav[55] utilizationEnergyCharge 214129.73242188
scalar OsgEarthNet.uav[55] utilizationEnergyOverdrawMission 0
scalar OsgEarthNet.uav[55] utilizationEnergyOverdrawMaintenance 0
scalar OsgEarthNet.uav[55] utilizationCountMissions 46
scalar OsgEarthNet.uav[55] utilizationCountManeuversMission 890
scalar OsgEarthNet.uav[55] utilizationCountManeuversMaintenance 92
scalar OsgEarthNet.uav[55] utilizationCountChargeState 46
scalar OsgEarthNet.uav[55] utilizationCountOverdrawnAfterMission 0
scalar OsgEarthNet.uav[55] utilizationCountIdleState 43
scalar OsgEarthNet.uav[55] utilizationFail 0
scalar OsgEarthNet.uav[55] simulationTime 259200
scalar OsgEarthNet.uav[56] utilizationSecMission 16656.618639633
scalar OsgEarthNet.uav[56] utilizationSecMaintenance 10483.711933877
scalar OsgEarthNet.uav[56] utilizationSecCharge 102280
scalar OsgEarthNet.uav[56] utilizationSecIdle 129779.66842649
scalar OsgEarthNet.uav[56] utilizationEnergyMission 79865.200733185
scalar OsgEarthNet.uav[56] utilizationEnergyMaintenance 49873.015632629
scalar OsgEarthNet.uav[56] utilizationEnergyCharge 131882.24658203
scalar OsgEarthNet.uav[56] utilizationEnergyOverdrawMission 0
scalar OsgEarthNet.uav[56] utilizationEnergyOverdrawMaintenance 0
scalar OsgEarthNet.uav[56] utilizationCountMissions 29
scalar OsgEarthNet.uav[56] utilizationCountManeuversMission 551
scalar OsgEarthNet.uav[56] utilizationCountManeuversMaintenance 58
scalar OsgEarthNet.uav[56] utilizationCountChargeState 29
scalar OsgEarthNet.uav[56] utilizationCountOverdrawnAfterMission 0
scalar OsgEarthNet.uav[56] utilizationCountIdleState 30
scalar OsgEarthNet.uav[56] utilizationFail 0
scalar OsgEarthNet.uav[56] simulationTime 259200
scalar OsgEarthNet.uav[57] utilizationSecMission 26641.543490147
scalar OsgEarthNet.uav[57] utilizationSecMaintenance 14233.327565236
scalar OsgEarthNet.uav[57] utilizationSecCharge 150560
scalar OsgEarthNet.uav[57] utilizationSecIdle 67765.127944617
scalar OsgEarthNet.uav[57] utilizationEnergyMission 129144.27861786
scalar OsgEarthNet.uav[57] utilizationEnergyMaintenance 67139.467380524
scalar OsgEarthNet.uav[57] utilizationEnergyCharge 194491.07324219
scalar OsgEarthNet.uav[57] utilizationEnergyOverdrawMission 0
scalar OsgEarthNet.uav[57] utilizationEnergyOverdrawMaintenance 0
scalar OsgEarthNet.uav[57] utilizationCountMissions 42
scalar OsgEarthNet.uav[57] utilizationCountManeuversMission 799
scalar OsgEarthNet.uav[57] utilizationCountManeuversMaintenance 84
scalar OsgEarthNet.uav[57] utilizationCountChargeState 42
scalar OsgEarthNet.uav[57] utilizationCountOverdrawnAfterMission 0
scalar OsgEarthNet.uav[57] utilizationCountIdleState 42
scalar OsgEarthNet.uav[57] utilizationFail 0
scalar OsgEarthNet.uav[57] simulationTime 259200
scalar OsgEarthNet.uav[58] utilizationSecMission 31591.588709079
scalar OsgEarthNet.uav[58] utilizationSecMaintenance 14953.727433152
scalar OsgEarthNet.uav[58] utilizationSecCharge 168963.22989905
scalar OsgEarthNet.uav[58] utilizationSecIdle 43691.452958717
scalar OsgEarthNet.uav[58] utilizationEnergyMission 152078.31054688
scalar OsgEarthNet.uav[58] utilizationEnergyMaintenance 69859.619213104
scalar OsgEarthNet.uav[58] utilizationEnergyCharge 221635.05859375
scalar OsgEarthNet.uav[58] utilizationEnergyOverdrawMission 0
scalar OsgEarthNet.uav[58] utilizationEnergyOverdrawMaintenance 0
scalar OsgEarthNet.uav[58] utilizationCountMissions 48
scalar OsgEarthNet.uav[58] utilizationCountManeuversMission 928
scalar OsgEarthNet.uav[58] utilizationCountManeuversMaintenance 96
scalar OsgEarthNet.uav[58] utilizationCountChargeState 48
scalar OsgEarthNet.uav[58] utilizationCountOverdrawnAfterMission 0
scalar OsgEarthNet.uav[58] utilizationCountIdleState 40
scalar OsgEarthNet.uav[58] utilizationFail 0
scalar OsgEarthNet.uav[58] simulationTime 259200
scalar OsgEarthNet.uav[59] utilizationSecMission 22192.467063132
scalar OsgEarthNet.uav[59] utilizationSecMaintenance 14604.623339117
scalar OsgEarthNet.uav[59] utilizationSecCharge 136610.88959775
scalar OsgEarthNet.uav[59] utilizationSecIdle 85792.019
scalar OsgEarthNet.uav[59] utilizationEnergyMission 107814.94787598
scalar OsgEarthNet.uav[59] utilizationEnergyMaintenance 69920.96855545
scalar OsgEarthNet.uav[59] utilizationEnergyCharge 177874.02148438
scalar OsgEarthNet.uav[59] utilizationEnergyOverdrawMission 0
scalar OsgEarthNet.uav[59] utilizationEnergyOverdrawMaintenance 0
scalar OsgEarthNet.uav[59] utilizationCountMissions 39
scalar OsgEarthNet.uav[59] utilizationCountManeuversMission 768
scalar OsgEarthNet.uav[59] utilizationCountManeuversMaintenance 78
scalar OsgEarthNet.uav[59] utilizationCountChargeState 39
scalar OsgEarthNet.uav[59] utilizationCountOverdrawnAfterMission 0
scalar OsgEarthNet.uav[59] utilizationCountIdleState 32
scalar OsgEarthNet.uav[59] utilizationFail 0
scalar OsgEarthNet.uav[59] simulationTime 259200
scalar OsgEarthNet.uav[60] utilizationSecMission 18433.626903334
scalar OsgEarthNet.uav[60] utilizationSecMaintenance 10442.236797467
scalar OsgEarthNet.uav[60] utilizationSecCharge 106122.1192992
scalar OsgEarthNet.uav[60] utilizationSecIdle 124202.016
scalar OsgEarthNet.uav[60] utilizationEnergyMission 89601.814743042
scalar OsgEarthNet.uav[60] utilizationEnergyMaintenance 49286.19934082
scalar OsgEarthNet.uav[60] utilizationEnergyCharge 136841.6138916
scalar OsgEarthNet.uav[60] utilizationEnergyOverdrawMission 0
scalar OsgEarthNet.uav[60] utilizationEnergyOverdrawMaintenance 0
scalar OsgEarthNet.uav[60] utilizationCountMissions 31
scalar OsgEarthNet.uav[60] utilizationCountManeuversMission 533
scalar OsgEarthNet.uav[60] utilizationCountManeuversMaintenance 62
scalar OsgEarthNet.uav[60] utilizationCountChargeState 31
scalar OsgEarthNet.uav[60] utilizationCountOverdrawnAfterMission 0
scalar OsgEarthNet.uav[60] utilizationCountIdleState 31
scalar OsgEarthNet.uav[60] utilizationFail 0
scalar OsgEarthNet.uav[60] simulationTime 259200
scalar OsgEarthNet.uav[61] utilizationSecMission 30785.720348789
scalar OsgEarthNet.uav[61] utilizationSecMaintenance 13606.468743634
scalar OsgEarthNet.uav[61] utilizationSecCharge 160325.80990758
scalar OsgEarthNet.uav[61] utilizationSecIdle 54482
scalar OsgEarthNet.uav[61] utilizationEnergyMission 146741.38762283
scalar OsgEarthNet.uav[61] utilizationEnergyMaintenance 63893.706661224
scalar OsgEarthNet.uav[61] utilizationEnergyCharge 208187.16943359
scalar OsgEarthNet.uav[61] utilizationEnergyOverdrawMission 0
scalar OsgEarthNet.uav[61] utilizationEnergyOverdrawMaintenance 0
scalar OsgEarthNet.uav[61] utilizationCountMissions 45
scalar OsgEarthNet.uav[61] utilizationCountManeuversMission 796
scalar OsgEarthNet.uav[61] utilizationCountManeuversMaintenance 89
scalar OsgEarthNet.uav[61] utilizationCountChargeState 45
scalar OsgEarthNet.uav[61] utilizationCountOverdrawnAfterMission 0
scalar OsgEarthNet.uav[61] utilizationCountIdleState 45
scalar OsgEarthNet.uav[61] utilizationFail 0
scalar OsgEarthNet.uav[61] simulationTime 259200
scalar OsgEarthNet.uav[62] utilizationSecMission 29292.865326118
scalar OsgEarthNet.uav[62] utilizationSecMaintenance 14015.126673882
scalar OsgEarthNet.uav[62] utilizationSecCharge 159810
scalar OsgEarthNet.uav[62] utilizationSecIdle 56082.007
scalar OsgEarthNet.uav[62] utilizationEnergyMission 144228.11743134
scalar OsgEarthNet.uav[62] utilizationEnergyMaintenance 65929.815376282
scalar OsgEarthNet.uav[62] utilizationEnergyCharge 207118.98144531
scalar OsgEarthNet.uav[62] utilizationEnergyOverdrawMission 0
scalar OsgEarthNet.uav[62] utilizationEnergyOverdrawMaintenance 0
scalar OsgEarthNet.uav[62] utilizationCountMissions 45
scalar OsgEarthNet.uav[62] utilizationCountManeuversMission 985
scalar OsgEarthNet.uav[62] utilizationCountManeuversMaintenance 91
scalar OsgEarthNet.uav[62] utilizationCountChargeState 45
scalar OsgEarthNet.uav[62] utilizationCountOverdrawnAfterMission 0
scalar OsgEarthNet.uav[62] utilizationCountIdleState 42
scalar OsgEarthNet.uav[62] utilizationFail 0
scalar OsgEarthNet.uav[62] simulationTime 259200
scalar OsgEarthNet.uav[63] utilizationSecMission 19288.513726813
scalar OsgEarthNet.uav[63] utilizationSecMaintenance 11036.266960958
scalar OsgEarthNet.uav[63] utilizationSecCharge 109688.06927293
scalar OsgEarthNet.uav[63] utilizationSecIdle 119187.1490393
scalar OsgEarthNet.uav[63] utilizationEnergyMission 90528.225082397
scalar OsgEarthNet.uav[63] utilizationEnergyMaintenance 53422.401744842
scalar OsgEarthNet.uav[63] utilizationEnergyCharge 141504.90991211
scalar OsgEarthNet.uav[63] utilizationEnergyOverdrawMission 0
scalar OsgEarthNet.uav[63] utilizationEnergyOverdrawMaintenance 0
scalar OsgEarthNet.uav[63] utilizationCountMissions 32
scalar OsgEarthNet.uav[63] utilizationCountManeuversMission 514
scalar OsgEarthNet.uav[63] utilizationCountManeuversMaintenance 64
scalar OsgEarthNet.uav[63] utilizationCountChargeState 32
scalar OsgEarthNet.uav[63] utilizationCountOverdrawnAfterMission 0
scalar OsgEarthNet.uav[63] utilizationCountIdleState 32
scalar OsgEarthNet.uav[63] utilizationFail 0
scalar OsgEarthNet.uav[63] simulationTime 259200
scalar OsgEarthNet.uav[64] utilizationSecMission 28841.361187947
scalar OsgEarthNet.uav[64] utilizationSecMaintenance 19771.508439365
scalar OsgEarthNet.uav[64] utilizationSecCharge 179835.12437269
scalar OsgEarthNet.uav[64] utilizationSecIdle 30752.005
scalar OsgEarthNet.uav[64] utilizationEnergyMission 142650.10381317
scalar OsgEarthNet.uav[64] utilizationEnergyMaintenance 94407.460208893
scalar OsgEarthNet.uav[64] utilizationEnergyCharge 235462.1484375
scalar OsgEarthNet.uav[64] utilizationEnergyOverdrawMission 0
scalar OsgEarthNet.uav[64] utilizationEnergyOverdrawMaintenance 0
scalar OsgEarthNet.uav[64] utilizationCountMissions 51
scalar OsgEarthNet.uav[64] utilizationCountManeuversMission 1025
scalar OsgEarthNet.uav[64] utilizationCountManeuversMaintenance 102
scalar OsgEarthNet.uav[64] utilizationCountChargeState 51
scalar OsgEarthNet.uav[64] utilizationCountOverdrawnAfterMission 0
scalar OsgEarthNet.uav[64] utilizationCountIdleState 42
scalar OsgEarthNet.uav[64] utilizationFail 0
scalar OsgEarthNet.uav[64] simulationTime 259200
scalar OsgEarthNet.uav[65] utilizationSecMission 28236.707477138
scalar OsgEarthNet.uav[65] utilizationSecMaintenance 14741.649789422
scalar OsgEarthNet.uav[65] utilizationSecCharge 157902.01065277
scalar OsgEarthNet.uav[65] utilizationSecIdle 58319.631080665
scalar OsgEarthNet.uav[65] utilizationEnergyMission 137585.97132111
scalar OsgEarthNet.uav[65] utilizationEnergyMaintenance 69693.381710053
[...]
scalar OsgEarthNet.uav[81] utilizationCountMissions 45
scalar OsgEarthNet.uav[81] utilizationCountManeuversMission 924
scalar OsgEarthNet.uav[81] utilizationCountManeuversMaintenance 90
scalar OsgEarthNet.uav[81] utilizationCountChargeState 45
scalar OsgEarthNet.uav[81] utilizationCountOverdrawnAfterMission 0
scalar OsgEarthNet.uav[81] utilizationCountIdleState 43
scalar OsgEarthNet.uav[81] utilizationFail 0
scalar OsgEarthNet.uav[81] simulationTime 259200
scalar OsgEarthNet.uav[82] utilizationSecMission 31278.890227505
scalar OsgEarthNet.uav[82] utilizationSecMaintenance 13351.650424406
scalar OsgEarthNet.uav[82] utilizationSecCharge 158960
scalar OsgEarthNet.uav[82] utilizationSecIdle 55609.458348089
scalar OsgEarthNet.uav[82] utilizationEnergyMission 148087.42570954
scalar OsgEarthNet.uav[82] utilizationEnergyMaintenance 60358.145545959
scalar OsgEarthNet.uav[82] utilizationEnergyCharge 206634.51220703
scalar OsgEarthNet.uav[82] utilizationEnergyOverdrawMission 0
scalar OsgEarthNet.uav[82] utilizationEnergyOverdrawMaintenance 0
scalar OsgEarthNet.uav[82] utilizationCountMissions 45
scalar OsgEarthNet.uav[82] utilizationCountManeuversMission 802
scalar OsgEarthNet.uav[82] utilizationCountManeuversMaintenance 91
scalar OsgEarthNet.uav[82] utilizationCountChargeState 45
scalar OsgEarthNet.uav[82] utilizationCountOverdrawnAfterMission 0
scalar OsgEarthNet.uav[82] utilizationCountIdleState 40
scalar OsgEarthNet.uav[82] utilizationFail 0
scalar OsgEarthNet.uav[82] simulationTime 259200
scalar OsgEarthNet.uav[83] utilizationSecMission 19237.868944793
scalar OsgEarthNet.uav[83] utilizationSecMaintenance 11939.713772329
scalar OsgEarthNet.uav[83] utilizationSecCharge 113247.14570017
scalar OsgEarthNet.uav[83] utilizationSecIdle 114775.27058271
scalar OsgEarthNet.uav[83] utilizationEnergyMission 93027.043895721
scalar OsgEarthNet.uav[83] utilizationEnergyMaintenance 56736.474693298
scalar OsgEarthNet.uav[83] utilizationEnergyCharge 146072.90441895
scalar OsgEarthNet.uav[83] utilizationEnergyOverdrawMission 0
scalar OsgEarthNet.uav[83] utilizationEnergyOverdrawMaintenance 0
scalar OsgEarthNet.uav[83] utilizationCountMissions 33
scalar OsgEarthNet.uav[83] utilizationCountManeuversMission 628
scalar OsgEarthNet.uav[83] utilizationCountManeuversMaintenance 66
scalar OsgEarthNet.uav[83] utilizationCountChargeState 33
scalar OsgEarthNet.uav[83] utilizationCountOverdrawnAfterMission 0
scalar OsgEarthNet.uav[83] utilizationCountIdleState 33
scalar OsgEarthNet.uav[83] utilizationFail 0
scalar OsgEarthNet.uav[83] simulationTime 259200
scalar OsgEarthNet.uav[84] utilizationSecMission 23620.545454158
scalar OsgEarthNet.uav[84] utilizationSecMaintenance 13028.39774188
scalar OsgEarthNet.uav[84] utilizationSecCharge 134800
scalar OsgEarthNet.uav[84] utilizationSecIdle 87751.055803961
scalar OsgEarthNet.uav[84] utilizationEnergyMission 115396.93637845
scalar OsgEarthNet.uav[84] utilizationEnergyMaintenance 61616.264728546
scalar OsgEarthNet.uav[84] utilizationEnergyCharge 173644.39111328
scalar OsgEarthNet.uav[84] utilizationEnergyOverdrawMission 0
scalar OsgEarthNet.uav[84] utilizationEnergyOverdrawMaintenance 0
scalar OsgEarthNet.uav[84] utilizationCountMissions 38
scalar OsgEarthNet.uav[84] utilizationCountManeuversMission 804
scalar OsgEarthNet.uav[84] utilizationCountManeuversMaintenance 77
scalar OsgEarthNet.uav[84] utilizationCountChargeState 38
scalar OsgEarthNet.uav[84] utilizationCountOverdrawnAfterMission 0
scalar OsgEarthNet.uav[84] utilizationCountIdleState 39
scalar OsgEarthNet.uav[84] utilizationFail 0
scalar OsgEarthNet.uav[84] simulationTime 259200
scalar OsgEarthNet.uav[85] utilizationSecMission 31329.067587806
scalar OsgEarthNet.uav[85] utilizationSecMaintenance 13613.346176067
scalar OsgEarthNet.uav[85] utilizationSecCharge 162781.2350153
scalar OsgEarthNet.uav[85] utilizationSecIdle 51476.350220821
scalar OsgEarthNet.uav[85] utilizationEnergyMission 150563.209095
scalar OsgEarthNet.uav[85] utilizationEnergyMaintenance 63122.429481506
scalar OsgEarthNet.uav[85] utilizationEnergyCharge 213619.63549805
scalar OsgEarthNet.uav[85] utilizationEnergyOverdrawMission 0
scalar OsgEarthNet.uav[85] utilizationEnergyOverdrawMaintenance 0
scalar OsgEarthNet.uav[85] utilizationCountMissions 46
scalar OsgEarthNet.uav[85] utilizationCountManeuversMission 933
scalar OsgEarthNet.uav[85] utilizationCountManeuversMaintenance 92
scalar OsgEarthNet.uav[85] utilizationCountChargeState 46
scalar OsgEarthNet.uav[85] utilizationCountOverdrawnAfterMission 0
scalar OsgEarthNet.uav[85] utilizationCountIdleState 41
scalar OsgEarthNet.uav[85] utilizationFail 0
scalar OsgEarthNet.uav[85] simulationTime 259200
scalar OsgEarthNet.uav[86] utilizationSecMission 21099.635327455
scalar OsgEarthNet.uav[86] utilizationSecMaintenance 12511.972838451
scalar OsgEarthNet.uav[86] utilizationSecCharge 120026.38683409
scalar OsgEarthNet.uav[86] utilizationSecIdle 105562.004
scalar OsgEarthNet.uav[86] utilizationEnergyMission 101810.90790176
scalar OsgEarthNet.uav[86] utilizationEnergyMaintenance 59246.83789444
scalar OsgEarthNet.uav[86] utilizationEnergyCharge 154775.4901123
scalar OsgEarthNet.uav[86] utilizationEnergyOverdrawMission 0
scalar OsgEarthNet.uav[86] utilizationEnergyOverdrawMaintenance 0
scalar OsgEarthNet.uav[86] utilizationCountMissions 35
scalar OsgEarthNet.uav[86] utilizationCountManeuversMission 660
scalar OsgEarthNet.uav[86] utilizationCountManeuversMaintenance 70
scalar OsgEarthNet.uav[86] utilizationCountChargeState 35
scalar OsgEarthNet.uav[86] utilizationCountOverdrawnAfterMission 0
scalar OsgEarthNet.uav[86] utilizationCountIdleState 35
scalar OsgEarthNet.uav[86] utilizationFail 0
scalar OsgEarthNet.uav[86] simulationTime 259200
scalar OsgEarthNet.uav[87] utilizationSecMission 30445.80688413
scalar OsgEarthNet.uav[87] utilizationSecMaintenance 13382.938535091
scalar OsgEarthNet.uav[87] utilizationSecCharge 160109.24158078
scalar OsgEarthNet.uav[87] utilizationSecIdle 55262.012
scalar OsgEarthNet.uav[87] utilizationEnergyMission 146635.2051239
scalar OsgEarthNet.uav[87] utilizationEnergyMaintenance 62385.543361664
scalar OsgEarthNet.uav[87] utilizationEnergyCharge 208089.28051758
scalar OsgEarthNet.uav[87] utilizationEnergyOverdrawMission 0
scalar OsgEarthNet.uav[87] utilizationEnergyOverdrawMaintenance 0
scalar OsgEarthNet.uav[87] utilizationCountMissions 45
scalar OsgEarthNet.uav[87] utilizationCountManeuversMission 907
scalar OsgEarthNet.uav[87] utilizationCountManeuversMaintenance 90
scalar OsgEarthNet.uav[87] utilizationCountChargeState 45
scalar OsgEarthNet.uav[87] utilizationCountOverdrawnAfterMission 0
scalar OsgEarthNet.uav[87] utilizationCountIdleState 44
scalar OsgEarthNet.uav[87] utilizationFail 0
scalar OsgEarthNet.uav[87] simulationTime 259200
scalar OsgEarthNet.uav[88] utilizationSecMission 32455.428364235
scalar OsgEarthNet.uav[88] utilizationSecMaintenance 13835.242907766
scalar OsgEarthNet.uav[88] utilizationSecCharge 169158.62728636
scalar OsgEarthNet.uav[88] utilizationSecIdle 43750.700441643
scalar OsgEarthNet.uav[88] utilizationEnergyMission 158527.02525711
scalar OsgEarthNet.uav[88] utilizationEnergyMaintenance 63259.498718262
scalar OsgEarthNet.uav[88] utilizationEnergyCharge 221829.89501953
scalar OsgEarthNet.uav[88] utilizationEnergyOverdrawMission 0
scalar OsgEarthNet.uav[88] utilizationEnergyOverdrawMaintenance 0
scalar OsgEarthNet.uav[88] utilizationCountMissions 48
scalar OsgEarthNet.uav[88] utilizationCountManeuversMission 1014
scalar OsgEarthNet.uav[88] utilizationCountManeuversMaintenance 96
scalar OsgEarthNet.uav[88] utilizationCountChargeState 48
scalar OsgEarthNet.uav[88] utilizationCountOverdrawnAfterMission 0
scalar OsgEarthNet.uav[88] utilizationCountIdleState 42
scalar OsgEarthNet.uav[88] utilizationFail 0
scalar OsgEarthNet.uav[88] simulationTime 259200
scalar OsgEarthNet.uav[89] utilizationSecMission 19286.876678383
scalar OsgEarthNet.uav[89] utilizationSecMaintenance 13171.113321617
scalar OsgEarthNet.uav[89] utilizationSecCharge 119540
scalar OsgEarthNet.uav[89] utilizationSecIdle 107202.009
scalar OsgEarthNet.uav[89] utilizationEnergyMission 95168.450626373
scalar OsgEarthNet.uav[89] utilizationEnergyMaintenance 62659.116221419
scalar OsgEarthNet.uav[89] utilizationEnergyCharge 153723.21386719
scalar OsgEarthNet.uav[89] utilizationEnergyOverdrawMission 0
scalar OsgEarthNet.uav[89] utilizationEnergyOverdrawMaintenance 0
scalar OsgEarthNet.uav[89] utilizationCountMissions 35
scalar OsgEarthNet.uav[89] utilizationCountManeuversMission 678
scalar OsgEarthNet.uav[89] utilizationCountManeuversMaintenance 70
scalar OsgEarthNet.uav[89] utilizationCountChargeState 34
scalar OsgEarthNet.uav[89] utilizationCountOverdrawnAfterMission 0
scalar OsgEarthNet.uav[89] utilizationCountIdleState 35
scalar OsgEarthNet.uav[89] utilizationFail 0
scalar OsgEarthNet.uav[89] simulationTime 259200
scalar OsgEarthNet.uav[90] utilizationSecMission 20336.011316033
scalar OsgEarthNet.uav[90] utilizationSecMaintenance 12741.737810593
scalar OsgEarthNet.uav[90] utilizationSecCharge 120570.22987337
scalar OsgEarthNet.uav[90] utilizationSecIdle 105552.02
scalar OsgEarthNet.uav[90] utilizationEnergyMission 99800.438144684
scalar OsgEarthNet.uav[90] utilizationEnergyMaintenance 59376.177906036
scalar OsgEarthNet.uav[90] utilizationEnergyCharge 155656.19458008
scalar OsgEarthNet.uav[90] utilizationEnergyOverdrawMission 0
scalar OsgEarthNet.uav[90] utilizationEnergyOverdrawMaintenance 0
scalar OsgEarthNet.uav[90] utilizationCountMissions 35
scalar OsgEarthNet.uav[90] utilizationCountManeuversMission 718
scalar OsgEarthNet.uav[90] utilizationCountManeuversMaintenance 70
scalar OsgEarthNet.uav[90] utilizationCountChargeState 35
scalar OsgEarthNet.uav[90] utilizationCountOverdrawnAfterMission 0
scalar OsgEarthNet.uav[90] utilizationCountIdleState 34
scalar OsgEarthNet.uav[90] utilizationFail 0
scalar OsgEarthNet.uav[90] simulationTime 259200
scalar OsgEarthNet.uav[91] utilizationSecMission 28881.841546311
scalar OsgEarthNet.uav[91] utilizationSecMaintenance 18920.320720752
scalar OsgEarthNet.uav[91] utilizationSecCharge 175184.07773228
scalar OsgEarthNet.uav[91] utilizationSecIdle 36213.75900066
scalar OsgEarthNet.uav[91] utilizationEnergyMission 141985.00284958
scalar OsgEarthNet.uav[91] utilizationEnergyMaintenance 89478.404941559
scalar OsgEarthNet.uav[91] utilizationEnergyCharge 228678.97802734
scalar OsgEarthNet.uav[91] utilizationEnergyOverdrawMission 0
scalar OsgEarthNet.uav[91] utilizationEnergyOverdrawMaintenance 0
scalar OsgEarthNet.uav[91] utilizationCountMissions 50
scalar OsgEarthNet.uav[91] utilizationCountManeuversMission 1030
scalar OsgEarthNet.uav[91] utilizationCountManeuversMaintenance 100
scalar OsgEarthNet.uav[91] utilizationCountChargeState 50
scalar OsgEarthNet.uav[91] utilizationCountOverdrawnAfterMission 0
scalar OsgEarthNet.uav[91] utilizationCountIdleState 42
scalar OsgEarthNet.uav[91] utilizationFail 0
scalar OsgEarthNet.uav[91] simulationTime 259200
scalar OsgEarthNet.uav[92] utilizationSecMission 32139.011443714
scalar OsgEarthNet.uav[92] utilizationSecMaintenance 13786.328308592
scalar OsgEarthNet.uav[92] utilizationSecCharge 167790
scalar OsgEarthNet.uav[92] utilizationSecIdle 45484.659247694
scalar OsgEarthNet.uav[92] utilizationEnergyMission 155671.59246063
scalar OsgEarthNet.uav[92] utilizationEnergyMaintenance 65051.334156036
scalar OsgEarthNet.uav[92] utilizationEnergyCharge 218727.81591797
scalar OsgEarthNet.uav[92] utilizationEnergyOverdrawMission 0
scalar OsgEarthNet.uav[92] utilizationEnergyOverdrawMaintenance 0
scalar OsgEarthNet.uav[92] utilizationCountMissions 47
scalar OsgEarthNet.uav[92] utilizationCountManeuversMission 891
scalar OsgEarthNet.uav[92] utilizationCountManeuversMaintenance 94
scalar OsgEarthNet.uav[92] utilizationCountChargeState 47
scalar OsgEarthNet.uav[92] utilizationCountOverdrawnAfterMission 0
scalar OsgEarthNet.uav[92] utilizationCountIdleState 42
scalar OsgEarthNet.uav[92] utilizationFail 0
scalar OsgEarthNet.uav[92] simulationTime 259200
scalar OsgEarthNet.uav[93] utilizationSecMission 29148.995177934
scalar OsgEarthNet.uav[93] utilizationSecMaintenance 15978.126206114
scalar OsgEarthNet.uav[93] utilizationSecCharge 165630.86561595
scalar OsgEarthNet.uav[93] utilizationSecIdle 48442.012
scalar OsgEarthNet.uav[93] utilizationEnergyMission 140948.09797668
scalar OsgEarthNet.uav[93] utilizationEnergyMaintenance 75259.578174591
scalar OsgEarthNet.uav[93] utilizationEnergyCharge 215054.77514648
scalar OsgEarthNet.uav[93] utilizationEnergyOverdrawMission 0
scalar OsgEarthNet.uav[93] utilizationEnergyOverdrawMaintenance 0
scalar OsgEarthNet.uav[93] utilizationCountMissions 47
scalar OsgEarthNet.uav[93] utilizationCountManeuversMission 924
scalar OsgEarthNet.uav[93] utilizationCountManeuversMaintenance 94
scalar OsgEarthNet.uav[93] utilizationCountChargeState 47
scalar OsgEarthNet.uav[93] utilizationCountOverdrawnAfterMission 0
scalar OsgEarthNet.uav[93] utilizationCountIdleState 43
scalar OsgEarthNet.uav[93] utilizationFail 0
scalar OsgEarthNet.uav[93] simulationTime 259200
scalar OsgEarthNet.uav[94] utilizationSecMission 27399.070016831
scalar OsgEarthNet.uav[94] utilizationSecMaintenance 18775.397547672
scalar OsgEarthNet.uav[94] utilizationSecCharge 169903.5214355
scalar OsgEarthNet.uav[94] utilizationSecIdle 43122.01
scalar OsgEarthNet.uav[94] utilizationEnergyMission 137866.24253082
scalar OsgEarthNet.uav[94] utilizationEnergyMaintenance 88110.226055145
scalar OsgEarthNet.uav[94] utilizationEnergyCharge 220949.01834106
scalar OsgEarthNet.uav[94] utilizationEnergyOverdrawMission 0
scalar OsgEarthNet.uav[94] utilizationEnergyOverdrawMaintenance 0
scalar OsgEarthNet.uav[94] utilizationCountMissions 49
scalar OsgEarthNet.uav[94] utilizationCountManeuversMission 1041
scalar OsgEarthNet.uav[94] utilizationCountManeuversMaintenance 98
scalar OsgEarthNet.uav[94] utilizationCountChargeState 49
scalar OsgEarthNet.uav[94] utilizationCountOverdrawnAfterMission 0
scalar OsgEarthNet.uav[94] utilizationCountIdleState 43
scalar OsgEarthNet.uav[94] utilizationFail 0
scalar OsgEarthNet.uav[94] simulationTime 259200
scalar OsgEarthNet.uav[95] utilizationSecMission 31430.00050336
scalar OsgEarthNet.uav[95] utilizationSecMaintenance 14331.010809514
scalar OsgEarthNet.uav[95] utilizationSecCharge 164936.98168713
scalar OsgEarthNet.uav[95] utilizationSecIdle 48502.006
scalar OsgEarthNet.uav[95] utilizationEnergyMission 150704.00852966
scalar OsgEarthNet.uav[95] utilizationEnergyMaintenance 65971.942703247
scalar OsgEarthNet.uav[95] utilizationEnergyCharge 215571.05969238
scalar OsgEarthNet.uav[95] utilizationEnergyOverdrawMission 0
scalar OsgEarthNet.uav[95] utilizationEnergyOverdrawMaintenance 0
scalar OsgEarthNet.uav[95] utilizationCountMissions 47
scalar OsgEarthNet.uav[95] utilizationCountManeuversMission 966
scalar OsgEarthNet.uav[95] utilizationCountManeuversMaintenance 94
scalar OsgEarthNet.uav[95] utilizationCountChargeState 47
scalar OsgEarthNet.uav[95] utilizationCountOverdrawnAfterMission 0
scalar OsgEarthNet.uav[95] utilizationCountIdleState 44
scalar OsgEarthNet.uav[95] utilizationFail 0
scalar OsgEarthNet.uav[95] simulationTime 259200
scalar OsgEarthNet.uav[96] utilizationSecMission 24052.180952286
scalar OsgEarthNet.uav[96] utilizationSecMaintenance 15744.368803026
scalar OsgEarthNet.uav[96] utilizationSecCharge 147411.42724469
scalar OsgEarthNet.uav[96] utilizationSecIdle 71992.022
scalar OsgEarthNet.uav[96] utilizationEnergyMission 118171.89087296
scalar OsgEarthNet.uav[96] utilizationEnergyMaintenance 75287.468528748
scalar OsgEarthNet.uav[96] utilizationEnergyCharge 192729.22363281
scalar OsgEarthNet.uav[96] utilizationEnergyOverdrawMission 0
scalar OsgEarthNet.uav[96] utilizationEnergyOverdrawMaintenance 0
scalar OsgEarthNet.uav[96] utilizationCountMissions 42
scalar OsgEarthNet.uav[96] utilizationCountManeuversMission 787
scalar OsgEarthNet.uav[96] utilizationCountManeuversMaintenance 84
scalar OsgEarthNet.uav[96] utilizationCountChargeState 42
scalar OsgEarthNet.uav[96] utilizationCountOverdrawnAfterMission 0
scalar OsgEarthNet.uav[96] utilizationCountIdleState 35
scalar OsgEarthNet.uav[96] utilizationFail 0
scalar OsgEarthNet.uav[96] simulationTime 259200
scalar OsgEarthNet.uav[97] utilizationSecMission 30552.629953988
scalar OsgEarthNet.uav[97] utilizationSecMaintenance 16741.738937597
scalar OsgEarthNet.uav[97] utilizationSecCharge 171013.62910841
scalar OsgEarthNet.uav[97] utilizationSecIdle 40892.001
scalar OsgEarthNet.uav[97] utilizationEnergyMission 147492.21565628
scalar OsgEarthNet.uav[97] utilizationEnergyMaintenance 78427.761882782
scalar OsgEarthNet.uav[97] utilizationEnergyCharge 224055.33642578
scalar OsgEarthNet.uav[97] utilizationEnergyOverdrawMission 0
scalar OsgEarthNet.uav[97] utilizationEnergyOverdrawMaintenance 0
scalar OsgEarthNet.uav[97] utilizationCountMissions 49
scalar OsgEarthNet.uav[97] utilizationCountManeuversMission 901
scalar OsgEarthNet.uav[97] utilizationCountManeuversMaintenance 98
scalar OsgEarthNet.uav[97] utilizationCountChargeState 49
scalar OsgEarthNet.uav[97] utilizationCountOverdrawnAfterMission 0
scalar OsgEarthNet.uav[97] utilizationCountIdleState 39
scalar OsgEarthNet.uav[97] utilizationFail 0
scalar OsgEarthNet.uav[97] simulationTime 259200
scalar OsgEarthNet.uav[98] utilizationSecMission 31208.3572528
scalar OsgEarthNet.uav[98] utilizationSecMaintenance 13690.847686059
scalar OsgEarthNet.uav[98] utilizationSecCharge 163220
scalar OsgEarthNet.uav[98] utilizationSecIdle 51080.794061141
scalar OsgEarthNet.uav[98] utilizationEnergyMission 149553.15568924
scalar OsgEarthNet.uav[98] utilizationEnergyMaintenance 64057.617073059
scalar OsgEarthNet.uav[98] utilizationEnergyCharge 213004.29199219
scalar OsgEarthNet.uav[98] utilizationEnergyOverdrawMission 0
scalar OsgEarthNet.uav[98] utilizationEnergyOverdrawMaintenance 0
scalar OsgEarthNet.uav[98] utilizationCountMissions 46
scalar OsgEarthNet.uav[98] utilizationCountManeuversMission 924
scalar OsgEarthNet.uav[98] utilizationCountManeuversMaintenance 92
scalar OsgEarthNet.uav[98] utilizationCountChargeState 46
scalar OsgEarthNet.uav[98] utilizationCountOverdrawnAfterMission 0
scalar OsgEarthNet.uav[98] utilizationCountIdleState 43
scalar OsgEarthNet.uav[98] utilizationFail 0
scalar OsgEarthNet.uav[98] simulationTime 259200
scalar OsgEarthNet.uav[99] utilizationSecMission 17876.618639633
scalar OsgEarthNet.uav[99] utilizationSecMaintenance 11728.639792457
scalar OsgEarthNet.uav[99] utilizationSecCharge 110872.72556791
scalar OsgEarthNet.uav[99] utilizationSecIdle 118722.015
scalar OsgEarthNet.uav[99] utilizationEnergyMission 86990.202323914
scalar OsgEarthNet.uav[99] utilizationEnergyMaintenance 55531.724426269
scalar OsgEarthNet.uav[99] utilizationEnergyCharge 143449.6171875
scalar OsgEarthNet.uav[99] utilizationEnergyOverdrawMission 0
scalar OsgEarthNet.uav[99] utilizationEnergyOverdrawMaintenance 0
scalar OsgEarthNet.uav[99] utilizationCountMissions 32
scalar OsgEarthNet.uav[99] utilizationCountManeuversMission 612
scalar OsgEarthNet.uav[99] utilizationCountManeuversMaintenance 64
scalar OsgEarthNet.uav[99] utilizationCountChargeState 32
scalar OsgEarthNet.uav[99] utilizationCountOverdrawnAfterMission 0
scalar OsgEarthNet.uav[99] utilizationCountIdleState 32
scalar OsgEarthNet.uav[99] utilizationFail 0
scalar OsgEarthNet.uav[99] simulationTime 259200
scalar OsgEarthNet.cs[0] usedPower 4042437.6722079
scalar OsgEarthNet.cs[0] chargedPower 4042437.6722079
scalar OsgEarthNet.cs[0] chargedMobileNodes 884
scalar OsgEarthNet.cs[0] reservations 898
scalar OsgEarthNet.cs[1] usedPower 3901909.6700453
scalar OsgEarthNet.cs[1] chargedPower 3901909.6700453
scalar OsgEarthNet.cs[1] chargedMobileNodes 699
scalar OsgEarthNet.cs[1] reservations 850
scalar OsgEarthNet.cs[2] usedPower 8889379.0475203
scalar OsgEarthNet.cs[2] chargedPower 8889379.0475203
scalar OsgEarthNet.cs[2] chargedMobileNodes 1759
scalar OsgEarthNet.cs[2] reservations 1933

