version 2
run Szenario_Hotel_Gabelbach-18-20180711-16:52:37-4744
attr configname Szenario_Hotel_Gabelbach
attr datetime 20180711-16:52:37
attr experiment Szenario_Hotel_Gabelbach
attr inifile omnetpp.ini
attr iterationvars "$replM=0, $replSearchM=1"
attr iterationvarsf replM=0,replSearchM=1-
attr measurement "$replM=0, $replSearchM=1"
attr network OsgEarthNet
attr processid 4744
attr repetition 2
attr replication #2
attr resultdir results
attr runnumber 18
attr seedset 18
itervar replM 0
itervar replSearchM 1
param *.osgEarthScene.scene "\"Szenario_Hotel_Gabelbach.earth\""
param *.playgroundLatitude 50.6830269
param *.playgroundLongitude 10.8538055
param *.playgroundWidth 3500m
param *.playgroundHeight 3500m
param *.numCSs 3
param *.numUAVs 100
param *.cs[0].posX 3537m
param *.cs[0].posY 965m
param *.cs[0].posZ 538m
param *.cs[1].posX 312m
param *.cs[1].posY 1262m
param *.cs[1].posZ 539m
param *.cs[2].posX 2185m
param *.cs[2].posY 3026m
param *.cs[2].posZ 777m
param *.cs[3].posX 10m
param *.cs[3].posY 2200m
param *.cs[3].posZ 560m
param *.cs[4].posX 750m
param *.cs[4].posY 200m
param *.cs[4].posZ 540m
param *.cs[5].posX 2450m
param *.cs[5].posY 180m
param *.cs[5].posZ 524m
param *.cs[6].posX 3140m
param *.cs[6].posY 1790m
param *.cs[6].posZ 606m
param *.numCSs 3
param *.numUAVs 100
param *.uav[*].replacementMethod 0
param *.missionControl.replacementSearchMethod 1
param *.*.timeStep 10s
param *.uav[*].commandPreviewCommandCount 20
param *.missionControl.missionFiles "\"missions\\\\Szenario_WB_Hotel_Gabelbach_Mission_Hotel.waypoints,missions\\\\Szenario_WB_Hotel_Gabelbach_Mission_Kickelhahn.waypoints,missions\\\\Szenario_WB_Hotel_Gabelbach_Mission_Ilmenau_Sportplatz.waypoints,missions\\\\Szenario_WB_Hotel_Gabelbach_Mission_Manebach_Mitte.waypoints,missions\\\\Szenario_WB_Hotel_Gabelbach_Mission_Manebach_Sued.waypoints,missions\\\\Szenario_WB_Hotel_Gabelbach_Hover_HoheSchlaufe.waypoints,missions\\\\Szenario_WB_Hotel_Gabelbach_Hover_Kickelhahn.waypoints,missions\\\\Szenario_WB_Hotel_Gabelbach_Hover_Gabelbachskopf.waypoints,missions\\\\Szenario_WB_Hotel_Gabelbach_Hover_Dachskopf.waypoints\""
param *.uav[0].startX 3537m
param *.uav[0].startY 965m
param *.uav[0].startZ 539m
param *.uav[1].startX 312m
param *.uav[1].startY 1262m
param *.uav[1].startZ 540m
param *.uav[2].startX 2185m
param *.uav[2].startY 3026m
param *.uav[2].startZ 778m
param *.uav[3].startX 3537m
param *.uav[3].startY 965m
param *.uav[3].startZ 539m
param *.uav[4].startX 312m
param *.uav[4].startY 1262m
param *.uav[4].startZ 540m
param *.uav[5].startX 2185m
param *.uav[5].startY 3026m
param *.uav[5].startZ 778m
param *.uav[6].startX 3537m
param *.uav[6].startY 965m
param *.uav[6].startZ 539m
param *.uav[7].startX 312m
param *.uav[7].startY 1262m
param *.uav[7].startZ 540m
param *.uav[8].startX 2185m
param *.uav[8].startY 3026m
param *.uav[8].startZ 778m
param *.uav[9].startX 3537m
param *.uav[9].startY 965m
param *.uav[9].startZ 539m
param *.uav[10].startX 3537m
param *.uav[10].startY 965m
param *.uav[10].startZ 539m
param *.uav[11].startX 312m
param *.uav[11].startY 1262m
param *.uav[11].startZ 540m
param *.uav[12].startX 2185m
param *.uav[12].startY 3026m
param *.uav[12].startZ 778m
param *.uav[13].startX 3537m
param *.uav[13].startY 965m
param *.uav[13].startZ 539m
param *.uav[14].startX 312m
param *.uav[14].startY 1262m
param *.uav[14].startZ 540m
param *.uav[15].startX 2185m
param *.uav[15].startY 3026m
param *.uav[15].startZ 778m
param *.uav[16].startX 3537m
param *.uav[16].startY 965m
param *.uav[16].startZ 539m
param *.uav[17].startX 312m
param *.uav[17].startY 1262m
param *.uav[17].startZ 540m
param *.uav[18].startX 2185m
param *.uav[18].startY 3026m
param *.uav[18].startZ 778m
param *.uav[19].startX 3537m
param *.uav[19].startY 965m
param *.uav[19].startZ 539m
param *.uav[20].startX 3537m
param *.uav[20].startY 965m
param *.uav[20].startZ 539m
param *.uav[21].startX 312m
param *.uav[21].startY 1262m
param *.uav[21].startZ 540m
param *.uav[22].startX 2185m
param *.uav[22].startY 3026m
param *.uav[22].startZ 778m
param *.uav[23].startX 3537m
param *.uav[23].startY 965m
param *.uav[23].startZ 539m
param *.uav[24].startX 312m
param *.uav[24].startY 1262m
param *.uav[24].startZ 540m
param *.uav[25].startX 2185m
param *.uav[25].startY 3026m
param *.uav[25].startZ 778m
param *.uav[26].startX 3537m
param *.uav[26].startY 965m
param *.uav[26].startZ 539m
param *.uav[27].startX 312m
param *.uav[27].startY 1262m
param *.uav[27].startZ 540m
param *.uav[28].startX 2185m
param *.uav[28].startY 3026m
param *.uav[28].startZ 778m
param *.uav[29].startX 3537m
param *.uav[29].startY 965m
param *.uav[29].startZ 539m
param *.uav[30].startX 3537m
param *.uav[30].startY 965m
param *.uav[30].startZ 539m
param *.uav[31].startX 312m
param *.uav[31].startY 1262m
param *.uav[31].startZ 540m
param *.uav[32].startX 2185m
param *.uav[32].startY 3026m
param *.uav[32].startZ 778m
param *.uav[33].startX 3537m
param *.uav[33].startY 965m
param *.uav[33].startZ 539m
param *.uav[34].startX 312m
param *.uav[34].startY 1262m
param *.uav[34].startZ 540m
param *.uav[35].startX 2185m
param *.uav[35].startY 3026m
param *.uav[35].startZ 778m
param *.uav[36].startX 3537m
param *.uav[36].startY 965m
param *.uav[36].startZ 539m
param *.uav[37].startX 312m
param *.uav[37].startY 1262m
param *.uav[37].startZ 540m
param *.uav[38].startX 2185m
param *.uav[38].startY 3026m
param *.uav[38].startZ 778m
param *.uav[39].startX 3537m
param *.uav[39].startY 965m
param *.uav[39].startZ 539m
param *.uav[40].startX 3537m
param *.uav[40].startY 965m
param *.uav[40].startZ 539m
param *.uav[41].startX 312m
param *.uav[41].startY 1262m
param *.uav[41].startZ 540m
param *.uav[42].startX 2185m
param *.uav[42].startY 3026m
param *.uav[42].startZ 778m
param *.uav[43].startX 3537m
param *.uav[43].startY 965m
param *.uav[43].startZ 539m
param *.uav[44].startX 312m
param *.uav[44].startY 1262m
param *.uav[44].startZ 540m
param *.uav[45].startX 2185m
param *.uav[45].startY 3026m
param *.uav[45].startZ 778m
param *.uav[46].startX 3537m
param *.uav[46].startY 965m
param *.uav[46].startZ 539m
param *.uav[47].startX 312m
param *.uav[47].startY 1262m
param *.uav[47].startZ 540m
param *.uav[48].startX 2185m
param *.uav[48].startY 3026m
param *.uav[48].startZ 778m
param *.uav[49].startX 3537m
param *.uav[49].startY 965m
param *.uav[49].startZ 539m
param *.uav[50].startX 3537m
param *.uav[50].startY 965m
param *.uav[50].startZ 539m
param *.uav[51].startX 312m
param *.uav[51].startY 1262m
param *.uav[51].startZ 540m
param *.uav[52].startX 2185m
param *.uav[52].startY 3026m
param *.uav[52].startZ 778m
param *.uav[53].startX 3537m
param *.uav[53].startY 965m
param *.uav[53].startZ 539m
param *.uav[54].startX 312m
param *.uav[54].startY 1262m
param *.uav[54].startZ 540m
param *.uav[55].startX 2185m
param *.uav[55].startY 3026m
param *.uav[55].startZ 778m
param *.uav[56].startX 3537m
param *.uav[56].startY 965m
param *.uav[56].startZ 539m
param *.uav[57].startX 312m
param *.uav[57].startY 1262m
param *.uav[57].startZ 540m
param *.uav[58].startX 2185m
param *.uav[58].startY 3026m
param *.uav[58].startZ 778m
param *.uav[59].startX 3537m
param *.uav[59].startY 965m
param *.uav[59].startZ 539m
param *.uav[60].startX 3537m
param *.uav[60].startY 965m
param *.uav[60].startZ 539m
param *.uav[61].startX 312m
param *.uav[61].startY 1262m
param *.uav[61].startZ 540m
param *.uav[62].startX 2185m
param *.uav[62].startY 3026m
param *.uav[62].startZ 778m
param *.uav[63].startX 3537m
param *.uav[63].startY 965m
param *.uav[63].startZ 539m
param *.uav[64].startX 312m
param *.uav[64].startY 1262m
param *.uav[64].startZ 540m
param *.uav[65].startX 2185m
param *.uav[65].startY 3026m
param *.uav[65].startZ 778m
param *.uav[66].startX 3537m
param *.uav[66].startY 965m
param *.uav[66].startZ 539m
param *.uav[67].startX 312m
param *.uav[67].startY 1262m
param *.uav[67].startZ 540m
param *.uav[68].startX 2185m
param *.uav[68].startY 3026m
param *.uav[68].startZ 778m
param *.uav[69].startX 3537m
param *.uav[69].startY 965m
param *.uav[69].startZ 539m
param *.uav[70].startX 3537m
param *.uav[70].startY 965m
param *.uav[70].startZ 539m
param *.uav[71].startX 312m
param *.uav[71].startY 1262m
param *.uav[71].startZ 540m
param *.uav[72].startX 2185m
param *.uav[72].startY 3026m
param *.uav[72].startZ 778m
param *.uav[73].startX 3537m
param *.uav[73].startY 965m
param *.uav[73].startZ 539m
param *.uav[74].startX 312m
param *.uav[74].startY 1262m
param *.uav[74].startZ 540m
param *.uav[75].startX 2185m
param *.uav[75].startY 3026m
param *.uav[75].startZ 778m
param *.uav[76].startX 3537m
param *.uav[76].startY 965m
param *.uav[76].startZ 539m
param *.uav[77].startX 312m
param *.uav[77].startY 1262m
param *.uav[77].startZ 540m
param *.uav[78].startX 2185m
param *.uav[78].startY 3026m
param *.uav[78].startZ 778m
param *.uav[79].startX 3537m
param *.uav[79].startY 965m
param *.uav[79].startZ 539m
param *.uav[80].startX 3537m
param *.uav[80].startY 965m
param *.uav[80].startZ 539m
param *.uav[81].startX 312m
param *.uav[81].startY 1262m
param *.uav[81].startZ 540m
param *.uav[82].startX 2185m
param *.uav[82].startY 3026m
param *.uav[82].startZ 778m
param *.uav[83].startX 3537m
param *.uav[83].startY 965m
param *.uav[83].startZ 539m
param *.uav[84].startX 312m
param *.uav[84].startY 1262m
param *.uav[84].startZ 540m
param *.uav[85].startX 2185m
param *.uav[85].startY 3026m
param *.uav[85].startZ 778m
param *.uav[86].startX 3537m
param *.uav[86].startY 965m
param *.uav[86].startZ 539m
param *.uav[87].startX 312m
param *.uav[87].startY 1262m
param *.uav[87].startZ 540m
param *.uav[88].startX 2185m
param *.uav[88].startY 3026m
param *.uav[88].startZ 778m
param *.uav[89].startX 3537m
param *.uav[89].startY 965m
param *.uav[89].startZ 539m
param *.uav[90].startX 3537m
param *.uav[90].startY 965m
param *.uav[90].startZ 539m
param *.uav[91].startX 312m
param *.uav[91].startY 1262m
param *.uav[91].startZ 540m
param *.uav[92].startX 2185m
param *.uav[92].startY 3026m
param *.uav[92].startZ 778m
param *.uav[93].startX 3537m
param *.uav[93].startY 965m
param *.uav[93].startZ 539m
param *.uav[94].startX 312m
param *.uav[94].startY 1262m
param *.uav[94].startZ 540m
param *.uav[95].startX 2185m
param *.uav[95].startY 3026m
param *.uav[95].startZ 778m
param *.uav[96].startX 3537m
param *.uav[96].startY 965m
param *.uav[96].startZ 539m
param *.uav[97].startX 312m
param *.uav[97].startY 1262m
param *.uav[97].startZ 540m
param *.uav[98].startX 2185m
param *.uav[98].startY 3026m
param *.uav[98].startZ 778m
param *.uav[99].startX 3537m
param *.uav[99].startY 965m
param *.uav[99].startZ 539m
param *.osgEarthScene.scene "\"boston.earth\""
param *.playgroundLatitude 42.3558
param *.playgroundLongitude -71.0677
param *.playgroundWidth 400m
param *.playgroundHeight 200m
param *.channelController.connectionColor "\"#0000FF40\""
param *.channelController.showConnections false
param *.uav[*].modelURL "\"quadrocopter.small.obj.15.scale.0,0,90.rot\""
param *.uav[*].labelColor "\"#FF7C00CC\""
param *.uav[*].label2Color "\"#FF7C00EE\""
param *.uav[*].batteryCapacity 5200mAh
param *.uav[*].batteryRemaining uav[index].batteryCapacity
param *.uav[*].predictionQuantile 0.95
param *.uav[*].replacementMethod 2
param *.uav[*].weightedSumWeight 0.5
param *.cs[*].modelURL "\"chargingstation_v1.osgt.2.scale.0,0,0.rot.0,0,-15e-1.trans\""
param *.cs[*].spotsWaiting 999
param *.cs[*].spotsCharging 999
param *.cs[*].chargeEffectivenessPercentage 100
param *.cs[*].nonLinearPhaseStartPercentage 85
param *.cs[*].chargeCurrent 6.0A
param *.cs[*].prioritizeFastCharge true
param *.missionControl.replacementSearchMethod 0
param *.*.timeStep 9s

scalar OsgEarthNet.uav[0] utilizationSecMission 960
scalar OsgEarthNet.uav[0] utilizationSecMaintenance 894.56202711707
scalar OsgEarthNet.uav[0] utilizationSecCharge 7010
scalar OsgEarthNet.uav[0] utilizationSecIdle 250335.43697288
scalar OsgEarthNet.uav[0] utilizationEnergyMission 4913.6705741882
scalar OsgEarthNet.uav[0] utilizationEnergyMaintenance 4217.6728744507
scalar OsgEarthNet.uav[0] utilizationEnergyCharge 8958.7026367188
scalar OsgEarthNet.uav[0] utilizationEnergyOverdrawMission 0
scalar OsgEarthNet.uav[0] utilizationEnergyOverdrawMaintenance 0
scalar OsgEarthNet.uav[0] utilizationCountMissions 2
scalar OsgEarthNet.uav[0] utilizationCountManeuversMission 48
scalar OsgEarthNet.uav[0] utilizationCountManeuversMaintenance 4
scalar OsgEarthNet.uav[0] utilizationCountChargeState 2
scalar OsgEarthNet.uav[0] utilizationCountOverdrawnAfterMission 0
scalar OsgEarthNet.uav[0] utilizationCountIdleState 3
scalar OsgEarthNet.uav[0] utilizationFail 0
scalar OsgEarthNet.uav[0] simulationTime 259200
scalar OsgEarthNet.uav[1] utilizationSecMission 12217.36575993
scalar OsgEarthNet.uav[1] utilizationSecMaintenance 7666.0922802183
scalar OsgEarthNet.uav[1] utilizationSecCharge 73680
scalar OsgEarthNet.uav[1] utilizationSecIdle 165636.54095985
scalar OsgEarthNet.uav[1] utilizationEnergyMission 60423.860919952
scalar OsgEarthNet.uav[1] utilizationEnergyMaintenance 36463.951839447
scalar OsgEarthNet.uav[1] utilizationEnergyCharge 96737.350097656
scalar OsgEarthNet.uav[1] utilizationEnergyOverdrawMission 0
scalar OsgEarthNet.uav[1] utilizationEnergyOverdrawMaintenance 0
scalar OsgEarthNet.uav[1] utilizationCountMissions 21
scalar OsgEarthNet.uav[1] utilizationCountManeuversMission 436
scalar OsgEarthNet.uav[1] utilizationCountManeuversMaintenance 42
scalar OsgEarthNet.uav[1] utilizationCountChargeState 21
scalar OsgEarthNet.uav[1] utilizationCountOverdrawnAfterMission 0
scalar OsgEarthNet.uav[1] utilizationCountIdleState 15
scalar OsgEarthNet.uav[1] utilizationFail 0
scalar OsgEarthNet.uav[1] simulationTime 259200
scalar OsgEarthNet.uav[2] utilizationSecMission 9359.5401618902
scalar OsgEarthNet.uav[2] utilizationSecMaintenance 3987.1449611909
scalar OsgEarthNet.uav[2] utilizationSecCharge 48240
scalar OsgEarthNet.uav[2] utilizationSecIdle 197613.31387692
scalar OsgEarthNet.uav[2] utilizationEnergyMission 45984.069328308
scalar OsgEarthNet.uav[2] utilizationEnergyMaintenance 18332.878990173
scalar OsgEarthNet.uav[2] utilizationEnergyCharge 64744.961914062
scalar OsgEarthNet.uav[2] utilizationEnergyOverdrawMission 0
scalar OsgEarthNet.uav[2] utilizationEnergyOverdrawMaintenance 0
scalar OsgEarthNet.uav[2] utilizationCountMissions 14
scalar OsgEarthNet.uav[2] utilizationCountManeuversMission 292
scalar OsgEarthNet.uav[2] utilizationCountManeuversMaintenance 28
scalar OsgEarthNet.uav[2] utilizationCountChargeState 14
scalar OsgEarthNet.uav[2] utilizationCountOverdrawnAfterMission 0
scalar OsgEarthNet.uav[2] utilizationCountIdleState 10
scalar OsgEarthNet.uav[2] utilizationFail 0
scalar OsgEarthNet.uav[2] simulationTime 259200
scalar OsgEarthNet.uav[3] utilizationSecMission 8062.5996073408
scalar OsgEarthNet.uav[3] utilizationSecMaintenance 5315.6846214223
scalar OsgEarthNet.uav[3] utilizationSecCharge 49450
scalar OsgEarthNet.uav[3] utilizationSecIdle 196371.71477124
scalar OsgEarthNet.uav[3] utilizationEnergyMission 39258.965240478
scalar OsgEarthNet.uav[3] utilizationEnergyMaintenance 25157.624427795
scalar OsgEarthNet.uav[3] utilizationEnergyCharge 63903.734863281
scalar OsgEarthNet.uav[3] utilizationEnergyOverdrawMission 0
scalar OsgEarthNet.uav[3] utilizationEnergyOverdrawMaintenance 0
scalar OsgEarthNet.uav[3] utilizationCountMissions 14
scalar OsgEarthNet.uav[3] utilizationCountManeuversMission 233
scalar OsgEarthNet.uav[3] utilizationCountManeuversMaintenance 28
scalar OsgEarthNet.uav[3] utilizationCountChargeState 14
scalar OsgEarthNet.uav[3] utilizationCountOverdrawnAfterMission 0
scalar OsgEarthNet.uav[3] utilizationCountIdleState 14
scalar OsgEarthNet.uav[3] utilizationFail 0
scalar OsgEarthNet.uav[3] simulationTime 259200
scalar OsgEarthNet.uav[4] utilizationSecMission 24539.92534685
scalar OsgEarthNet.uav[4] utilizationSecMaintenance 10503.740574433
scalar OsgEarthNet.uav[4] utilizationSecCharge 127719.65227083
scalar OsgEarthNet.uav[4] utilizationSecIdle 96436.680807888
scalar OsgEarthNet.uav[4] utilizationEnergyMission 117933.43166733
scalar OsgEarthNet.uav[4] utilizationEnergyMaintenance 48622.620574951
scalar OsgEarthNet.uav[4] utilizationEnergyCharge 165968.51513672
scalar OsgEarthNet.uav[4] utilizationEnergyOverdrawMission 0
scalar OsgEarthNet.uav[4] utilizationEnergyOverdrawMaintenance 0
scalar OsgEarthNet.uav[4] utilizationCountMissions 36
scalar OsgEarthNet.uav[4] utilizationCountManeuversMission 668
scalar OsgEarthNet.uav[4] utilizationCountManeuversMaintenance 72
scalar OsgEarthNet.uav[4] utilizationCountChargeState 36
scalar OsgEarthNet.uav[4] utilizationCountOverdrawnAfterMission 0
scalar OsgEarthNet.uav[4] utilizationCountIdleState 36
scalar OsgEarthNet.uav[4] utilizationFail 0
scalar OsgEarthNet.uav[4] simulationTime 259200
scalar OsgEarthNet.uav[5] utilizationSecMission 27286.482412503
scalar OsgEarthNet.uav[5] utilizationSecMaintenance 10244.101204352
scalar OsgEarthNet.uav[5] utilizationSecCharge 134750.56722335
scalar OsgEarthNet.uav[5] utilizationSecIdle 86918.848159794
scalar OsgEarthNet.uav[5] utilizationEnergyMission 129012.74124527
scalar OsgEarthNet.uav[5] utilizationEnergyMaintenance 47618.733203888
scalar OsgEarthNet.uav[5] utilizationEnergyCharge 176882.80053711
scalar OsgEarthNet.uav[5] utilizationEnergyOverdrawMission 0
scalar OsgEarthNet.uav[5] utilizationEnergyOverdrawMaintenance 0
scalar OsgEarthNet.uav[5] utilizationCountMissions 38
scalar OsgEarthNet.uav[5] utilizationCountManeuversMission 667
scalar OsgEarthNet.uav[5] utilizationCountManeuversMaintenance 76
scalar OsgEarthNet.uav[5] utilizationCountChargeState 38
scalar OsgEarthNet.uav[5] utilizationCountOverdrawnAfterMission 0
scalar OsgEarthNet.uav[5] utilizationCountIdleState 36
scalar OsgEarthNet.uav[5] utilizationFail 0
scalar OsgEarthNet.uav[5] simulationTime 259200
scalar OsgEarthNet.uav[6] utilizationSecMission 21142.864331098
scalar OsgEarthNet.uav[6] utilizationSecMaintenance 9616.4609611833
scalar OsgEarthNet.uav[6] utilizationSecCharge 111930
scalar OsgEarthNet.uav[6] utilizationSecIdle 116510.67370772
scalar OsgEarthNet.uav[6] utilizationEnergyMission 102982.08314514
scalar OsgEarthNet.uav[6] utilizationEnergyMaintenance 44486.782806396
scalar OsgEarthNet.uav[6] utilizationEnergyCharge 146232.73339844
scalar OsgEarthNet.uav[6] utilizationEnergyOverdrawMission 0
scalar OsgEarthNet.uav[6] utilizationEnergyOverdrawMaintenance 0
scalar OsgEarthNet.uav[6] utilizationCountMissions 32
scalar OsgEarthNet.uav[6] utilizationCountManeuversMission 649
scalar OsgEarthNet.uav[6] utilizationCountManeuversMaintenance 63
scalar OsgEarthNet.uav[6] utilizationCountChargeState 32
scalar OsgEarthNet.uav[6] utilizationCountOverdrawnAfterMission 0
scalar OsgEarthNet.uav[6] utilizationCountIdleState 27
scalar OsgEarthNet.uav[6] utilizationFail 0
scalar OsgEarthNet.uav[6] simulationTime 259200
scalar OsgEarthNet.uav[7] utilizationSecMission 6451.6702457142
scalar OsgEarthNet.uav[7] utilizationSecMaintenance 4296.3137542858
scalar OsgEarthNet.uav[7] utilizationSecCharge 38660
scalar OsgEarthNet.uav[7] utilizationSecIdle 209792.015
scalar OsgEarthNet.uav[7] utilizationEnergyMission 30963.819485987
scalar OsgEarthNet.uav[7] utilizationEnergyMaintenance 20131.164310455
scalar OsgEarthNet.uav[7] utilizationEnergyCharge 49724.999511719
scalar OsgEarthNet.uav[7] utilizationEnergyOverdrawMission 0
scalar OsgEarthNet.uav[7] utilizationEnergyOverdrawMaintenance 0
scalar OsgEarthNet.uav[7] utilizationCountMissions 11
scalar OsgEarthNet.uav[7] utilizationCountManeuversMission 189
scalar OsgEarthNet.uav[7] utilizationCountManeuversMaintenance 23
scalar OsgEarthNet.uav[7] utilizationCountChargeState 11
scalar OsgEarthNet.uav[7] utilizationCountOverdrawnAfterMission 0
scalar OsgEarthNet.uav[7] utilizationCountIdleState 12
scalar OsgEarthNet.uav[7] utilizationFail 0
scalar OsgEarthNet.uav[7] simulationTime 259200
scalar OsgEarthNet.uav[8] utilizationSecMission 22776.795014514
scalar OsgEarthNet.uav[8] utilizationSecMaintenance 9700.9473873475
scalar OsgEarthNet.uav[8] utilizationSecCharge 117350
scalar OsgEarthNet.uav[8] utilizationSecIdle 109372.25659814
scalar OsgEarthNet.uav[8] utilizationEnergyMission 110631.12008286
scalar OsgEarthNet.uav[8] utilizationEnergyMaintenance 44443.78470993
scalar OsgEarthNet.uav[8] utilizationEnergyCharge 153535.02783203
scalar OsgEarthNet.uav[8] utilizationEnergyOverdrawMission 0
scalar OsgEarthNet.uav[8] utilizationEnergyOverdrawMaintenance 0
scalar OsgEarthNet.uav[8] utilizationCountMissions 33
scalar OsgEarthNet.uav[8] utilizationCountManeuversMission 691
scalar OsgEarthNet.uav[8] utilizationCountManeuversMaintenance 66
scalar OsgEarthNet.uav[8] utilizationCountChargeState 33
scalar OsgEarthNet.uav[8] utilizationCountOverdrawnAfterMission 0
scalar OsgEarthNet.uav[8] utilizationCountIdleState 30
scalar OsgEarthNet.uav[8] utilizationFail 0
scalar OsgEarthNet.uav[8] simulationTime 259200
scalar OsgEarthNet.uav[9] utilizationSecMission 7825.0012206423
scalar OsgEarthNet.uav[9] utilizationSecMaintenance 3509.6498058455
scalar OsgEarthNet.uav[9] utilizationSecCharge 40933.342973512
scalar OsgEarthNet.uav[9] utilizationSecIdle 206932.005
scalar OsgEarthNet.uav[9] utilizationEnergyMission 36354.174980164
scalar OsgEarthNet.uav[9] utilizationEnergyMaintenance 16947.013809204
scalar OsgEarthNet.uav[9] utilizationEnergyCharge 53735.174560547
scalar OsgEarthNet.uav[9] utilizationEnergyOverdrawMission 0
scalar OsgEarthNet.uav[9] utilizationEnergyOverdrawMaintenance 0
scalar OsgEarthNet.uav[9] utilizationCountMissions 12
scalar OsgEarthNet.uav[9] utilizationCountManeuversMission 183
scalar OsgEarthNet.uav[9] utilizationCountManeuversMaintenance 24
scalar OsgEarthNet.uav[9] utilizationCountChargeState 12
scalar OsgEarthNet.uav[9] utilizationCountOverdrawnAfterMission 0
scalar OsgEarthNet.uav[9] utilizationCountIdleState 12
scalar OsgEarthNet.uav[9] utilizationFail 0
scalar OsgEarthNet.uav[9] simulationTime 259200
scalar OsgEarthNet.uav[10] utilizationSecMission 9041.0121471558
scalar OsgEarthNet.uav[10] utilizationSecMaintenance 5341.6891996282
scalar OsgEarthNet.uav[10] utilizationSecCharge 53400
scalar OsgEarthNet.uav[10] utilizationSecIdle 191417.29765322
scalar OsgEarthNet.uav[10] utilizationEnergyMission 43838.727855682
scalar OsgEarthNet.uav[10] utilizationEnergyMaintenance 25614.13873291
scalar OsgEarthNet.uav[10] utilizationEnergyCharge 68944.486816406
scalar OsgEarthNet.uav[10] utilizationEnergyOverdrawMission 0
scalar OsgEarthNet.uav[10] utilizationEnergyOverdrawMaintenance 0
scalar OsgEarthNet.uav[10] utilizationCountMissions 15
scalar OsgEarthNet.uav[10] utilizationCountManeuversMission 261
scalar OsgEarthNet.uav[10] utilizationCountManeuversMaintenance 30
scalar OsgEarthNet.uav[10] utilizationCountChargeState 15
scalar OsgEarthNet.uav[10] utilizationCountOverdrawnAfterMission 0
scalar OsgEarthNet.uav[10] utilizationCountIdleState 16
scalar OsgEarthNet.uav[10] utilizationFail 0
scalar OsgEarthNet.uav[10] simulationTime 259200
scalar OsgEarthNet.uav[11] utilizationSecMission 17626.431863225
scalar OsgEarthNet.uav[11] utilizationSecMaintenance 7878.359731342
scalar OsgEarthNet.uav[11] utilizationSecCharge 91123.200405433
scalar OsgEarthNet.uav[11] utilizationSecIdle 142572.007
scalar OsgEarthNet.uav[11] utilizationEnergyMission 82642.054821014
scalar OsgEarthNet.uav[11] utilizationEnergyMaintenance 36582.43535614
scalar OsgEarthNet.uav[11] utilizationEnergyCharge 118611.11230469
scalar OsgEarthNet.uav[11] utilizationEnergyOverdrawMission 0
scalar OsgEarthNet.uav[11] utilizationEnergyOverdrawMaintenance 0
scalar OsgEarthNet.uav[11] utilizationCountMissions 26
scalar OsgEarthNet.uav[11] utilizationCountManeuversMission 503
scalar OsgEarthNet.uav[11] utilizationCountManeuversMaintenance 52
scalar OsgEarthNet.uav[11] utilizationCountChargeState 26
scalar OsgEarthNet.uav[11] utilizationCountOverdrawnAfterMission 0
scalar OsgEarthNet.uav[11] utilizationCountIdleState 26
scalar OsgEarthNet.uav[11] utilizationFail 0
scalar OsgEarthNet.uav[11] simulationTime 259200
scalar OsgEarthNet.uav[12] utilizationSecMission 10672.582248726
scalar OsgEarthNet.uav[12] utilizationSecMaintenance 7197.1713259212
scalar OsgEarthNet.uav[12] utilizationSecCharge 63626.869583514
scalar OsgEarthNet.uav[12] utilizationSecIdle 177703.37584184
scalar OsgEarthNet.uav[12] utilizationEnergyMission 52341.996250153
scalar OsgEarthNet.uav[12] utilizationEnergyMaintenance 33712.774703979
scalar OsgEarthNet.uav[12] utilizationEnergyCharge 81745.679260254
scalar OsgEarthNet.uav[12] utilizationEnergyOverdrawMission 0
scalar OsgEarthNet.uav[12] utilizationEnergyOverdrawMaintenance 0
scalar OsgEarthNet.uav[12] utilizationCountMissions 19
scalar OsgEarthNet.uav[12] utilizationCountManeuversMission 344
scalar OsgEarthNet.uav[12] utilizationCountManeuversMaintenance 38
scalar OsgEarthNet.uav[12] utilizationCountChargeState 19
scalar OsgEarthNet.uav[12] utilizationCountOverdrawnAfterMission 0
scalar OsgEarthNet.uav[12] utilizationCountIdleState 19
scalar OsgEarthNet.uav[12] utilizationFail 0
scalar OsgEarthNet.uav[12] simulationTime 259200
scalar OsgEarthNet.uav[13] utilizationSecMission 10983.750915482
scalar OsgEarthNet.uav[13] utilizationSecMaintenance 7684.9619760385
scalar OsgEarthNet.uav[13] utilizationSecCharge 70360
scalar OsgEarthNet.uav[13] utilizationSecIdle 170171.28610848
scalar OsgEarthNet.uav[13] utilizationEnergyMission 53995.210773468
scalar OsgEarthNet.uav[13] utilizationEnergyMaintenance 36333.167434692
scalar OsgEarthNet.uav[13] utilizationEnergyCharge 90385.153808594
scalar OsgEarthNet.uav[13] utilizationEnergyOverdrawMission 0
scalar OsgEarthNet.uav[13] utilizationEnergyOverdrawMaintenance 0
scalar OsgEarthNet.uav[13] utilizationCountMissions 20
scalar OsgEarthNet.uav[13] utilizationCountManeuversMission 393
scalar OsgEarthNet.uav[13] utilizationCountManeuversMaintenance 40
scalar OsgEarthNet.uav[13] utilizationCountChargeState 20
scalar OsgEarthNet.uav[13] utilizationCountOverdrawnAfterMission 0
scalar OsgEarthNet.uav[13] utilizationCountIdleState 21
scalar OsgEarthNet.uav[13] utilizationFail 0
scalar OsgEarthNet.uav[13] simulationTime 259200
scalar OsgEarthNet.uav[14] utilizationSecMission 20955.350929074
scalar OsgEarthNet.uav[14] utilizationSecMaintenance 11464.452686993
scalar OsgEarthNet.uav[14] utilizationSecCharge 120750
scalar OsgEarthNet.uav[14] utilizationSecIdle 106030.19538393
scalar OsgEarthNet.uav[14] utilizationEnergyMission 100321.04428864
scalar OsgEarthNet.uav[14] utilizationEnergyMaintenance 54144.670719147
scalar OsgEarthNet.uav[14] utilizationEnergyCharge 156215.41601562
scalar OsgEarthNet.uav[14] utilizationEnergyOverdrawMission 0
scalar OsgEarthNet.uav[14] utilizationEnergyOverdrawMaintenance 0
scalar OsgEarthNet.uav[14] utilizationCountMissions 34
scalar OsgEarthNet.uav[14] utilizationCountManeuversMission 628
scalar OsgEarthNet.uav[14] utilizationCountManeuversMaintenance 68
scalar OsgEarthNet.uav[14] utilizationCountChargeState 34
scalar OsgEarthNet.uav[14] utilizationCountOverdrawnAfterMission 0
scalar OsgEarthNet.uav[14] utilizationCountIdleState 34
scalar OsgEarthNet.uav[14] utilizationFail 0
scalar OsgEarthNet.uav[14] simulationTime 259200
scalar OsgEarthNet.uav[15] utilizationSecMission 24870.184259898
scalar OsgEarthNet.uav[15] utilizationSecMaintenance 13777.813740102
scalar OsgEarthNet.uav[15] utilizationSecCharge 140810
scalar OsgEarthNet.uav[15] utilizationSecIdle 79742.001
scalar OsgEarthNet.uav[15] utilizationEnergyMission 121288.76214759
scalar OsgEarthNet.uav[15] utilizationEnergyMaintenance 64810.363761902
scalar OsgEarthNet.uav[15] utilizationEnergyCharge 183390.40283203
scalar OsgEarthNet.uav[15] utilizationEnergyOverdrawMission 0
scalar OsgEarthNet.uav[15] utilizationEnergyOverdrawMaintenance 0
scalar OsgEarthNet.uav[15] utilizationCountMissions 40
scalar OsgEarthNet.uav[15] utilizationCountManeuversMission 872
scalar OsgEarthNet.uav[15] utilizationCountManeuversMaintenance 81
scalar OsgEarthNet.uav[15] utilizationCountChargeState 40
scalar OsgEarthNet.uav[15] utilizationCountOverdrawnAfterMission 0
scalar OsgEarthNet.uav[15] utilizationCountIdleState 37
scalar OsgEarthNet.uav[15] utilizationFail 0
scalar OsgEarthNet.uav[15] simulationTime 259200
scalar OsgEarthNet.uav[16] utilizationSecMission 10063.750915482
scalar OsgEarthNet.uav[16] utilizationSecMaintenance 6625.3951989435
scalar OsgEarthNet.uav[16] utilizationSecCharge 60825.581296279
scalar OsgEarthNet.uav[16] utilizationSecIdle 181685.2715893
scalar OsgEarthNet.uav[16] utilizationEnergyMission 48922.519382477
scalar OsgEarthNet.uav[16] utilizationEnergyMaintenance 31576.716983795
scalar OsgEarthNet.uav[16] utilizationEnergyCharge 78690.896972656
scalar OsgEarthNet.uav[16] utilizationEnergyOverdrawMission 0
scalar OsgEarthNet.uav[16] utilizationEnergyOverdrawMaintenance 0
scalar OsgEarthNet.uav[16] utilizationCountMissions 18
scalar OsgEarthNet.uav[16] utilizationCountManeuversMission 347
scalar OsgEarthNet.uav[16] utilizationCountManeuversMaintenance 36
scalar OsgEarthNet.uav[16] utilizationCountChargeState 18
scalar OsgEarthNet.uav[16] utilizationCountOverdrawnAfterMission 0
scalar OsgEarthNet.uav[16] utilizationCountIdleState 18
scalar OsgEarthNet.uav[16] utilizationFail 0
scalar OsgEarthNet.uav[16] simulationTime 259200
scalar OsgEarthNet.uav[17] utilizationSecMission 19887.719784285
scalar OsgEarthNet.uav[17] utilizationSecMaintenance 11053.663818095
scalar OsgEarthNet.uav[17] utilizationSecCharge 113381.30031141
scalar OsgEarthNet.uav[17] utilizationSecIdle 114877.31508621
scalar OsgEarthNet.uav[17] utilizationEnergyMission 95405.614002228
scalar OsgEarthNet.uav[17] utilizationEnergyMaintenance 51690.546977997
scalar OsgEarthNet.uav[17] utilizationEnergyCharge 147245.50927734
scalar OsgEarthNet.uav[17] utilizationEnergyOverdrawMission 0
scalar OsgEarthNet.uav[17] utilizationEnergyOverdrawMaintenance 0
scalar OsgEarthNet.uav[17] utilizationCountMissions 32
scalar OsgEarthNet.uav[17] utilizationCountManeuversMission 610
scalar OsgEarthNet.uav[17] utilizationCountManeuversMaintenance 64
scalar OsgEarthNet.uav[17] utilizationCountChargeState 32
scalar OsgEarthNet.uav[17] utilizationCountOverdrawnAfterMission 0
scalar OsgEarthNet.uav[17] utilizationCountIdleState 31
scalar OsgEarthNet.uav[17] utilizationFail 0
scalar OsgEarthNet.uav[17] simulationTime 259200
scalar OsgEarthNet.uav[18] utilizationSecMission 26899.608528171
scalar OsgEarthNet.uav[18] utilizationSecMaintenance 13168.534410998
scalar OsgEarthNet.uav[18] utilizationSecCharge 144446.40040743
scalar OsgEarthNet.uav[18] utilizationSecIdle 74685.455653403
scalar OsgEarthNet.uav[18] utilizationEnergyMission 128969.15172577
scalar OsgEarthNet.uav[18] utilizationEnergyMaintenance 61218.543334961
scalar OsgEarthNet.uav[18] utilizationEnergyCharge 190172.19042969
scalar OsgEarthNet.uav[18] utilizationEnergyOverdrawMission 0
scalar OsgEarthNet.uav[18] utilizationEnergyOverdrawMaintenance 0
scalar OsgEarthNet.uav[18] utilizationCountMissions 41
scalar OsgEarthNet.uav[18] utilizationCountManeuversMission 759
scalar OsgEarthNet.uav[18] utilizationCountManeuversMaintenance 82
scalar OsgEarthNet.uav[18] utilizationCountChargeState 41
scalar OsgEarthNet.uav[18] utilizationCountOverdrawnAfterMission 0
scalar OsgEarthNet.uav[18] utilizationCountIdleState 33
scalar OsgEarthNet.uav[18] utilizationFail 0
scalar OsgEarthNet.uav[18] simulationTime 259200
scalar OsgEarthNet.uav[19] utilizationSecMission 12330.674750719
scalar OsgEarthNet.uav[19] utilizationSecMaintenance 6384.8779855416
scalar OsgEarthNet.uav[19] utilizationSecCharge 67320
scalar OsgEarthNet.uav[19] utilizationSecIdle 173164.44626374
scalar OsgEarthNet.uav[19] utilizationEnergyMission 57949.744606018
scalar OsgEarthNet.uav[19] utilizationEnergyMaintenance 29245.538894653
scalar OsgEarthNet.uav[19] utilizationEnergyCharge 86889.499023438
scalar OsgEarthNet.uav[19] utilizationEnergyOverdrawMission 0
scalar OsgEarthNet.uav[19] utilizationEnergyOverdrawMaintenance 0
scalar OsgEarthNet.uav[19] utilizationCountMissions 19
scalar OsgEarthNet.uav[19] utilizationCountManeuversMission 309
scalar OsgEarthNet.uav[19] utilizationCountManeuversMaintenance 38
scalar OsgEarthNet.uav[19] utilizationCountChargeState 19
scalar OsgEarthNet.uav[19] utilizationCountOverdrawnAfterMission 0
scalar OsgEarthNet.uav[19] utilizationCountIdleState 19
scalar OsgEarthNet.uav[19] utilizationFail 0
scalar OsgEarthNet.uav[19] simulationTime 259200
scalar OsgEarthNet.uav[20] utilizationSecMission 11950.693819392
scalar OsgEarthNet.uav[20] utilizationSecMaintenance 8113.7991234877
scalar OsgEarthNet.uav[20] utilizationSecCharge 73773.48505712
scalar OsgEarthNet.uav[20] utilizationSecIdle 165362.021
scalar OsgEarthNet.uav[20] utilizationEnergyMission 57485.976135254
scalar OsgEarthNet.uav[20] utilizationEnergyMaintenance 38882.171627045
scalar OsgEarthNet.uav[20] utilizationEnergyCharge 96327.568359375
scalar OsgEarthNet.uav[20] utilizationEnergyOverdrawMission 0
scalar OsgEarthNet.uav[20] utilizationEnergyOverdrawMaintenance 0
scalar OsgEarthNet.uav[20] utilizationCountMissions 21
scalar OsgEarthNet.uav[20] utilizationCountManeuversMission 399
scalar OsgEarthNet.uav[20] utilizationCountManeuversMaintenance 42
scalar OsgEarthNet.uav[20] utilizationCountChargeState 21
scalar OsgEarthNet.uav[20] utilizationCountOverdrawnAfterMission 0
scalar OsgEarthNet.uav[20] utilizationCountIdleState 18
scalar OsgEarthNet.uav[20] utilizationFail 0
scalar OsgEarthNet.uav[20] simulationTime 259200
scalar OsgEarthNet.uav[21] utilizationSecMission 22826.398631714
scalar OsgEarthNet.uav[21] utilizationSecMaintenance 11015.635769818
scalar OsgEarthNet.uav[21] utilizationSecCharge 124688.58059388
scalar OsgEarthNet.uav[21] utilizationSecIdle 100669.38400459
scalar OsgEarthNet.uav[21] utilizationEnergyMission 108851.31809616
scalar OsgEarthNet.uav[21] utilizationEnergyMaintenance 51726.752765656
scalar OsgEarthNet.uav[21] utilizationEnergyCharge 162032.76611328
scalar OsgEarthNet.uav[21] utilizationEnergyOverdrawMission 0
scalar OsgEarthNet.uav[21] utilizationEnergyOverdrawMaintenance 0
scalar OsgEarthNet.uav[21] utilizationCountMissions 35
scalar OsgEarthNet.uav[21] utilizationCountManeuversMission 655
scalar OsgEarthNet.uav[21] utilizationCountManeuversMaintenance 70
scalar OsgEarthNet.uav[21] utilizationCountChargeState 35
scalar OsgEarthNet.uav[21] utilizationCountOverdrawnAfterMission 0
scalar OsgEarthNet.uav[21] utilizationCountIdleState 35
scalar OsgEarthNet.uav[21] utilizationFail 0
scalar OsgEarthNet.uav[21] simulationTime 259200
scalar OsgEarthNet.uav[22] utilizationSecMission 27691.079629785
scalar OsgEarthNet.uav[22] utilizationSecMaintenance 12162.965550369
scalar OsgEarthNet.uav[22] utilizationSecCharge 143856.77870944
scalar OsgEarthNet.uav[22] utilizationSecIdle 75489.175110411
scalar OsgEarthNet.uav[22] utilizationEnergyMission 135198.46574402
scalar OsgEarthNet.uav[22] utilizationEnergyMaintenance 55514.041851044
scalar OsgEarthNet.uav[22] utilizationEnergyCharge 188503.06005859
scalar OsgEarthNet.uav[22] utilizationEnergyOverdrawMission 0
scalar OsgEarthNet.uav[22] utilizationEnergyOverdrawMaintenance 0
scalar OsgEarthNet.uav[22] utilizationCountMissions 41
scalar OsgEarthNet.uav[22] utilizationCountManeuversMission 821
scalar OsgEarthNet.uav[22] utilizationCountManeuversMaintenance 82
scalar OsgEarthNet.uav[22] utilizationCountChargeState 41
scalar OsgEarthNet.uav[22] utilizationCountOverdrawnAfterMission 0
scalar OsgEarthNet.uav[22] utilizationCountIdleState 38
scalar OsgEarthNet.uav[22] utilizationFail 0
scalar OsgEarthNet.uav[22] simulationTime 259200
scalar OsgEarthNet.uav[23] utilizationSecMission 12594.303912247
scalar OsgEarthNet.uav[23] utilizationSecMaintenance 9102.903266227
scalar OsgEarthNet.uav[23] utilizationSecCharge 79330.778821526
scalar OsgEarthNet.uav[23] utilizationSecIdle 158172.013
scalar OsgEarthNet.uav[23] utilizationEnergyMission 62314.871086121
scalar OsgEarthNet.uav[23] utilizationEnergyMaintenance 43396.289356232
scalar OsgEarthNet.uav[23] utilizationEnergyCharge 104862.32470703
scalar OsgEarthNet.uav[23] utilizationEnergyOverdrawMission 0
scalar OsgEarthNet.uav[23] utilizationEnergyOverdrawMaintenance 0
scalar OsgEarthNet.uav[23] utilizationCountMissions 23
scalar OsgEarthNet.uav[23] utilizationCountManeuversMission 484
scalar OsgEarthNet.uav[23] utilizationCountManeuversMaintenance 46
scalar OsgEarthNet.uav[23] utilizationCountChargeState 23
scalar OsgEarthNet.uav[23] utilizationCountOverdrawnAfterMission 0
scalar OsgEarthNet.uav[23] utilizationCountIdleState 14
scalar OsgEarthNet.uav[23] utilizationFail 0
scalar OsgEarthNet.uav[23] simulationTime 259200
scalar OsgEarthNet.uav[24] utilizationSecMission 24770.961517562
scalar OsgEarthNet.uav[24] utilizationSecMaintenance 16815.729286663
scalar OsgEarthNet.uav[24] utilizationSecCharge 151510
scalar OsgEarthNet.uav[24] utilizationSecIdle 66103.308195775
scalar OsgEarthNet.uav[24] utilizationEnergyMission 121373.58292007
scalar OsgEarthNet.uav[24] utilizationEnergyMaintenance 79902.266389373
scalar OsgEarthNet.uav[24] utilizationEnergyCharge 197101.11328125
scalar OsgEarthNet.uav[24] utilizationEnergyOverdrawMission 0
scalar OsgEarthNet.uav[24] utilizationEnergyOverdrawMaintenance 0
scalar OsgEarthNet.uav[24] utilizationCountMissions 44
scalar OsgEarthNet.uav[24] utilizationCountManeuversMission 868
scalar OsgEarthNet.uav[24] utilizationCountManeuversMaintenance 88
scalar OsgEarthNet.uav[24] utilizationCountChargeState 43
scalar OsgEarthNet.uav[24] utilizationCountOverdrawnAfterMission 0
scalar OsgEarthNet.uav[24] utilizationCountIdleState 39
scalar OsgEarthNet.uav[24] utilizationFail 0
scalar OsgEarthNet.uav[24] simulationTime 259200
scalar OsgEarthNet.uav[25] utilizationSecMission 27460.145397438
scalar OsgEarthNet.uav[25] utilizationSecMaintenance 12932.29528204
scalar OsgEarthNet.uav[25] utilizationSecCharge 147470
scalar OsgEarthNet.uav[25] utilizationSecIdle 71337.558320522
scalar OsgEarthNet.uav[25] utilizationEnergyMission 134050.88384247
scalar OsgEarthNet.uav[25] utilizationEnergyMaintenance 59741.110588074
scalar OsgEarthNet.uav[25] utilizationEnergyCharge 191856.62060547
scalar OsgEarthNet.uav[25] utilizationEnergyOverdrawMission 0
scalar OsgEarthNet.uav[25] utilizationEnergyOverdrawMaintenance 0
scalar OsgEarthNet.uav[25] utilizationCountMissions 42
scalar OsgEarthNet.uav[25] utilizationCountManeuversMission 946
scalar OsgEarthNet.uav[25] utilizationCountManeuversMaintenance 84
scalar OsgEarthNet.uav[25] utilizationCountChargeState 42
scalar OsgEarthNet.uav[25] utilizationCountOverdrawnAfterMission 0
scalar OsgEarthNet.uav[25] utilizationCountIdleState 39
scalar OsgEarthNet.uav[25] utilizationFail 0
scalar OsgEarthNet.uav[25] simulationTime 259200
scalar OsgEarthNet.uav[26] utilizationSecMission 18876.200985655
scalar OsgEarthNet.uav[26] utilizationSecMaintenance 14651.797014345
scalar OsgEarthNet.uav[26] utilizationSecCharge 123690
scalar OsgEarthNet.uav[26] utilizationSecIdle 101982.001
scalar OsgEarthNet.uav[26] utilizationEnergyMission 94017.653911591
scalar OsgEarthNet.uav[26] utilizationEnergyMaintenance 69397.727679247
scalar OsgEarthNet.uav[26] utilizationEnergyCharge 159314.08984375
scalar OsgEarthNet.uav[26] utilizationEnergyOverdrawMission 0
scalar OsgEarthNet.uav[26] utilizationEnergyOverdrawMaintenance 0
scalar OsgEarthNet.uav[26] utilizationCountMissions 36
scalar OsgEarthNet.uav[26] utilizationCountManeuversMission 744
scalar OsgEarthNet.uav[26] utilizationCountManeuversMaintenance 72
scalar OsgEarthNet.uav[26] utilizationCountChargeState 35
scalar OsgEarthNet.uav[26] utilizationCountOverdrawnAfterMission 0
scalar OsgEarthNet.uav[26] utilizationCountIdleState 36
scalar OsgEarthNet.uav[26] utilizationFail 0
scalar OsgEarthNet.uav[26] simulationTime 259200
scalar OsgEarthNet.uav[27] utilizationSecMission 21491.089177753
scalar OsgEarthNet.uav[27] utilizationSecMaintenance 10296.477641672
scalar OsgEarthNet.uav[27] utilizationSecCharge 117960
scalar OsgEarthNet.uav[27] utilizationSecIdle 109452.43218057
scalar OsgEarthNet.uav[27] utilizationEnergyMission 104986.69517517
scalar OsgEarthNet.uav[27] utilizationEnergyMaintenance 48121.413280487
scalar OsgEarthNet.uav[27] utilizationEnergyCharge 152364.05761719
scalar OsgEarthNet.uav[27] utilizationEnergyOverdrawMission 0
scalar OsgEarthNet.uav[27] utilizationEnergyOverdrawMaintenance 0
scalar OsgEarthNet.uav[27] utilizationCountMissions 33
scalar OsgEarthNet.uav[27] utilizationCountManeuversMission 692
scalar OsgEarthNet.uav[27] utilizationCountManeuversMaintenance 66
scalar OsgEarthNet.uav[27] utilizationCountChargeState 33
scalar OsgEarthNet.uav[27] utilizationCountOverdrawnAfterMission 0
scalar OsgEarthNet.uav[27] utilizationCountIdleState 34
scalar OsgEarthNet.uav[27] utilizationFail 0
scalar OsgEarthNet.uav[27] simulationTime 259200
scalar OsgEarthNet.uav[28] utilizationSecMission 27872.931771722
scalar OsgEarthNet.uav[28] utilizationSecMaintenance 11675.394176692
scalar OsgEarthNet.uav[28] utilizationSecCharge 141900
scalar OsgEarthNet.uav[28] utilizationSecIdle 77751.673051586
scalar OsgEarthNet.uav[28] utilizationEnergyMission 134060.36035444
scalar OsgEarthNet.uav[28] utilizationEnergyMaintenance 53984.236644745
scalar OsgEarthNet.uav[28] utilizationEnergyCharge 185500.06542969
scalar OsgEarthNet.uav[28] utilizationEnergyOverdrawMission 0
scalar OsgEarthNet.uav[28] utilizationEnergyOverdrawMaintenance 0
scalar OsgEarthNet.uav[28] utilizationCountMissions 40
scalar OsgEarthNet.uav[28] utilizationCountManeuversMission 786
scalar OsgEarthNet.uav[28] utilizationCountManeuversMaintenance 81
scalar OsgEarthNet.uav[28] utilizationCountChargeState 40
scalar OsgEarthNet.uav[28] utilizationCountOverdrawnAfterMission 0
scalar OsgEarthNet.uav[28] utilizationCountIdleState 37
scalar OsgEarthNet.uav[28] utilizationFail 0
scalar OsgEarthNet.uav[28] simulationTime 259200
scalar OsgEarthNet.uav[29] utilizationSecMission 15138.809486897
scalar OsgEarthNet.uav[29] utilizationSecMaintenance 9959.1665131026
scalar OsgEarthNet.uav[29] utilizationSecCharge 92000
scalar OsgEarthNet.uav[29] utilizationSecIdle 142102.023
scalar OsgEarthNet.uav[29] utilizationEnergyMission 73781.60954439
scalar OsgEarthNet.uav[29] utilizationEnergyMaintenance 46988.187156677
scalar OsgEarthNet.uav[29] utilizationEnergyCharge 120346.79931641
scalar OsgEarthNet.uav[29] utilizationEnergyOverdrawMission 0
scalar OsgEarthNet.uav[29] utilizationEnergyOverdrawMaintenance 0
scalar OsgEarthNet.uav[29] utilizationCountMissions 26
scalar OsgEarthNet.uav[29] utilizationCountManeuversMission 522
scalar OsgEarthNet.uav[29] utilizationCountManeuversMaintenance 53
scalar OsgEarthNet.uav[29] utilizationCountChargeState 26
scalar OsgEarthNet.uav[29] utilizationCountOverdrawnAfterMission 0
scalar OsgEarthNet.uav[29] utilizationCountIdleState 21
scalar OsgEarthNet.uav[29] utilizationFail 0
scalar OsgEarthNet.uav[29] simulationTime 259200
scalar OsgEarthNet.uav[30] utilizationSecMission 19750.192600287
scalar OsgEarthNet.uav[30] utilizationSecMaintenance 11490.459834698
scalar OsgEarthNet.uav[30] utilizationSecCharge 115970
scalar OsgEarthNet.uav[30] utilizationSecIdle 111989.34656502
scalar OsgEarthNet.uav[30] utilizationEnergyMission 96690.884353638
scalar OsgEarthNet.uav[30] utilizationEnergyMaintenance 54451.037334442
scalar OsgEarthNet.uav[30] utilizationEnergyCharge 151967.81298828
scalar OsgEarthNet.uav[30] utilizationEnergyOverdrawMission 0
scalar OsgEarthNet.uav[30] utilizationEnergyOverdrawMaintenance 0
scalar OsgEarthNet.uav[30] utilizationCountMissions 33
scalar OsgEarthNet.uav[30] utilizationCountManeuversMission 639
scalar OsgEarthNet.uav[30] utilizationCountManeuversMaintenance 66
scalar OsgEarthNet.uav[30] utilizationCountChargeState 33
scalar OsgEarthNet.uav[30] utilizationCountOverdrawnAfterMission 0
scalar OsgEarthNet.uav[30] utilizationCountIdleState 26
scalar OsgEarthNet.uav[30] utilizationFail 0
scalar OsgEarthNet.uav[30] simulationTime 259200
scalar OsgEarthNet.uav[31] utilizationSecMission 23204.896234055
scalar OsgEarthNet.uav[31] utilizationSecMaintenance 13932.215380998
scalar OsgEarthNet.uav[31] utilizationSecCharge 138020
scalar OsgEarthNet.uav[31] utilizationSecIdle 84042.887384947
scalar OsgEarthNet.uav[31] utilizationEnergyMission 114421.69595718
scalar OsgEarthNet.uav[31] utilizationEnergyMaintenance 66163.006000519
scalar OsgEarthNet.uav[31] utilizationEnergyCharge 179909.65087891
scalar OsgEarthNet.uav[31] utilizationEnergyOverdrawMission 0
scalar OsgEarthNet.uav[31] utilizationEnergyOverdrawMaintenance 0
scalar OsgEarthNet.uav[31] utilizationCountMissions 39
scalar OsgEarthNet.uav[31] utilizationCountManeuversMission 773
scalar OsgEarthNet.uav[31] utilizationCountManeuversMaintenance 78
scalar OsgEarthNet.uav[31] utilizationCountChargeState 39
scalar OsgEarthNet.uav[31] utilizationCountOverdrawnAfterMission 0
scalar OsgEarthNet.uav[31] utilizationCountIdleState 36
scalar OsgEarthNet.uav[31] utilizationFail 0
scalar OsgEarthNet.uav[31] simulationTime 259200
scalar OsgEarthNet.uav[32] utilizationSecMission 25968.014481369
scalar OsgEarthNet.uav[32] utilizationSecMaintenance 11388.645300689
scalar OsgEarthNet.uav[32] utilizationSecCharge 135550
scalar OsgEarthNet.uav[32] utilizationSecIdle 86293.339217942
scalar OsgEarthNet.uav[32] utilizationEnergyMission 123623.59633636
scalar OsgEarthNet.uav[32] utilizationEnergyMaintenance 52635.344612122
scalar OsgEarthNet.uav[32] utilizationEnergyCharge 176334.05371094
scalar OsgEarthNet.uav[32] utilizationEnergyOverdrawMission 0
scalar OsgEarthNet.uav[32] utilizationEnergyOverdrawMaintenance 0
scalar OsgEarthNet.uav[32] utilizationCountMissions 38
scalar OsgEarthNet.uav[32] utilizationCountManeuversMission 675
scalar OsgEarthNet.uav[32] utilizationCountManeuversMaintenance 76
scalar OsgEarthNet.uav[32] utilizationCountChargeState 38
scalar OsgEarthNet.uav[32] utilizationCountOverdrawnAfterMission 0
scalar OsgEarthNet.uav[32] utilizationCountIdleState 36
scalar OsgEarthNet.uav[32] utilizationFail 0
scalar OsgEarthNet.uav[32] simulationTime 259200
scalar OsgEarthNet.uav[33] utilizationSecMission 17600.479975295
scalar OsgEarthNet.uav[33] utilizationSecMaintenance 14077.73581278
scalar OsgEarthNet.uav[33] utilizationSecCharge 116369.77921192
scalar OsgEarthNet.uav[33] utilizationSecIdle 111152.004
scalar OsgEarthNet.uav[33] utilizationEnergyMission 85803.962451935
scalar OsgEarthNet.uav[33] utilizationEnergyMaintenance 66953.760368347
scalar OsgEarthNet.uav[33] utilizationEnergyCharge 151207.61743164
scalar OsgEarthNet.uav[33] utilizationEnergyOverdrawMission 0
scalar OsgEarthNet.uav[33] utilizationEnergyOverdrawMaintenance 0
scalar OsgEarthNet.uav[33] utilizationCountMissions 34
scalar OsgEarthNet.uav[33] utilizationCountManeuversMission 681
scalar OsgEarthNet.uav[33] utilizationCountManeuversMaintenance 68
scalar OsgEarthNet.uav[33] utilizationCountChargeState 34
scalar OsgEarthNet.uav[33] utilizationCountOverdrawnAfterMission 0
scalar OsgEarthNet.uav[33] utilizationCountIdleState 30
scalar OsgEarthNet.uav[33] utilizationFail 0
scalar OsgEarthNet.uav[33] simulationTime 259200
scalar OsgEarthNet.uav[34] utilizationSecMission 22724.344022947
scalar OsgEarthNet.uav[34] utilizationSecMaintenance 13359.922761436
scalar OsgEarthNet.uav[34] utilizationSecCharge 130493.71921562
scalar OsgEarthNet.uav[34] utilizationSecIdle 92622.013
scalar OsgEarthNet.uav[34] utilizationEnergyMission 109349.677742
scalar OsgEarthNet.uav[34] utilizationEnergyMaintenance 63562.06867218
scalar OsgEarthNet.uav[34] utilizationEnergyCharge 168961.57696533
scalar OsgEarthNet.uav[34] utilizationEnergyOverdrawMission 0
scalar OsgEarthNet.uav[34] utilizationEnergyOverdrawMaintenance 0
scalar OsgEarthNet.uav[34] utilizationCountMissions 38
scalar OsgEarthNet.uav[34] utilizationCountManeuversMission 670
scalar OsgEarthNet.uav[34] utilizationCountManeuversMaintenance 76
scalar OsgEarthNet.uav[34] utilizationCountChargeState 38
scalar OsgEarthNet.uav[34] utilizationCountOverdrawnAfterMission 0
scalar OsgEarthNet.uav[34] utilizationCountIdleState 34
scalar OsgEarthNet.uav[34] utilizationFail 0
scalar OsgEarthNet.uav[34] simulationTime 259200
scalar OsgEarthNet.uav[35] utilizationSecMission 26366.087818763
scalar OsgEarthNet.uav[35] utilizationSecMaintenance 11403.868633822
scalar OsgEarthNet.uav[35] utilizationSecCharge 138930
scalar OsgEarthNet.uav[35] utilizationSecIdle 82500.042547415
scalar OsgEarthNet.uav[35] utilizationEnergyMission 130666.82664871
scalar OsgEarthNet.uav[35] utilizationEnergyMaintenance 52099.81049941
scalar OsgEarthNet.uav[35] utilizationEnergyCharge 181487.72558594
scalar OsgEarthNet.uav[35] utilizationEnergyOverdrawMission 0
scalar OsgEarthNet.uav[35] utilizationEnergyOverdrawMaintenance 0
scalar OsgEarthNet.uav[35] utilizationCountMissions 39
scalar OsgEarthNet.uav[35] utilizationCountManeuversMission 897
scalar OsgEarthNet.uav[35] utilizationCountManeuversMaintenance 79
scalar OsgEarthNet.uav[35] utilizationCountChargeState 39
scalar OsgEarthNet.uav[35] utilizationCountOverdrawnAfterMission 0
scalar OsgEarthNet.uav[35] utilizationCountIdleState 36
scalar OsgEarthNet.uav[35] utilizationFail 0
scalar OsgEarthNet.uav[35] simulationTime 259200
scalar OsgEarthNet.uav[36] utilizationSecMission 15016.302997851
scalar OsgEarthNet.uav[36] utilizationSecMaintenance 10507.976205055
scalar OsgEarthNet.uav[36] utilizationSecCharge 93873.709797094
scalar OsgEarthNet.uav[36] utilizationSecIdle 139802.01
scalar OsgEarthNet.uav[36] utilizationEnergyMission 72868.08644104
scalar OsgEarthNet.uav[36] utilizationEnergyMaintenance 49741.806430817
scalar OsgEarthNet.uav[36] utilizationEnergyCharge 121701.32055664
scalar OsgEarthNet.uav[36] utilizationEnergyOverdrawMission 0
scalar OsgEarthNet.uav[36] utilizationEnergyOverdrawMaintenance 0
scalar OsgEarthNet.uav[36] utilizationCountMissions 27
scalar OsgEarthNet.uav[36] utilizationCountManeuversMission 529
scalar OsgEarthNet.uav[36] utilizationCountManeuversMaintenance 54
scalar OsgEarthNet.uav[36] utilizationCountChargeState 27
scalar OsgEarthNet.uav[36] utilizationCountOverdrawnAfterMission 0
scalar OsgEarthNet.uav[36] utilizationCountIdleState 26
scalar OsgEarthNet.uav[36] utilizationFail 0
scalar OsgEarthNet.uav[36] simulationTime 259200
scalar OsgEarthNet.uav[37] utilizationSecMission 23556.436343126
scalar OsgEarthNet.uav[37] utilizationSecMaintenance 9696.1491972099
scalar OsgEarthNet.uav[37] utilizationSecCharge 121895.40345966
scalar OsgEarthNet.uav[37] utilizationSecIdle 104052.01
scalar OsgEarthNet.uav[37] utilizationEnergyMission 114069.48944473
scalar OsgEarthNet.uav[37] utilizationEnergyMaintenance 44737.647758484
scalar OsgEarthNet.uav[37] utilizationEnergyCharge 158670.46728516
scalar OsgEarthNet.uav[37] utilizationEnergyOverdrawMission 0
scalar OsgEarthNet.uav[37] utilizationEnergyOverdrawMaintenance 0
scalar OsgEarthNet.uav[37] utilizationCountMissions 34
scalar OsgEarthNet.uav[37] utilizationCountManeuversMission 704
scalar OsgEarthNet.uav[37] utilizationCountManeuversMaintenance 68
scalar OsgEarthNet.uav[37] utilizationCountChargeState 34
scalar OsgEarthNet.uav[37] utilizationCountOverdrawnAfterMission 0
scalar OsgEarthNet.uav[37] utilizationCountIdleState 34
scalar OsgEarthNet.uav[37] utilizationFail 0
scalar OsgEarthNet.uav[37] simulationTime 259200
scalar OsgEarthNet.uav[38] utilizationSecMission 30015.157117969
scalar OsgEarthNet.uav[38] utilizationSecMaintenance 12113.084846248
scalar OsgEarthNet.uav[38] utilizationSecCharge 152380
scalar OsgEarthNet.uav[38] utilizationSecIdle 64691.757035784
scalar OsgEarthNet.uav[38] utilizationEnergyMission 143610.47974396
scalar OsgEarthNet.uav[38] utilizationEnergyMaintenance 54842.003341675
scalar OsgEarthNet.uav[38] utilizationEnergyCharge 198237.18066406
scalar OsgEarthNet.uav[38] utilizationEnergyOverdrawMission 0
scalar OsgEarthNet.uav[38] utilizationEnergyOverdrawMaintenance 0
scalar OsgEarthNet.uav[38] utilizationCountMissions 43
scalar OsgEarthNet.uav[38] utilizationCountManeuversMission 831
scalar OsgEarthNet.uav[38] utilizationCountManeuversMaintenance 86
scalar OsgEarthNet.uav[38] utilizationCountChargeState 43
scalar OsgEarthNet.uav[38] utilizationCountOverdrawnAfterMission 0
scalar OsgEarthNet.uav[38] utilizationCountIdleState 40
scalar OsgEarthNet.uav[38] utilizationFail 0
scalar OsgEarthNet.uav[38] simulationTime 259200
scalar OsgEarthNet.uav[39] utilizationSecMission 13803.750915482
scalar OsgEarthNet.uav[39] utilizationSecMaintenance 10379.583657679
scalar OsgEarthNet.uav[39] utilizationSecCharge 91260
scalar OsgEarthNet.uav[39] utilizationSecIdle 143756.66442684
scalar OsgEarthNet.uav[39] utilizationEnergyMission 68106.28314209
scalar OsgEarthNet.uav[39] utilizationEnergyMaintenance 49139.629703522
scalar OsgEarthNet.uav[39] utilizationEnergyCharge 117157.07275391
scalar OsgEarthNet.uav[39] utilizationEnergyOverdrawMission 0
scalar OsgEarthNet.uav[39] utilizationEnergyOverdrawMaintenance 0
scalar OsgEarthNet.uav[39] utilizationCountMissions 26
scalar OsgEarthNet.uav[39] utilizationCountManeuversMission 534
scalar OsgEarthNet.uav[39] utilizationCountManeuversMaintenance 52
scalar OsgEarthNet.uav[39] utilizationCountChargeState 26
scalar OsgEarthNet.uav[39] utilizationCountOverdrawnAfterMission 0
scalar OsgEarthNet.uav[39] utilizationCountIdleState 27
scalar OsgEarthNet.uav[39] utilizationFail 0
scalar OsgEarthNet.uav[39] simulationTime 259200
scalar OsgEarthNet.uav[40] utilizationSecMission 19522.995071387
scalar OsgEarthNet.uav[40] utilizationSecMaintenance 9570.8830587977
scalar OsgEarthNet.uav[40] utilizationSecCharge 106460
scalar OsgEarthNet.uav[40] utilizationSecIdle 123646.12086982
scalar OsgEarthNet.uav[40] utilizationEnergyMission 93218.476741791
scalar OsgEarthNet.uav[40] utilizationEnergyMaintenance 44451.146900177
scalar OsgEarthNet.uav[40] utilizationEnergyCharge 137326.70410156
scalar OsgEarthNet.uav[40] utilizationEnergyOverdrawMission 0
scalar OsgEarthNet.uav[40] utilizationEnergyOverdrawMaintenance 0
scalar OsgEarthNet.uav[40] utilizationCountMissions 30
scalar OsgEarthNet.uav[40] utilizationCountManeuversMission 535
scalar OsgEarthNet.uav[40] utilizationCountManeuversMaintenance 60
scalar OsgEarthNet.uav[40] utilizationCountChargeState 30
scalar OsgEarthNet.uav[40] utilizationCountOverdrawnAfterMission 0
scalar OsgEarthNet.uav[40] utilizationCountIdleState 31
scalar OsgEarthNet.uav[40] utilizationFail 0
scalar OsgEarthNet.uav[40] simulationTime 259200
scalar OsgEarthNet.uav[41] utilizationSecMission 25067.339640826
scalar OsgEarthNet.uav[41] utilizationSecMaintenance 14521.52231659
scalar OsgEarthNet.uav[41] utilizationSecCharge 145470
scalar OsgEarthNet.uav[41] utilizationSecIdle 74141.137042584
scalar OsgEarthNet.uav[41] utilizationEnergyMission 119775.10448456
scalar OsgEarthNet.uav[41] utilizationEnergyMaintenance 69149.513011932
scalar OsgEarthNet.uav[41] utilizationEnergyCharge 188666.68310547
scalar OsgEarthNet.uav[41] utilizationEnergyOverdrawMission 0
scalar OsgEarthNet.uav[41] utilizationEnergyOverdrawMaintenance 0
scalar OsgEarthNet.uav[41] utilizationCountMissions 41
scalar OsgEarthNet.uav[41] utilizationCountManeuversMission 780
scalar OsgEarthNet.uav[41] utilizationCountManeuversMaintenance 82
scalar OsgEarthNet.uav[41] utilizationCountChargeState 41
scalar OsgEarthNet.uav[41] utilizationCountOverdrawnAfterMission 0
scalar OsgEarthNet.uav[41] utilizationCountIdleState 37
scalar OsgEarthNet.uav[41] utilizationFail 0
scalar OsgEarthNet.uav[41] simulationTime 259200
scalar OsgEarthNet.uav[42] utilizationSecMission 27572.146246952
scalar OsgEarthNet.uav[42] utilizationSecMaintenance 11109.269278201
scalar OsgEarthNet.uav[42] utilizationSecCharge 138740
scalar OsgEarthNet.uav[42] utilizationSecIdle 81778.583474847
scalar OsgEarthNet.uav[42] utilizationEnergyMission 132124.01710129
scalar OsgEarthNet.uav[42] utilizationEnergyMaintenance 50234.151611328
scalar OsgEarthNet.uav[42] utilizationEnergyCharge 180503.43994141
scalar OsgEarthNet.uav[42] utilizationEnergyOverdrawMission 0
scalar OsgEarthNet.uav[42] utilizationEnergyOverdrawMaintenance 0
scalar OsgEarthNet.uav[42] utilizationCountMissions 39
scalar OsgEarthNet.uav[42] utilizationCountManeuversMission 744
scalar OsgEarthNet.uav[42] utilizationCountManeuversMaintenance 78
scalar OsgEarthNet.uav[42] utilizationCountChargeState 39
scalar OsgEarthNet.uav[42] utilizationCountOverdrawnAfterMission 0
scalar OsgEarthNet.uav[42] utilizationCountIdleState 36
scalar OsgEarthNet.uav[42] utilizationFail 0
scalar OsgEarthNet.uav[42] simulationTime 259200
scalar OsgEarthNet.uav[43] utilizationSecMission 17224.485143141
scalar OsgEarthNet.uav[43] utilizationSecMaintenance 12884.532747235
scalar OsgEarthNet.uav[43] utilizationSecCharge 114788.96410962
scalar OsgEarthNet.uav[43] utilizationSecIdle 114302.017
scalar OsgEarthNet.uav[43] utilizationEnergyMission 85254.980026245
scalar OsgEarthNet.uav[43] utilizationEnergyMaintenance 61273.378368377
scalar OsgEarthNet.uav[43] utilizationEnergyCharge 148537.14453125
scalar OsgEarthNet.uav[43] utilizationEnergyOverdrawMission 0
scalar OsgEarthNet.uav[43] utilizationEnergyOverdrawMaintenance 0
scalar OsgEarthNet.uav[43] utilizationCountMissions 33
scalar OsgEarthNet.uav[43] utilizationCountManeuversMission 662
scalar OsgEarthNet.uav[43] utilizationCountManeuversMaintenance 66
scalar OsgEarthNet.uav[43] utilizationCountChargeState 33
scalar OsgEarthNet.uav[43] utilizationCountOverdrawnAfterMission 0
scalar OsgEarthNet.uav[43] utilizationCountIdleState 33
scalar OsgEarthNet.uav[43] utilizationFail 0
scalar OsgEarthNet.uav[43] simulationTime 259200
scalar OsgEarthNet.uav[44] utilizationSecMission 27362.426688062
scalar OsgEarthNet.uav[44] utilizationSecMaintenance 15985.563311938
scalar OsgEarthNet.uav[44] utilizationSecCharge 159350
scalar OsgEarthNet.uav[44] utilizationSecIdle 56502.009
scalar OsgEarthNet.uav[44] utilizationEnergyMission 136939.71106726
scalar OsgEarthNet.uav[44] utilizationEnergyMaintenance 74859.10439682
scalar OsgEarthNet.uav[44] utilizationEnergyCharge 205999.28613281
scalar OsgEarthNet.uav[44] utilizationEnergyOverdrawMission 0
scalar OsgEarthNet.uav[44] utilizationEnergyOverdrawMaintenance 0
scalar OsgEarthNet.uav[44] utilizationCountMissions 45
scalar OsgEarthNet.uav[44] utilizationCountManeuversMission 915
scalar OsgEarthNet.uav[44] utilizationCountManeuversMaintenance 91
scalar OsgEarthNet.uav[44] utilizationCountChargeState 45
scalar OsgEarthNet.uav[44] utilizationCountOverdrawnAfterMission 0
scalar OsgEarthNet.uav[44] utilizationCountIdleState 44
scalar OsgEarthNet.uav[44] utilizationFail 0
scalar OsgEarthNet.uav[44] simulationTime 259200
scalar OsgEarthNet.uav[45] utilizationSecMission 32414.093102689
scalar OsgEarthNet.uav[45] utilizationSecMaintenance 17416.557265478
scalar OsgEarthNet.uav[45] utilizationSecCharge 181717.34863183
scalar OsgEarthNet.uav[45] utilizationSecIdle 27652
scalar OsgEarthNet.uav[45] utilizationEnergyMission 159403.78273773
scalar OsgEarthNet.uav[45] utilizationEnergyMaintenance 82428.731246948
scalar OsgEarthNet.uav[45] utilizationEnergyCharge 240542.53466797
scalar OsgEarthNet.uav[45] utilizationEnergyOverdrawMission 0
scalar OsgEarthNet.uav[45] utilizationEnergyOverdrawMaintenance 0
scalar OsgEarthNet.uav[45] utilizationCountMissions 52
scalar OsgEarthNet.uav[45] utilizationCountManeuversMission 1098
scalar OsgEarthNet.uav[45] utilizationCountManeuversMaintenance 104
scalar OsgEarthNet.uav[45] utilizationCountChargeState 52
scalar OsgEarthNet.uav[45] utilizationCountOverdrawnAfterMission 0
scalar OsgEarthNet.uav[45] utilizationCountIdleState 39
scalar OsgEarthNet.uav[45] utilizationFail 0
scalar OsgEarthNet.uav[45] simulationTime 259200
scalar OsgEarthNet.uav[46] utilizationSecMission 18026.251525803
scalar OsgEarthNet.uav[46] utilizationSecMaintenance 12037.160631381
scalar OsgEarthNet.uav[46] utilizationSecCharge 112974.57784282
scalar OsgEarthNet.uav[46] utilizationSecIdle 116162.009
scalar OsgEarthNet.uav[46] utilizationEnergyMission 88946.950149536
scalar OsgEarthNet.uav[46] utilizationEnergyMaintenance 57594.337890625
scalar OsgEarthNet.uav[46] utilizationEnergyCharge 145988.43994141
scalar OsgEarthNet.uav[46] utilizationEnergyOverdrawMission 0
scalar OsgEarthNet.uav[46] utilizationEnergyOverdrawMaintenance 0
scalar OsgEarthNet.uav[46] utilizationCountMissions 32
scalar OsgEarthNet.uav[46] utilizationCountManeuversMission 641
scalar OsgEarthNet.uav[46] utilizationCountManeuversMaintenance 64
scalar OsgEarthNet.uav[46] utilizationCountChargeState 32
scalar OsgEarthNet.uav[46] utilizationCountOverdrawnAfterMission 0
scalar OsgEarthNet.uav[46] utilizationCountIdleState 32
scalar OsgEarthNet.uav[46] utilizationFail 0
scalar OsgEarthNet.uav[46] simulationTime 259200
scalar OsgEarthNet.uav[47] utilizationSecMission 24267.185030612
scalar OsgEarthNet.uav[47] utilizationSecMaintenance 11416.680877605
scalar OsgEarthNet.uav[47] utilizationSecCharge 131860
scalar OsgEarthNet.uav[47] utilizationSecIdle 91656.133091783
scalar OsgEarthNet.uav[47] utilizationEnergyMission 116401.44787598
scalar OsgEarthNet.uav[47] utilizationEnergyMaintenance 52456.717708588
scalar OsgEarthNet.uav[47] utilizationEnergyCharge 170875.51513672
scalar OsgEarthNet.uav[47] utilizationEnergyOverdrawMission 0
scalar OsgEarthNet.uav[47] utilizationEnergyOverdrawMaintenance 0
scalar OsgEarthNet.uav[47] utilizationCountMissions 37
scalar OsgEarthNet.uav[47] utilizationCountManeuversMission 754
scalar OsgEarthNet.uav[47] utilizationCountManeuversMaintenance 74
scalar OsgEarthNet.uav[47] utilizationCountChargeState 37
scalar OsgEarthNet.uav[47] utilizationCountOverdrawnAfterMission 0
scalar OsgEarthNet.uav[47] utilizationCountIdleState 35
scalar OsgEarthNet.uav[47] utilizationFail 0
scalar OsgEarthNet.uav[47] simulationTime 259200
scalar OsgEarthNet.uav[48] utilizationSecMission 30566.20165274
scalar OsgEarthNet.uav[48] utilizationSecMaintenance 13209.81587031
scalar OsgEarthNet.uav[48] utilizationSecCharge 159650
scalar OsgEarthNet.uav[48] utilizationSecIdle 55773.98147695
scalar OsgEarthNet.uav[48] utilizationEnergyMission 146317.38552094
scalar OsgEarthNet.uav[48] utilizationEnergyMaintenance 60921.013954163
scalar OsgEarthNet.uav[48] utilizationEnergyCharge 208248.82568359
scalar OsgEarthNet.uav[48] utilizationEnergyOverdrawMission 0
scalar OsgEarthNet.uav[48] utilizationEnergyOverdrawMaintenance 0
scalar OsgEarthNet.uav[48] utilizationCountMissions 45
scalar OsgEarthNet.uav[48] utilizationCountManeuversMission 909
scalar OsgEarthNet.uav[48] utilizationCountManeuversMaintenance 90
scalar OsgEarthNet.uav[48] utilizationCountChargeState 45
scalar OsgEarthNet.uav[48] utilizationCountOverdrawnAfterMission 0
scalar OsgEarthNet.uav[48] utilizationCountIdleState 42
scalar OsgEarthNet.uav[48] utilizationFail 0
scalar OsgEarthNet.uav[48] simulationTime 259200
scalar OsgEarthNet.uav[49] utilizationSecMission 18274.195529391
scalar OsgEarthNet.uav[49] utilizationSecMaintenance 11985.104464579
scalar OsgEarthNet.uav[49] utilizationSecCharge 110228.68800603
scalar OsgEarthNet.uav[49] utilizationSecIdle 118712.011
scalar OsgEarthNet.uav[49] utilizationEnergyMission 89277.958141327
scalar OsgEarthNet.uav[49] utilizationEnergyMaintenance 56715.559997558
scalar OsgEarthNet.uav[49] utilizationEnergyCharge 142247.18017578
scalar OsgEarthNet.uav[49] utilizationEnergyOverdrawMission 0
scalar OsgEarthNet.uav[49] utilizationEnergyOverdrawMaintenance 0
scalar OsgEarthNet.uav[49] utilizationCountMissions 32
scalar OsgEarthNet.uav[49] utilizationCountManeuversMission 595
scalar OsgEarthNet.uav[49] utilizationCountManeuversMaintenance 64
scalar OsgEarthNet.uav[49] utilizationCountChargeState 32
scalar OsgEarthNet.uav[49] utilizationCountOverdrawnAfterMission 0
scalar OsgEarthNet.uav[49] utilizationCountIdleState 31
scalar OsgEarthNet.uav[49] utilizationFail 0
scalar OsgEarthNet.uav[49] simulationTime 259200
scalar OsgEarthNet.uav[50] utilizationSecMission 21616.563752704
scalar OsgEarthNet.uav[50] utilizationSecMaintenance 10992.170674921
scalar OsgEarthNet.uav[50] utilizationSecCharge 120410
scalar OsgEarthNet.uav[50] utilizationSecIdle 106181.26457237
scalar OsgEarthNet.uav[50] utilizationEnergyMission 104877.13888168
scalar OsgEarthNet.uav[50] utilizationEnergyMaintenance 50917.856758118
scalar OsgEarthNet.uav[50] utilizationEnergyCharge 154944.02734375
scalar OsgEarthNet.uav[50] utilizationEnergyOverdrawMission 0
scalar OsgEarthNet.uav[50] utilizationEnergyOverdrawMaintenance 0
scalar OsgEarthNet.uav[50] utilizationCountMissions 34
scalar OsgEarthNet.uav[50] utilizationCountManeuversMission 661
scalar OsgEarthNet.uav[50] utilizationCountManeuversMaintenance 68
scalar OsgEarthNet.uav[50] utilizationCountChargeState 34
scalar OsgEarthNet.uav[50] utilizationCountOverdrawnAfterMission 0
scalar OsgEarthNet.uav[50] utilizationCountIdleState 35
scalar OsgEarthNet.uav[50] utilizationFail 0
scalar OsgEarthNet.uav[50] simulationTime 259200
scalar OsgEarthNet.uav[51] utilizationSecMission 29097.791114522
scalar OsgEarthNet.uav[51] utilizationSecMaintenance 18747.917337835
scalar OsgEarthNet.uav[51] utilizationSecCharge 175932.27854764
scalar OsgEarthNet.uav[51] utilizationSecIdle 35422.012
scalar OsgEarthNet.uav[51] utilizationEnergyMission 141317.20542145
scalar OsgEarthNet.uav[51] utilizationEnergyMaintenance 89219.781761169
scalar OsgEarthNet.uav[51] utilizationEnergyCharge 231546.22558594
scalar OsgEarthNet.uav[51] utilizationEnergyOverdrawMission 0
scalar OsgEarthNet.uav[51] utilizationEnergyOverdrawMaintenance 0
scalar OsgEarthNet.uav[51] utilizationCountMissions 50
scalar OsgEarthNet.uav[51] utilizationCountManeuversMission 1002
scalar OsgEarthNet.uav[51] utilizationCountManeuversMaintenance 100
scalar OsgEarthNet.uav[51] utilizationCountChargeState 50
scalar OsgEarthNet.uav[51] utilizationCountOverdrawnAfterMission 0
scalar OsgEarthNet.uav[51] utilizationCountIdleState 36
scalar OsgEarthNet.uav[51] utilizationFail 0
scalar OsgEarthNet.uav[51] simulationTime 259200
scalar OsgEarthNet.uav[52] utilizationSecMission 27435.203532643
scalar OsgEarthNet.uav[52] utilizationSecMaintenance 12396.027993645
scalar OsgEarthNet.uav[52] utilizationSecCharge 144860
scalar OsgEarthNet.uav[52] utilizationSecIdle 74508.767473713
scalar OsgEarthNet.uav[52] utilizationEnergyMission 131703.57424545
scalar OsgEarthNet.uav[52] utilizationEnergyMaintenance 55994.409130096
scalar OsgEarthNet.uav[52] utilizationEnergyCharge 188000.44384766
scalar OsgEarthNet.uav[52] utilizationEnergyOverdrawMission 0
scalar OsgEarthNet.uav[52] utilizationEnergyOverdrawMaintenance 0
scalar OsgEarthNet.uav[52] utilizationCountMissions 41
scalar OsgEarthNet.uav[52] utilizationCountManeuversMission 780
scalar OsgEarthNet.uav[52] utilizationCountManeuversMaintenance 82
scalar OsgEarthNet.uav[52] utilizationCountChargeState 41
scalar OsgEarthNet.uav[52] utilizationCountOverdrawnAfterMission 0
scalar OsgEarthNet.uav[52] utilizationCountIdleState 38
scalar OsgEarthNet.uav[52] utilizationFail 0
scalar OsgEarthNet.uav[52] simulationTime 259200
scalar OsgEarthNet.uav[53] utilizationSecMission 21379.518438112
scalar OsgEarthNet.uav[53] utilizationSecMaintenance 16015.448359841
scalar OsgEarthNet.uav[53] utilizationSecCharge 139653.02420205
scalar OsgEarthNet.uav[53] utilizationSecIdle 82152.008
scalar OsgEarthNet.uav[53] utilizationEnergyMission 106438.66388702
scalar OsgEarthNet.uav[53] utilizationEnergyMaintenance 75484.127807617
scalar OsgEarthNet.uav[53] utilizationEnergyCharge 181514.19848633
scalar OsgEarthNet.uav[53] utilizationEnergyOverdrawMission 0
scalar OsgEarthNet.uav[53] utilizationEnergyOverdrawMaintenance 0
scalar OsgEarthNet.uav[53] utilizationCountMissions 40
scalar OsgEarthNet.uav[53] utilizationCountManeuversMission 830
scalar OsgEarthNet.uav[53] utilizationCountManeuversMaintenance 80
scalar OsgEarthNet.uav[53] utilizationCountChargeState 40
scalar OsgEarthNet.uav[53] utilizationCountOverdrawnAfterMission 0
scalar OsgEarthNet.uav[53] utilizationCountIdleState 37
scalar OsgEarthNet.uav[53] utilizationFail 0
scalar OsgEarthNet.uav[53] simulationTime 259200
scalar OsgEarthNet.uav[54] utilizationSecMission 27187.232694782
scalar OsgEarthNet.uav[54] utilizationSecMaintenance 14898.29377934
scalar OsgEarthNet.uav[54] utilizationSecCharge 156310
scalar OsgEarthNet.uav[54] utilizationSecIdle 60804.472525878
scalar OsgEarthNet.uav[54] utilizationEnergyMission 134253.99409103
scalar OsgEarthNet.uav[54] utilizationEnergyMaintenance 68688.033584595
scalar OsgEarthNet.uav[54] utilizationEnergyCharge 202488.98095703
scalar OsgEarthNet.uav[54] utilizationEnergyOverdrawMission 0
scalar OsgEarthNet.uav[54] utilizationEnergyOverdrawMaintenance 0
scalar OsgEarthNet.uav[54] utilizationCountMissions 44
scalar OsgEarthNet.uav[54] utilizationCountManeuversMission 920
scalar OsgEarthNet.uav[54] utilizationCountManeuversMaintenance 88
scalar OsgEarthNet.uav[54] utilizationCountChargeState 44
scalar OsgEarthNet.uav[54] utilizationCountOverdrawnAfterMission 0
scalar OsgEarthNet.uav[54] utilizationCountIdleState 43
scalar OsgEarthNet.uav[54] utilizationFail 0
scalar OsgEarthNet.uav[54] simulationTime 259200
scalar OsgEarthNet.uav[55] utilizationSecMission 28393.975340798
scalar OsgEarthNet.uav[55] utilizationSecMaintenance 11338.741020214
scalar OsgEarthNet.uav[55] utilizationSecCharge 142780
scalar OsgEarthNet.uav[55] utilizationSecIdle 76687.282638988
scalar OsgEarthNet.uav[55] utilizationEnergyMission 134597.6188736
scalar OsgEarthNet.uav[55] utilizationEnergyMaintenance 52071.711196899
scalar OsgEarthNet.uav[55] utilizationEnergyCharge 185965.90917969
scalar OsgEarthNet.uav[55] utilizationEnergyOverdrawMission 0
scalar OsgEarthNet.uav[55] utilizationEnergyOverdrawMaintenance 0
scalar OsgEarthNet.uav[55] utilizationCountMissions 40
scalar OsgEarthNet.uav[55] utilizationCountManeuversMission 735
scalar OsgEarthNet.uav[55] utilizationCountManeuversMaintenance 80
scalar OsgEarthNet.uav[55] utilizationCountChargeState 40
scalar OsgEarthNet.uav[55] utilizationCountOverdrawnAfterMission 0
scalar OsgEarthNet.uav[55] utilizationCountIdleState 39
scalar OsgEarthNet.uav[55] utilizationFail 0
scalar OsgEarthNet.uav[55] simulationTime 259200
scalar OsgEarthNet.uav[56] utilizationSecMission 21248.625530004
scalar OsgEarthNet.uav[56] utilizationSecMaintenance 15069.555283781
scalar OsgEarthNet.uav[56] utilizationSecCharge 135479.81818622
scalar OsgEarthNet.uav[56] utilizationSecIdle 87402
scalar OsgEarthNet.uav[56] utilizationEnergyMission 105318.04138565
scalar OsgEarthNet.uav[56] utilizationEnergyMaintenance 71879.51341629
scalar OsgEarthNet.uav[56] utilizationEnergyCharge 175158.93481445
scalar OsgEarthNet.uav[56] utilizationEnergyOverdrawMission 0
scalar OsgEarthNet.uav[56] utilizationEnergyOverdrawMaintenance 0
scalar OsgEarthNet.uav[56] utilizationCountMissions 39
scalar OsgEarthNet.uav[56] utilizationCountManeuversMission 778
scalar OsgEarthNet.uav[56] utilizationCountManeuversMaintenance 77
scalar OsgEarthNet.uav[56] utilizationCountChargeState 39
scalar OsgEarthNet.uav[56] utilizationCountOverdrawnAfterMission 0
scalar OsgEarthNet.uav[56] utilizationCountIdleState 39
scalar OsgEarthNet.uav[56] utilizationFail 0
scalar OsgEarthNet.uav[56] simulationTime 259200
scalar OsgEarthNet.uav[57] utilizationSecMission 25203.979119129
scalar OsgEarthNet.uav[57] utilizationSecMaintenance 12839.269657795
scalar OsgEarthNet.uav[57] utilizationSecCharge 141214.73622308
scalar OsgEarthNet.uav[57] utilizationSecIdle 79942.014
scalar OsgEarthNet.uav[57] utilizationEnergyMission 124475.50730896
scalar OsgEarthNet.uav[57] utilizationEnergyMaintenance 60082.993148804
scalar OsgEarthNet.uav[57] utilizationEnergyCharge 183314.30908203
scalar OsgEarthNet.uav[57] utilizationEnergyOverdrawMission 0
scalar OsgEarthNet.uav[57] utilizationEnergyOverdrawMaintenance 0
scalar OsgEarthNet.uav[57] utilizationCountMissions 40
scalar OsgEarthNet.uav[57] utilizationCountManeuversMission 876
scalar OsgEarthNet.uav[57] utilizationCountManeuversMaintenance 80
scalar OsgEarthNet.uav[57] utilizationCountChargeState 40
scalar OsgEarthNet.uav[57] utilizationCountOverdrawnAfterMission 0
scalar OsgEarthNet.uav[57] utilizationCountIdleState 40
scalar OsgEarthNet.uav[57] utilizationFail 0
scalar OsgEarthNet.uav[57] simulationTime 259200
scalar OsgEarthNet.uav[58] utilizationSecMission 29864.236994976
scalar OsgEarthNet.uav[58] utilizationSecMaintenance 11406.216744939
scalar OsgEarthNet.uav[58] utilizationSecCharge 148910
scalar OsgEarthNet.uav[58] utilizationSecIdle 69019.545260086
scalar OsgEarthNet.uav[58] utilizationEnergyMission 143771.84717801
scalar OsgEarthNet.uav[58] utilizationEnergyMaintenance 51830.187553406
scalar OsgEarthNet.uav[58] utilizationEnergyCharge 194382.30078125
scalar OsgEarthNet.uav[58] utilizationEnergyOverdrawMission 0
scalar OsgEarthNet.uav[58] utilizationEnergyOverdrawMaintenance 0
scalar OsgEarthNet.uav[58] utilizationCountMissions 42
scalar OsgEarthNet.uav[58] utilizationCountManeuversMission 866
scalar OsgEarthNet.uav[58] utilizationCountManeuversMaintenance 83
scalar OsgEarthNet.uav[58] utilizationCountChargeState 42
scalar OsgEarthNet.uav[58] utilizationCountOverdrawnAfterMission 0
scalar OsgEarthNet.uav[58] utilizationCountIdleState 39
scalar OsgEarthNet.uav[58] utilizationFail 0
scalar OsgEarthNet.uav[58] simulationTime 259200
scalar OsgEarthNet.uav[59] utilizationSecMission 23591.252746445
scalar OsgEarthNet.uav[59] utilizationSecMaintenance 13746.789839406
scalar OsgEarthNet.uav[59] utilizationSecCharge 135839.95341415
scalar OsgEarthNet.uav[59] utilizationSecIdle 86022.003
scalar OsgEarthNet.uav[59] utilizationEnergyMission 114098.69046783
scalar OsgEarthNet.uav[59] utilizationEnergyMaintenance 65315.751331329
scalar OsgEarthNet.uav[59] utilizationEnergyCharge 175338.71289062
scalar OsgEarthNet.uav[59] utilizationEnergyOverdrawMission 0
scalar OsgEarthNet.uav[59] utilizationEnergyOverdrawMaintenance 0
scalar OsgEarthNet.uav[59] utilizationCountMissions 39
scalar OsgEarthNet.uav[59] utilizationCountManeuversMission 711
scalar OsgEarthNet.uav[59] utilizationCountManeuversMaintenance 78
scalar OsgEarthNet.uav[59] utilizationCountChargeState 39
scalar OsgEarthNet.uav[59] utilizationCountOverdrawnAfterMission 0
scalar OsgEarthNet.uav[59] utilizationCountIdleState 39
scalar OsgEarthNet.uav[59] utilizationFail 0
scalar OsgEarthNet.uav[59] simulationTime 259200
scalar OsgEarthNet.uav[60] utilizationSecMission 28012.020832862
scalar OsgEarthNet.uav[60] utilizationSecMaintenance 18471.405048796
scalar OsgEarthNet.uav[60] utilizationSecCharge 170624.57311834
scalar OsgEarthNet.uav[60] utilizationSecIdle 42092
scalar OsgEarthNet.uav[60] utilizationEnergyMission 137854.83071136
scalar OsgEarthNet.uav[60] utilizationEnergyMaintenance 86493.51392746
scalar OsgEarthNet.uav[60] utilizationEnergyCharge 222130.34204102
scalar OsgEarthNet.uav[60] utilizationEnergyOverdrawMission 0
scalar OsgEarthNet.uav[60] utilizationEnergyOverdrawMaintenance 0
scalar OsgEarthNet.uav[60] utilizationCountMissions 49
scalar OsgEarthNet.uav[60] utilizationCountManeuversMission 931
scalar OsgEarthNet.uav[60] utilizationCountManeuversMaintenance 98
scalar OsgEarthNet.uav[60] utilizationCountChargeState 49
scalar OsgEarthNet.uav[60] utilizationCountOverdrawnAfterMission 0
scalar OsgEarthNet.uav[60] utilizationCountIdleState 44
scalar OsgEarthNet.uav[60] utilizationFail 0
scalar OsgEarthNet.uav[60] simulationTime 259200
scalar OsgEarthNet.uav[61] utilizationSecMission 25925.937446993
scalar OsgEarthNet.uav[61] utilizationSecMaintenance 14138.57069053
scalar OsgEarthNet.uav[61] utilizationSecCharge 147323.48686248
scalar OsgEarthNet.uav[61] utilizationSecIdle 71812.004
scalar OsgEarthNet.uav[61] utilizationEnergyMission 125495.71868515
scalar OsgEarthNet.uav[61] utilizationEnergyMaintenance 66148.634544373
scalar OsgEarthNet.uav[61] utilizationEnergyCharge 190832.87353516
scalar OsgEarthNet.uav[61] utilizationEnergyOverdrawMission 0
scalar OsgEarthNet.uav[61] utilizationEnergyOverdrawMaintenance 0
scalar OsgEarthNet.uav[61] utilizationCountMissions 42
scalar OsgEarthNet.uav[61] utilizationCountManeuversMission 884
scalar OsgEarthNet.uav[61] utilizationCountManeuversMaintenance 84
scalar OsgEarthNet.uav[61] utilizationCountChargeState 42
scalar OsgEarthNet.uav[61] utilizationCountOverdrawnAfterMission 0
scalar OsgEarthNet.uav[61] utilizationCountIdleState 42
scalar OsgEarthNet.uav[61] utilizationFail 0
scalar OsgEarthNet.uav[61] simulationTime 259200
scalar OsgEarthNet.uav[62] utilizationSecMission 28187.725109589
scalar OsgEarthNet.uav[62] utilizationSecMaintenance 11910.273890411
scalar OsgEarthNet.uav[62] utilizationSecCharge 145570
scalar OsgEarthNet.uav[62] utilizationSecIdle 73532
scalar OsgEarthNet.uav[62] utilizationEnergyMission 135025.85279381
scalar OsgEarthNet.uav[62] utilizationEnergyMaintenance 55269.331539154
scalar OsgEarthNet.uav[62] utilizationEnergyCharge 189733.66552734
scalar OsgEarthNet.uav[62] utilizationEnergyOverdrawMission 0
scalar OsgEarthNet.uav[62] utilizationEnergyOverdrawMaintenance 0
scalar OsgEarthNet.uav[62] utilizationCountMissions 41
scalar OsgEarthNet.uav[62] utilizationCountManeuversMission 901
scalar OsgEarthNet.uav[62] utilizationCountManeuversMaintenance 83
scalar OsgEarthNet.uav[62] utilizationCountChargeState 41
scalar OsgEarthNet.uav[62] utilizationCountOverdrawnAfterMission 0
scalar OsgEarthNet.uav[62] utilizationCountIdleState 37
scalar OsgEarthNet.uav[62] utilizationFail 0
scalar OsgEarthNet.uav[62] simulationTime 259200
scalar OsgEarthNet.uav[63] utilizationSecMission 23240.158901867
scalar OsgEarthNet.uav[63] utilizationSecMaintenance 11567.825659353
scalar OsgEarthNet.uav[63] utilizationSecCharge 127970
scalar OsgEarthNet.uav[63] utilizationSecIdle 96422.014438781
scalar OsgEarthNet.uav[63] utilizationEnergyMission 110722.48213959
scalar OsgEarthNet.uav[63] utilizationEnergyMaintenance 54064.966629028
scalar OsgEarthNet.uav[63] utilizationEnergyCharge 164950.39697266
scalar OsgEarthNet.uav[63] utilizationEnergyOverdrawMission 0
scalar OsgEarthNet.uav[63] utilizationEnergyOverdrawMaintenance 0
scalar OsgEarthNet.uav[63] utilizationCountMissions 36
scalar OsgEarthNet.uav[63] utilizationCountManeuversMission 592
scalar OsgEarthNet.uav[63] utilizationCountManeuversMaintenance 72
scalar OsgEarthNet.uav[63] utilizationCountChargeState 36
scalar OsgEarthNet.uav[63] utilizationCountOverdrawnAfterMission 0
scalar OsgEarthNet.uav[63] utilizationCountIdleState 37
scalar OsgEarthNet.uav[63] utilizationFail 0
scalar OsgEarthNet.uav[63] simulationTime 259200
scalar OsgEarthNet.uav[64] utilizationSecMission 30972.724735503
scalar OsgEarthNet.uav[64] utilizationSecMaintenance 14024.883618849
scalar OsgEarthNet.uav[64] utilizationSecCharge 163207.77875613
scalar OsgEarthNet.uav[64] utilizationSecIdle 50994.611889516
scalar OsgEarthNet.uav[64] utilizationEnergyMission 149543.54016495
scalar OsgEarthNet.uav[64] utilizationEnergyMaintenance 64113.618045807
scalar OsgEarthNet.uav[64] utilizationEnergyCharge 212413.453125
scalar OsgEarthNet.uav[64] utilizationEnergyOverdrawMission 0
scalar OsgEarthNet.uav[64] utilizationEnergyOverdrawMaintenance 0
scalar OsgEarthNet.uav[64] utilizationCountMissions 46
scalar OsgEarthNet.uav[64] utilizationCountManeuversMission 834
scalar OsgEarthNet.uav[64] utilizationCountManeuversMaintenance 92
scalar OsgEarthNet.uav[64] utilizationCountChargeState 46
scalar OsgEarthNet.uav[64] utilizationCountOverdrawnAfterMission 0
scalar OsgEarthNet.uav[64] utilizationCountIdleState 46
scalar OsgEarthNet.uav[64] utilizationFail 0
scalar OsgEarthNet.uav[64] simulationTime 259200
scalar OsgEarthNet.uav[65] utilizationSecMission 29619.535495481
scalar OsgEarthNet.uav[65] utilizationSecMaintenance 13558.829115589
scalar OsgEarthNet.uav[65] utilizationSecCharge 156312.00330826
scalar OsgEarthNet.uav[65] utilizationSecIdle 59709.631080665
scalar OsgEarthNet.uav[65] utilizationEnergyMission 145482.01499939
scalar OsgEarthNet.uav[65] utilizationEnergyMaintenance 61756.439723969
[...]
scalar OsgEarthNet.uav[81] utilizationCountMissions 44
scalar OsgEarthNet.uav[81] utilizationCountManeuversMission 852
scalar OsgEarthNet.uav[81] utilizationCountManeuversMaintenance 88
scalar OsgEarthNet.uav[81] utilizationCountChargeState 44
scalar OsgEarthNet.uav[81] utilizationCountOverdrawnAfterMission 0
scalar OsgEarthNet.uav[81] utilizationCountIdleState 44
scalar OsgEarthNet.uav[81] utilizationFail 0
scalar OsgEarthNet.uav[81] simulationTime 259200
scalar OsgEarthNet.uav[82] utilizationSecMission 30552.744675655
scalar OsgEarthNet.uav[82] utilizationSecMaintenance 14090.230585005
scalar OsgEarthNet.uav[82] utilizationSecCharge 159205.02373934
scalar OsgEarthNet.uav[82] utilizationSecIdle 55352
scalar OsgEarthNet.uav[82] utilizationEnergyMission 145623.18170959
scalar OsgEarthNet.uav[82] utilizationEnergyMaintenance 65296.422325134
scalar OsgEarthNet.uav[82] utilizationEnergyCharge 207763.58575439
scalar OsgEarthNet.uav[82] utilizationEnergyOverdrawMission 0
scalar OsgEarthNet.uav[82] utilizationEnergyOverdrawMaintenance 0
scalar OsgEarthNet.uav[82] utilizationCountMissions 46
scalar OsgEarthNet.uav[82] utilizationCountManeuversMission 942
scalar OsgEarthNet.uav[82] utilizationCountManeuversMaintenance 91
scalar OsgEarthNet.uav[82] utilizationCountChargeState 46
scalar OsgEarthNet.uav[82] utilizationCountOverdrawnAfterMission 0
scalar OsgEarthNet.uav[82] utilizationCountIdleState 42
scalar OsgEarthNet.uav[82] utilizationFail 0
scalar OsgEarthNet.uav[82] simulationTime 259200
scalar OsgEarthNet.uav[83] utilizationSecMission 23760.305121544
scalar OsgEarthNet.uav[83] utilizationSecMaintenance 12977.416444844
scalar OsgEarthNet.uav[83] utilizationSecCharge 132702.62277895
scalar OsgEarthNet.uav[83] utilizationSecIdle 89759.654654659
scalar OsgEarthNet.uav[83] utilizationEnergyMission 113883.49385071
scalar OsgEarthNet.uav[83] utilizationEnergyMaintenance 61267.938251495
scalar OsgEarthNet.uav[83] utilizationEnergyCharge 172295.93249512
scalar OsgEarthNet.uav[83] utilizationEnergyOverdrawMission 0
scalar OsgEarthNet.uav[83] utilizationEnergyOverdrawMaintenance 0
scalar OsgEarthNet.uav[83] utilizationCountMissions 38
scalar OsgEarthNet.uav[83] utilizationCountManeuversMission 658
scalar OsgEarthNet.uav[83] utilizationCountManeuversMaintenance 76
scalar OsgEarthNet.uav[83] utilizationCountChargeState 38
scalar OsgEarthNet.uav[83] utilizationCountOverdrawnAfterMission 0
scalar OsgEarthNet.uav[83] utilizationCountIdleState 37
scalar OsgEarthNet.uav[83] utilizationFail 0
scalar OsgEarthNet.uav[83] simulationTime 259200
scalar OsgEarthNet.uav[84] utilizationSecMission 27116.256342599
scalar OsgEarthNet.uav[84] utilizationSecMaintenance 17603.038720944
scalar OsgEarthNet.uav[84] utilizationSecCharge 162998.70393646
scalar OsgEarthNet.uav[84] utilizationSecIdle 51482
scalar OsgEarthNet.uav[84] utilizationEnergyMission 132003.17805099
scalar OsgEarthNet.uav[84] utilizationEnergyMaintenance 82997.612140655
scalar OsgEarthNet.uav[84] utilizationEnergyCharge 211582.30944824
scalar OsgEarthNet.uav[84] utilizationEnergyOverdrawMission 0
scalar OsgEarthNet.uav[84] utilizationEnergyOverdrawMaintenance 0
scalar OsgEarthNet.uav[84] utilizationCountMissions 47
scalar OsgEarthNet.uav[84] utilizationCountManeuversMission 899
scalar OsgEarthNet.uav[84] utilizationCountManeuversMaintenance 94
scalar OsgEarthNet.uav[84] utilizationCountChargeState 47
scalar OsgEarthNet.uav[84] utilizationCountOverdrawnAfterMission 0
scalar OsgEarthNet.uav[84] utilizationCountIdleState 43
scalar OsgEarthNet.uav[84] utilizationFail 0
scalar OsgEarthNet.uav[84] simulationTime 259200
scalar OsgEarthNet.uav[85] utilizationSecMission 30496.982419121
scalar OsgEarthNet.uav[85] utilizationSecMaintenance 13571.563622162
scalar OsgEarthNet.uav[85] utilizationSecCharge 157900
scalar OsgEarthNet.uav[85] utilizationSecIdle 57231.452958717
scalar OsgEarthNet.uav[85] utilizationEnergyMission 146900.140382
scalar OsgEarthNet.uav[85] utilizationEnergyMaintenance 62132.640701294
scalar OsgEarthNet.uav[85] utilizationEnergyCharge 204946.87158203
scalar OsgEarthNet.uav[85] utilizationEnergyOverdrawMission 0
scalar OsgEarthNet.uav[85] utilizationEnergyOverdrawMaintenance 0
scalar OsgEarthNet.uav[85] utilizationCountMissions 45
scalar OsgEarthNet.uav[85] utilizationCountManeuversMission 1024
scalar OsgEarthNet.uav[85] utilizationCountManeuversMaintenance 91
scalar OsgEarthNet.uav[85] utilizationCountChargeState 45
scalar OsgEarthNet.uav[85] utilizationCountOverdrawnAfterMission 0
scalar OsgEarthNet.uav[85] utilizationCountIdleState 42
scalar OsgEarthNet.uav[85] utilizationFail 0
scalar OsgEarthNet.uav[85] simulationTime 259200
scalar OsgEarthNet.uav[86] utilizationSecMission 23563.386586211
scalar OsgEarthNet.uav[86] utilizationSecMaintenance 15762.730286821
scalar OsgEarthNet.uav[86] utilizationSecCharge 143621.86012697
scalar OsgEarthNet.uav[86] utilizationSecIdle 76252.022
scalar OsgEarthNet.uav[86] utilizationEnergyMission 114061.46688843
scalar OsgEarthNet.uav[86] utilizationEnergyMaintenance 75043.928600311
scalar OsgEarthNet.uav[86] utilizationEnergyCharge 187334.48364258
scalar OsgEarthNet.uav[86] utilizationEnergyOverdrawMission 0
scalar OsgEarthNet.uav[86] utilizationEnergyOverdrawMaintenance 0
scalar OsgEarthNet.uav[86] utilizationCountMissions 41
scalar OsgEarthNet.uav[86] utilizationCountManeuversMission 757
scalar OsgEarthNet.uav[86] utilizationCountManeuversMaintenance 82
scalar OsgEarthNet.uav[86] utilizationCountChargeState 41
scalar OsgEarthNet.uav[86] utilizationCountOverdrawnAfterMission 0
scalar OsgEarthNet.uav[86] utilizationCountIdleState 38
scalar OsgEarthNet.uav[86] utilizationFail 0
scalar OsgEarthNet.uav[86] simulationTime 259200
scalar OsgEarthNet.uav[87] utilizationSecMission 27788.943746555
scalar OsgEarthNet.uav[87] utilizationSecMaintenance 13453.319963919
scalar OsgEarthNet.uav[87] utilizationSecCharge 151677.71700661
scalar OsgEarthNet.uav[87] utilizationSecIdle 66280.018282913
scalar OsgEarthNet.uav[87] utilizationEnergyMission 136426.63687134
scalar OsgEarthNet.uav[87] utilizationEnergyMaintenance 62379.059890747
scalar OsgEarthNet.uav[87] utilizationEnergyCharge 196988.06835938
scalar OsgEarthNet.uav[87] utilizationEnergyOverdrawMission 0
scalar OsgEarthNet.uav[87] utilizationEnergyOverdrawMaintenance 0
scalar OsgEarthNet.uav[87] utilizationCountMissions 43
scalar OsgEarthNet.uav[87] utilizationCountManeuversMission 924
scalar OsgEarthNet.uav[87] utilizationCountManeuversMaintenance 86
scalar OsgEarthNet.uav[87] utilizationCountChargeState 43
scalar OsgEarthNet.uav[87] utilizationCountOverdrawnAfterMission 0
scalar OsgEarthNet.uav[87] utilizationCountIdleState 43
scalar OsgEarthNet.uav[87] utilizationFail 0
scalar OsgEarthNet.uav[87] simulationTime 259200
scalar OsgEarthNet.uav[88] utilizationSecMission 29893.42609556
scalar OsgEarthNet.uav[88] utilizationSecMaintenance 14299.027660708
scalar OsgEarthNet.uav[88] utilizationSecCharge 162805.54324373
scalar OsgEarthNet.uav[88] utilizationSecIdle 52202.002
scalar OsgEarthNet.uav[88] utilizationEnergyMission 145894.17605591
scalar OsgEarthNet.uav[88] utilizationEnergyMaintenance 66318.453895569
scalar OsgEarthNet.uav[88] utilizationEnergyCharge 211718.83935547
scalar OsgEarthNet.uav[88] utilizationEnergyOverdrawMission 0
scalar OsgEarthNet.uav[88] utilizationEnergyOverdrawMaintenance 0
scalar OsgEarthNet.uav[88] utilizationCountMissions 46
scalar OsgEarthNet.uav[88] utilizationCountManeuversMission 966
scalar OsgEarthNet.uav[88] utilizationCountManeuversMaintenance 92
scalar OsgEarthNet.uav[88] utilizationCountChargeState 46
scalar OsgEarthNet.uav[88] utilizationCountOverdrawnAfterMission 0
scalar OsgEarthNet.uav[88] utilizationCountIdleState 43
scalar OsgEarthNet.uav[88] utilizationFail 0
scalar OsgEarthNet.uav[88] simulationTime 259200
scalar OsgEarthNet.uav[89] utilizationSecMission 23123.174211116
scalar OsgEarthNet.uav[89] utilizationSecMaintenance 13137.044754656
scalar OsgEarthNet.uav[89] utilizationSecCharge 132847.76103423
scalar OsgEarthNet.uav[89] utilizationSecIdle 90092.019
scalar OsgEarthNet.uav[89] utilizationEnergyMission 110429.5640564
scalar OsgEarthNet.uav[89] utilizationEnergyMaintenance 61821.742744446
scalar OsgEarthNet.uav[89] utilizationEnergyCharge 172112.32666016
scalar OsgEarthNet.uav[89] utilizationEnergyOverdrawMission 0
scalar OsgEarthNet.uav[89] utilizationEnergyOverdrawMaintenance 0
scalar OsgEarthNet.uav[89] utilizationCountMissions 38
scalar OsgEarthNet.uav[89] utilizationCountManeuversMission 674
scalar OsgEarthNet.uav[89] utilizationCountManeuversMaintenance 76
scalar OsgEarthNet.uav[89] utilizationCountChargeState 38
scalar OsgEarthNet.uav[89] utilizationCountOverdrawnAfterMission 0
scalar OsgEarthNet.uav[89] utilizationCountIdleState 37
scalar OsgEarthNet.uav[89] utilizationFail 0
scalar OsgEarthNet.uav[89] simulationTime 259200
scalar OsgEarthNet.uav[90] utilizationSecMission 24672.612126685
scalar OsgEarthNet.uav[90] utilizationSecMaintenance 13245.598370267
scalar OsgEarthNet.uav[90] utilizationSecCharge 140160
scalar OsgEarthNet.uav[90] utilizationSecIdle 81121.788503048
scalar OsgEarthNet.uav[90] utilizationEnergyMission 117522.71751404
scalar OsgEarthNet.uav[90] utilizationEnergyMaintenance 62904.105388641
scalar OsgEarthNet.uav[90] utilizationEnergyCharge 179847.8203125
scalar OsgEarthNet.uav[90] utilizationEnergyOverdrawMission 0
scalar OsgEarthNet.uav[90] utilizationEnergyOverdrawMaintenance 0
scalar OsgEarthNet.uav[90] utilizationCountMissions 40
scalar OsgEarthNet.uav[90] utilizationCountManeuversMission 696
scalar OsgEarthNet.uav[90] utilizationCountManeuversMaintenance 80
scalar OsgEarthNet.uav[90] utilizationCountChargeState 40
scalar OsgEarthNet.uav[90] utilizationCountOverdrawnAfterMission 0
scalar OsgEarthNet.uav[90] utilizationCountIdleState 41
scalar OsgEarthNet.uav[90] utilizationFail 0
scalar OsgEarthNet.uav[90] simulationTime 259200
scalar OsgEarthNet.uav[91] utilizationSecMission 26453.380939875
scalar OsgEarthNet.uav[91] utilizationSecMaintenance 13999.877532887
scalar OsgEarthNet.uav[91] utilizationSecCharge 150030
scalar OsgEarthNet.uav[91] utilizationSecIdle 68716.740527238
scalar OsgEarthNet.uav[91] utilizationEnergyMission 126294.48987198
scalar OsgEarthNet.uav[91] utilizationEnergyMaintenance 66371.084873199
scalar OsgEarthNet.uav[91] utilizationEnergyCharge 194979.21972656
scalar OsgEarthNet.uav[91] utilizationEnergyOverdrawMission 0
scalar OsgEarthNet.uav[91] utilizationEnergyOverdrawMaintenance 0
scalar OsgEarthNet.uav[91] utilizationCountMissions 42
scalar OsgEarthNet.uav[91] utilizationCountManeuversMission 790
scalar OsgEarthNet.uav[91] utilizationCountManeuversMaintenance 84
scalar OsgEarthNet.uav[91] utilizationCountChargeState 42
scalar OsgEarthNet.uav[91] utilizationCountOverdrawnAfterMission 0
scalar OsgEarthNet.uav[91] utilizationCountIdleState 41
scalar OsgEarthNet.uav[91] utilizationFail 0
scalar OsgEarthNet.uav[91] simulationTime 259200
scalar OsgEarthNet.uav[92] utilizationSecMission 28360.611795779
scalar OsgEarthNet.uav[92] utilizationSecMaintenance 13000.265447667
scalar OsgEarthNet.uav[92] utilizationSecCharge 152540
scalar OsgEarthNet.uav[92] utilizationSecIdle 65299.121756553
scalar OsgEarthNet.uav[92] utilizationEnergyMission 136880.3862915
scalar OsgEarthNet.uav[92] utilizationEnergyMaintenance 60418.219181061
scalar OsgEarthNet.uav[92] utilizationEnergyCharge 198531.66796875
scalar OsgEarthNet.uav[92] utilizationEnergyOverdrawMission 0
scalar OsgEarthNet.uav[92] utilizationEnergyOverdrawMaintenance 0
scalar OsgEarthNet.uav[92] utilizationCountMissions 43
scalar OsgEarthNet.uav[92] utilizationCountManeuversMission 853
scalar OsgEarthNet.uav[92] utilizationCountManeuversMaintenance 86
scalar OsgEarthNet.uav[92] utilizationCountChargeState 43
scalar OsgEarthNet.uav[92] utilizationCountOverdrawnAfterMission 0
scalar OsgEarthNet.uav[92] utilizationCountIdleState 41
scalar OsgEarthNet.uav[92] utilizationFail 0
scalar OsgEarthNet.uav[92] simulationTime 259200
scalar OsgEarthNet.uav[93] utilizationSecMission 22973.202587707
scalar OsgEarthNet.uav[93] utilizationSecMaintenance 14818.006332572
scalar OsgEarthNet.uav[93] utilizationSecCharge 138896.77507972
scalar OsgEarthNet.uav[93] utilizationSecIdle 82512.015
scalar OsgEarthNet.uav[93] utilizationEnergyMission 111828.16466141
scalar OsgEarthNet.uav[93] utilizationEnergyMaintenance 69903.875457764
scalar OsgEarthNet.uav[93] utilizationEnergyCharge 178714.0222168
scalar OsgEarthNet.uav[93] utilizationEnergyOverdrawMission 0
scalar OsgEarthNet.uav[93] utilizationEnergyOverdrawMaintenance 0
scalar OsgEarthNet.uav[93] utilizationCountMissions 40
scalar OsgEarthNet.uav[93] utilizationCountManeuversMission 776
scalar OsgEarthNet.uav[93] utilizationCountManeuversMaintenance 80
scalar OsgEarthNet.uav[93] utilizationCountChargeState 40
scalar OsgEarthNet.uav[93] utilizationCountOverdrawnAfterMission 0
scalar OsgEarthNet.uav[93] utilizationCountIdleState 40
scalar OsgEarthNet.uav[93] utilizationFail 0
scalar OsgEarthNet.uav[93] simulationTime 259200
scalar OsgEarthNet.uav[94] utilizationSecMission 29828.054920897
scalar OsgEarthNet.uav[94] utilizationSecMaintenance 13721.051822014
scalar OsgEarthNet.uav[94] utilizationSecCharge 156898.89225709
scalar OsgEarthNet.uav[94] utilizationSecIdle 58752
scalar OsgEarthNet.uav[94] utilizationEnergyMission 145351.27326202
scalar OsgEarthNet.uav[94] utilizationEnergyMaintenance 63961.388973236
scalar OsgEarthNet.uav[94] utilizationEnergyCharge 202708.39855957
scalar OsgEarthNet.uav[94] utilizationEnergyOverdrawMission 0
scalar OsgEarthNet.uav[94] utilizationEnergyOverdrawMaintenance 0
scalar OsgEarthNet.uav[94] utilizationCountMissions 45
scalar OsgEarthNet.uav[94] utilizationCountManeuversMission 983
scalar OsgEarthNet.uav[94] utilizationCountManeuversMaintenance 89
scalar OsgEarthNet.uav[94] utilizationCountChargeState 45
scalar OsgEarthNet.uav[94] utilizationCountOverdrawnAfterMission 0
scalar OsgEarthNet.uav[94] utilizationCountIdleState 45
scalar OsgEarthNet.uav[94] utilizationFail 0
scalar OsgEarthNet.uav[94] simulationTime 259200
scalar OsgEarthNet.uav[95] utilizationSecMission 32007.734679855
scalar OsgEarthNet.uav[95] utilizationSecMaintenance 18968.282899706
scalar OsgEarthNet.uav[95] utilizationSecCharge 190060
scalar OsgEarthNet.uav[95] utilizationSecIdle 18163.981420439
scalar OsgEarthNet.uav[95] utilizationEnergyMission 156852.40816498
scalar OsgEarthNet.uav[95] utilizationEnergyMaintenance 89179.087860107
scalar OsgEarthNet.uav[95] utilizationEnergyCharge 248734.43310547
scalar OsgEarthNet.uav[95] utilizationEnergyOverdrawMission 0
scalar OsgEarthNet.uav[95] utilizationEnergyOverdrawMaintenance 0
scalar OsgEarthNet.uav[95] utilizationCountMissions 54
scalar OsgEarthNet.uav[95] utilizationCountManeuversMission 1193
scalar OsgEarthNet.uav[95] utilizationCountManeuversMaintenance 108
scalar OsgEarthNet.uav[95] utilizationCountChargeState 54
scalar OsgEarthNet.uav[95] utilizationCountOverdrawnAfterMission 0
scalar OsgEarthNet.uav[95] utilizationCountIdleState 39
scalar OsgEarthNet.uav[95] utilizationFail 0
scalar OsgEarthNet.uav[95] simulationTime 259200
scalar OsgEarthNet.uav[96] utilizationSecMission 31551.546939949
scalar OsgEarthNet.uav[96] utilizationSecMaintenance 13328.379919028
scalar OsgEarthNet.uav[96] utilizationSecCharge 160314.05052982
scalar OsgEarthNet.uav[96] utilizationSecIdle 54006.021611199
scalar OsgEarthNet.uav[96] utilizationEnergyMission 153014.15354919
scalar OsgEarthNet.uav[96] utilizationEnergyMaintenance 61197.592853546
scalar OsgEarthNet.uav[96] utilizationEnergyCharge 208733.50512695
scalar OsgEarthNet.uav[96] utilizationEnergyOverdrawMission 0
scalar OsgEarthNet.uav[96] utilizationEnergyOverdrawMaintenance 0
scalar OsgEarthNet.uav[96] utilizationCountMissions 46
scalar OsgEarthNet.uav[96] utilizationCountManeuversMission 969
scalar OsgEarthNet.uav[96] utilizationCountManeuversMaintenance 92
scalar OsgEarthNet.uav[96] utilizationCountChargeState 46
scalar OsgEarthNet.uav[96] utilizationCountOverdrawnAfterMission 0
scalar OsgEarthNet.uav[96] utilizationCountIdleState 41
scalar OsgEarthNet.uav[96] utilizationFail 0
scalar OsgEarthNet.uav[96] simulationTime 259200
scalar OsgEarthNet.uav[97] utilizationSecMission 29847.816869331
scalar OsgEarthNet.uav[97] utilizationSecMaintenance 13071.300452866
scalar OsgEarthNet.uav[97] utilizationSecCharge 154242.52907054
scalar OsgEarthNet.uav[97] utilizationSecIdle 62038.352607263
scalar OsgEarthNet.uav[97] utilizationEnergyMission 145118.33055496
scalar OsgEarthNet.uav[97] utilizationEnergyMaintenance 61471.502040863
scalar OsgEarthNet.uav[97] utilizationEnergyCharge 199935.82598877
scalar OsgEarthNet.uav[97] utilizationEnergyOverdrawMission 0
scalar OsgEarthNet.uav[97] utilizationEnergyOverdrawMaintenance 0
scalar OsgEarthNet.uav[97] utilizationCountMissions 44
scalar OsgEarthNet.uav[97] utilizationCountManeuversMission 814
scalar OsgEarthNet.uav[97] utilizationCountManeuversMaintenance 88
scalar OsgEarthNet.uav[97] utilizationCountChargeState 44
scalar OsgEarthNet.uav[97] utilizationCountOverdrawnAfterMission 0
scalar OsgEarthNet.uav[97] utilizationCountIdleState 44
scalar OsgEarthNet.uav[97] utilizationFail 0
scalar OsgEarthNet.uav[97] simulationTime 259200
scalar OsgEarthNet.uav[98] utilizationSecMission 27579.287396555
scalar OsgEarthNet.uav[98] utilizationSecMaintenance 16403.261339414
scalar OsgEarthNet.uav[98] utilizationSecCharge 159740
scalar OsgEarthNet.uav[98] utilizationSecIdle 55477.450264031
scalar OsgEarthNet.uav[98] utilizationEnergyMission 132086.353993
scalar OsgEarthNet.uav[98] utilizationEnergyMaintenance 77401.702411651
scalar OsgEarthNet.uav[98] utilizationEnergyCharge 207394.82324219
scalar OsgEarthNet.uav[98] utilizationEnergyOverdrawMission 0
scalar OsgEarthNet.uav[98] utilizationEnergyOverdrawMaintenance 0
scalar OsgEarthNet.uav[98] utilizationCountMissions 45
scalar OsgEarthNet.uav[98] utilizationCountManeuversMission 839
scalar OsgEarthNet.uav[98] utilizationCountManeuversMaintenance 91
scalar OsgEarthNet.uav[98] utilizationCountChargeState 45
scalar OsgEarthNet.uav[98] utilizationCountOverdrawnAfterMission 0
scalar OsgEarthNet.uav[98] utilizationCountIdleState 42
scalar OsgEarthNet.uav[98] utilizationFail 0
scalar OsgEarthNet.uav[98] simulationTime 259200
scalar OsgEarthNet.uav[99] utilizationSecMission 24434.835975438
scalar OsgEarthNet.uav[99] utilizationSecMaintenance 12973.265059021
scalar OsgEarthNet.uav[99] utilizationSecCharge 137210
scalar OsgEarthNet.uav[99] utilizationSecIdle 84581.897965542
scalar OsgEarthNet.uav[99] utilizationEnergyMission 116172.07608795
scalar OsgEarthNet.uav[99] utilizationEnergyMaintenance 60523.700706482
scalar OsgEarthNet.uav[99] utilizationEnergyCharge 176390.59472656
scalar OsgEarthNet.uav[99] utilizationEnergyOverdrawMission 0
scalar OsgEarthNet.uav[99] utilizationEnergyOverdrawMaintenance 0
scalar OsgEarthNet.uav[99] utilizationCountMissions 39
scalar OsgEarthNet.uav[99] utilizationCountManeuversMission 724
scalar OsgEarthNet.uav[99] utilizationCountManeuversMaintenance 78
scalar OsgEarthNet.uav[99] utilizationCountChargeState 39
scalar OsgEarthNet.uav[99] utilizationCountOverdrawnAfterMission 0
scalar OsgEarthNet.uav[99] utilizationCountIdleState 39
scalar OsgEarthNet.uav[99] utilizationFail 0
scalar OsgEarthNet.uav[99] simulationTime 259200
scalar OsgEarthNet.cs[0] usedPower 4051831.5842095
scalar OsgEarthNet.cs[0] chargedPower 4051831.5842095
scalar OsgEarthNet.cs[0] chargedMobileNodes 886
scalar OsgEarthNet.cs[0] reservations 900
scalar OsgEarthNet.cs[1] usedPower 3914905.7903443
scalar OsgEarthNet.cs[1] chargedPower 3914905.7903443
scalar OsgEarthNet.cs[1] chargedMobileNodes 668
scalar OsgEarthNet.cs[1] reservations 853
scalar OsgEarthNet.cs[2] usedPower 8863887.7899326
scalar OsgEarthNet.cs[2] chargedPower 8863887.7899326
scalar OsgEarthNet.cs[2] chargedMobileNodes 1798
scalar OsgEarthNet.cs[2] reservations 1930

