version 2
run Szenario_Hotel_Gabelbach-12-20180711-16:38:32-2372
attr configname Szenario_Hotel_Gabelbach
attr datetime 20180711-16:38:32
attr experiment Szenario_Hotel_Gabelbach
attr inifile omnetpp.ini
attr iterationvars "$replM=0, $replSearchM=0"
attr iterationvarsf replM=0,replSearchM=0-
attr measurement "$replM=0, $replSearchM=0"
attr network OsgEarthNet
attr processid 2372
attr repetition 12
attr replication #12
attr resultdir results
attr runnumber 12
attr seedset 12
itervar replM 0
itervar replSearchM 0
param *.osgEarthScene.scene "\"Szenario_Hotel_Gabelbach.earth\""
param *.playgroundLatitude 50.6830269
param *.playgroundLongitude 10.8538055
param *.playgroundWidth 3500m
param *.playgroundHeight 3500m
param *.numCSs 3
param *.numUAVs 100
param *.cs[0].posX 3537m
param *.cs[0].posY 965m
param *.cs[0].posZ 538m
param *.cs[1].posX 312m
param *.cs[1].posY 1262m
param *.cs[1].posZ 539m
param *.cs[2].posX 2185m
param *.cs[2].posY 3026m
param *.cs[2].posZ 777m
param *.cs[3].posX 10m
param *.cs[3].posY 2200m
param *.cs[3].posZ 560m
param *.cs[4].posX 750m
param *.cs[4].posY 200m
param *.cs[4].posZ 540m
param *.cs[5].posX 2450m
param *.cs[5].posY 180m
param *.cs[5].posZ 524m
param *.cs[6].posX 3140m
param *.cs[6].posY 1790m
param *.cs[6].posZ 606m
param *.numCSs 3
param *.numUAVs 100
param *.uav[*].replacementMethod 0
param *.missionControl.replacementSearchMethod 0
param *.*.timeStep 10s
param *.uav[*].commandPreviewCommandCount 20
param *.missionControl.missionFiles "\"missions\\\\Szenario_WB_Hotel_Gabelbach_Mission_Hotel.waypoints,missions\\\\Szenario_WB_Hotel_Gabelbach_Mission_Kickelhahn.waypoints,missions\\\\Szenario_WB_Hotel_Gabelbach_Mission_Ilmenau_Sportplatz.waypoints,missions\\\\Szenario_WB_Hotel_Gabelbach_Mission_Manebach_Mitte.waypoints,missions\\\\Szenario_WB_Hotel_Gabelbach_Mission_Manebach_Sued.waypoints,missions\\\\Szenario_WB_Hotel_Gabelbach_Hover_HoheSchlaufe.waypoints,missions\\\\Szenario_WB_Hotel_Gabelbach_Hover_Kickelhahn.waypoints,missions\\\\Szenario_WB_Hotel_Gabelbach_Hover_Gabelbachskopf.waypoints,missions\\\\Szenario_WB_Hotel_Gabelbach_Hover_Dachskopf.waypoints\""
param *.uav[0].startX 3537m
param *.uav[0].startY 965m
param *.uav[0].startZ 539m
param *.uav[1].startX 312m
param *.uav[1].startY 1262m
param *.uav[1].startZ 540m
param *.uav[2].startX 2185m
param *.uav[2].startY 3026m
param *.uav[2].startZ 778m
param *.uav[3].startX 3537m
param *.uav[3].startY 965m
param *.uav[3].startZ 539m
param *.uav[4].startX 312m
param *.uav[4].startY 1262m
param *.uav[4].startZ 540m
param *.uav[5].startX 2185m
param *.uav[5].startY 3026m
param *.uav[5].startZ 778m
param *.uav[6].startX 3537m
param *.uav[6].startY 965m
param *.uav[6].startZ 539m
param *.uav[7].startX 312m
param *.uav[7].startY 1262m
param *.uav[7].startZ 540m
param *.uav[8].startX 2185m
param *.uav[8].startY 3026m
param *.uav[8].startZ 778m
param *.uav[9].startX 3537m
param *.uav[9].startY 965m
param *.uav[9].startZ 539m
param *.uav[10].startX 3537m
param *.uav[10].startY 965m
param *.uav[10].startZ 539m
param *.uav[11].startX 312m
param *.uav[11].startY 1262m
param *.uav[11].startZ 540m
param *.uav[12].startX 2185m
param *.uav[12].startY 3026m
param *.uav[12].startZ 778m
param *.uav[13].startX 3537m
param *.uav[13].startY 965m
param *.uav[13].startZ 539m
param *.uav[14].startX 312m
param *.uav[14].startY 1262m
param *.uav[14].startZ 540m
param *.uav[15].startX 2185m
param *.uav[15].startY 3026m
param *.uav[15].startZ 778m
param *.uav[16].startX 3537m
param *.uav[16].startY 965m
param *.uav[16].startZ 539m
param *.uav[17].startX 312m
param *.uav[17].startY 1262m
param *.uav[17].startZ 540m
param *.uav[18].startX 2185m
param *.uav[18].startY 3026m
param *.uav[18].startZ 778m
param *.uav[19].startX 3537m
param *.uav[19].startY 965m
param *.uav[19].startZ 539m
param *.uav[20].startX 3537m
param *.uav[20].startY 965m
param *.uav[20].startZ 539m
param *.uav[21].startX 312m
param *.uav[21].startY 1262m
param *.uav[21].startZ 540m
param *.uav[22].startX 2185m
param *.uav[22].startY 3026m
param *.uav[22].startZ 778m
param *.uav[23].startX 3537m
param *.uav[23].startY 965m
param *.uav[23].startZ 539m
param *.uav[24].startX 312m
param *.uav[24].startY 1262m
param *.uav[24].startZ 540m
param *.uav[25].startX 2185m
param *.uav[25].startY 3026m
param *.uav[25].startZ 778m
param *.uav[26].startX 3537m
param *.uav[26].startY 965m
param *.uav[26].startZ 539m
param *.uav[27].startX 312m
param *.uav[27].startY 1262m
param *.uav[27].startZ 540m
param *.uav[28].startX 2185m
param *.uav[28].startY 3026m
param *.uav[28].startZ 778m
param *.uav[29].startX 3537m
param *.uav[29].startY 965m
param *.uav[29].startZ 539m
param *.uav[30].startX 3537m
param *.uav[30].startY 965m
param *.uav[30].startZ 539m
param *.uav[31].startX 312m
param *.uav[31].startY 1262m
param *.uav[31].startZ 540m
param *.uav[32].startX 2185m
param *.uav[32].startY 3026m
param *.uav[32].startZ 778m
param *.uav[33].startX 3537m
param *.uav[33].startY 965m
param *.uav[33].startZ 539m
param *.uav[34].startX 312m
param *.uav[34].startY 1262m
param *.uav[34].startZ 540m
param *.uav[35].startX 2185m
param *.uav[35].startY 3026m
param *.uav[35].startZ 778m
param *.uav[36].startX 3537m
param *.uav[36].startY 965m
param *.uav[36].startZ 539m
param *.uav[37].startX 312m
param *.uav[37].startY 1262m
param *.uav[37].startZ 540m
param *.uav[38].startX 2185m
param *.uav[38].startY 3026m
param *.uav[38].startZ 778m
param *.uav[39].startX 3537m
param *.uav[39].startY 965m
param *.uav[39].startZ 539m
param *.uav[40].startX 3537m
param *.uav[40].startY 965m
param *.uav[40].startZ 539m
param *.uav[41].startX 312m
param *.uav[41].startY 1262m
param *.uav[41].startZ 540m
param *.uav[42].startX 2185m
param *.uav[42].startY 3026m
param *.uav[42].startZ 778m
param *.uav[43].startX 3537m
param *.uav[43].startY 965m
param *.uav[43].startZ 539m
param *.uav[44].startX 312m
param *.uav[44].startY 1262m
param *.uav[44].startZ 540m
param *.uav[45].startX 2185m
param *.uav[45].startY 3026m
param *.uav[45].startZ 778m
param *.uav[46].startX 3537m
param *.uav[46].startY 965m
param *.uav[46].startZ 539m
param *.uav[47].startX 312m
param *.uav[47].startY 1262m
param *.uav[47].startZ 540m
param *.uav[48].startX 2185m
param *.uav[48].startY 3026m
param *.uav[48].startZ 778m
param *.uav[49].startX 3537m
param *.uav[49].startY 965m
param *.uav[49].startZ 539m
param *.uav[50].startX 3537m
param *.uav[50].startY 965m
param *.uav[50].startZ 539m
param *.uav[51].startX 312m
param *.uav[51].startY 1262m
param *.uav[51].startZ 540m
param *.uav[52].startX 2185m
param *.uav[52].startY 3026m
param *.uav[52].startZ 778m
param *.uav[53].startX 3537m
param *.uav[53].startY 965m
param *.uav[53].startZ 539m
param *.uav[54].startX 312m
param *.uav[54].startY 1262m
param *.uav[54].startZ 540m
param *.uav[55].startX 2185m
param *.uav[55].startY 3026m
param *.uav[55].startZ 778m
param *.uav[56].startX 3537m
param *.uav[56].startY 965m
param *.uav[56].startZ 539m
param *.uav[57].startX 312m
param *.uav[57].startY 1262m
param *.uav[57].startZ 540m
param *.uav[58].startX 2185m
param *.uav[58].startY 3026m
param *.uav[58].startZ 778m
param *.uav[59].startX 3537m
param *.uav[59].startY 965m
param *.uav[59].startZ 539m
param *.uav[60].startX 3537m
param *.uav[60].startY 965m
param *.uav[60].startZ 539m
param *.uav[61].startX 312m
param *.uav[61].startY 1262m
param *.uav[61].startZ 540m
param *.uav[62].startX 2185m
param *.uav[62].startY 3026m
param *.uav[62].startZ 778m
param *.uav[63].startX 3537m
param *.uav[63].startY 965m
param *.uav[63].startZ 539m
param *.uav[64].startX 312m
param *.uav[64].startY 1262m
param *.uav[64].startZ 540m
param *.uav[65].startX 2185m
param *.uav[65].startY 3026m
param *.uav[65].startZ 778m
param *.uav[66].startX 3537m
param *.uav[66].startY 965m
param *.uav[66].startZ 539m
param *.uav[67].startX 312m
param *.uav[67].startY 1262m
param *.uav[67].startZ 540m
param *.uav[68].startX 2185m
param *.uav[68].startY 3026m
param *.uav[68].startZ 778m
param *.uav[69].startX 3537m
param *.uav[69].startY 965m
param *.uav[69].startZ 539m
param *.uav[70].startX 3537m
param *.uav[70].startY 965m
param *.uav[70].startZ 539m
param *.uav[71].startX 312m
param *.uav[71].startY 1262m
param *.uav[71].startZ 540m
param *.uav[72].startX 2185m
param *.uav[72].startY 3026m
param *.uav[72].startZ 778m
param *.uav[73].startX 3537m
param *.uav[73].startY 965m
param *.uav[73].startZ 539m
param *.uav[74].startX 312m
param *.uav[74].startY 1262m
param *.uav[74].startZ 540m
param *.uav[75].startX 2185m
param *.uav[75].startY 3026m
param *.uav[75].startZ 778m
param *.uav[76].startX 3537m
param *.uav[76].startY 965m
param *.uav[76].startZ 539m
param *.uav[77].startX 312m
param *.uav[77].startY 1262m
param *.uav[77].startZ 540m
param *.uav[78].startX 2185m
param *.uav[78].startY 3026m
param *.uav[78].startZ 778m
param *.uav[79].startX 3537m
param *.uav[79].startY 965m
param *.uav[79].startZ 539m
param *.uav[80].startX 3537m
param *.uav[80].startY 965m
param *.uav[80].startZ 539m
param *.uav[81].startX 312m
param *.uav[81].startY 1262m
param *.uav[81].startZ 540m
param *.uav[82].startX 2185m
param *.uav[82].startY 3026m
param *.uav[82].startZ 778m
param *.uav[83].startX 3537m
param *.uav[83].startY 965m
param *.uav[83].startZ 539m
param *.uav[84].startX 312m
param *.uav[84].startY 1262m
param *.uav[84].startZ 540m
param *.uav[85].startX 2185m
param *.uav[85].startY 3026m
param *.uav[85].startZ 778m
param *.uav[86].startX 3537m
param *.uav[86].startY 965m
param *.uav[86].startZ 539m
param *.uav[87].startX 312m
param *.uav[87].startY 1262m
param *.uav[87].startZ 540m
param *.uav[88].startX 2185m
param *.uav[88].startY 3026m
param *.uav[88].startZ 778m
param *.uav[89].startX 3537m
param *.uav[89].startY 965m
param *.uav[89].startZ 539m
param *.uav[90].startX 3537m
param *.uav[90].startY 965m
param *.uav[90].startZ 539m
param *.uav[91].startX 312m
param *.uav[91].startY 1262m
param *.uav[91].startZ 540m
param *.uav[92].startX 2185m
param *.uav[92].startY 3026m
param *.uav[92].startZ 778m
param *.uav[93].startX 3537m
param *.uav[93].startY 965m
param *.uav[93].startZ 539m
param *.uav[94].startX 312m
param *.uav[94].startY 1262m
param *.uav[94].startZ 540m
param *.uav[95].startX 2185m
param *.uav[95].startY 3026m
param *.uav[95].startZ 778m
param *.uav[96].startX 3537m
param *.uav[96].startY 965m
param *.uav[96].startZ 539m
param *.uav[97].startX 312m
param *.uav[97].startY 1262m
param *.uav[97].startZ 540m
param *.uav[98].startX 2185m
param *.uav[98].startY 3026m
param *.uav[98].startZ 778m
param *.uav[99].startX 3537m
param *.uav[99].startY 965m
param *.uav[99].startZ 539m
param *.osgEarthScene.scene "\"boston.earth\""
param *.playgroundLatitude 42.3558
param *.playgroundLongitude -71.0677
param *.playgroundWidth 400m
param *.playgroundHeight 200m
param *.channelController.connectionColor "\"#0000FF40\""
param *.channelController.showConnections false
param *.uav[*].modelURL "\"quadrocopter.small.obj.15.scale.0,0,90.rot\""
param *.uav[*].labelColor "\"#FF7C00CC\""
param *.uav[*].label2Color "\"#FF7C00EE\""
param *.uav[*].batteryCapacity 5200mAh
param *.uav[*].batteryRemaining uav[index].batteryCapacity
param *.uav[*].predictionQuantile 0.95
param *.uav[*].replacementMethod 2
param *.uav[*].weightedSumWeight 0.5
param *.cs[*].modelURL "\"chargingstation_v1.osgt.2.scale.0,0,0.rot.0,0,-15e-1.trans\""
param *.cs[*].spotsWaiting 999
param *.cs[*].spotsCharging 999
param *.cs[*].chargeEffectivenessPercentage 100
param *.cs[*].nonLinearPhaseStartPercentage 85
param *.cs[*].chargeCurrent 6.0A
param *.cs[*].prioritizeFastCharge true
param *.missionControl.replacementSearchMethod 0
param *.*.timeStep 9s

scalar OsgEarthNet.uav[0] utilizationSecMission 22584.733230952
scalar OsgEarthNet.uav[0] utilizationSecMaintenance 21009.638759356
scalar OsgEarthNet.uav[0] utilizationSecCharge 157240.87509983
scalar OsgEarthNet.uav[0] utilizationSecIdle 58364.751909859
scalar OsgEarthNet.uav[0] utilizationEnergyMission 109627.9411087
scalar OsgEarthNet.uav[0] utilizationEnergyMaintenance 98561.310966492
scalar OsgEarthNet.uav[0] utilizationEnergyCharge 206285.31616211
scalar OsgEarthNet.uav[0] utilizationEnergyOverdrawMission 0
scalar OsgEarthNet.uav[0] utilizationEnergyOverdrawMaintenance 0
scalar OsgEarthNet.uav[0] utilizationCountMissions 47
scalar OsgEarthNet.uav[0] utilizationCountManeuversMission 729
scalar OsgEarthNet.uav[0] utilizationCountManeuversMaintenance 94
scalar OsgEarthNet.uav[0] utilizationCountChargeState 47
scalar OsgEarthNet.uav[0] utilizationCountOverdrawnAfterMission 0
scalar OsgEarthNet.uav[0] utilizationCountIdleState 47
scalar OsgEarthNet.uav[0] utilizationFail 0
scalar OsgEarthNet.uav[0] simulationTime 259200
scalar OsgEarthNet.uav[1] utilizationSecMission 28941.130220454
scalar OsgEarthNet.uav[1] utilizationSecMaintenance 21150.516172283
scalar OsgEarthNet.uav[1] utilizationSecCharge 180100
scalar OsgEarthNet.uav[1] utilizationSecIdle 29008.352607263
scalar OsgEarthNet.uav[1] utilizationEnergyMission 140553.44766623
scalar OsgEarthNet.uav[1] utilizationEnergyMaintenance 97864.512329102
scalar OsgEarthNet.uav[1] utilizationEnergyCharge 235258.55297852
scalar OsgEarthNet.uav[1] utilizationEnergyOverdrawMission 0
scalar OsgEarthNet.uav[1] utilizationEnergyOverdrawMaintenance 0
scalar OsgEarthNet.uav[1] utilizationCountMissions 53
scalar OsgEarthNet.uav[1] utilizationCountManeuversMission 881
scalar OsgEarthNet.uav[1] utilizationCountManeuversMaintenance 107
scalar OsgEarthNet.uav[1] utilizationCountChargeState 53
scalar OsgEarthNet.uav[1] utilizationCountOverdrawnAfterMission 0
scalar OsgEarthNet.uav[1] utilizationCountIdleState 54
scalar OsgEarthNet.uav[1] utilizationFail 0
scalar OsgEarthNet.uav[1] simulationTime 259200
scalar OsgEarthNet.uav[2] utilizationSecMission 17826.74511476
scalar OsgEarthNet.uav[2] utilizationSecMaintenance 15398.914278532
scalar OsgEarthNet.uav[2] utilizationSecCharge 119109.62885493
scalar OsgEarthNet.uav[2] utilizationSecIdle 106864.71075178
scalar OsgEarthNet.uav[2] utilizationEnergyMission 86192.64465332
scalar OsgEarthNet.uav[2] utilizationEnergyMaintenance 71501.306602478
scalar OsgEarthNet.uav[2] utilizationEnergyCharge 156226.54711914
scalar OsgEarthNet.uav[2] utilizationEnergyOverdrawMission 0
scalar OsgEarthNet.uav[2] utilizationEnergyOverdrawMaintenance 0
scalar OsgEarthNet.uav[2] utilizationCountMissions 36
scalar OsgEarthNet.uav[2] utilizationCountManeuversMission 612
scalar OsgEarthNet.uav[2] utilizationCountManeuversMaintenance 72
scalar OsgEarthNet.uav[2] utilizationCountChargeState 36
scalar OsgEarthNet.uav[2] utilizationCountOverdrawnAfterMission 0
scalar OsgEarthNet.uav[2] utilizationCountIdleState 36
scalar OsgEarthNet.uav[2] utilizationFail 0
scalar OsgEarthNet.uav[2] simulationTime 259200
scalar OsgEarthNet.uav[3] utilizationSecMission 25656.724047787
scalar OsgEarthNet.uav[3] utilizationSecMaintenance 24396.294293213
scalar OsgEarthNet.uav[3] utilizationSecCharge 182224.978659
scalar OsgEarthNet.uav[3] utilizationSecIdle 26922.002
scalar OsgEarthNet.uav[3] utilizationEnergyMission 126268.72280502
scalar OsgEarthNet.uav[3] utilizationEnergyMaintenance 113784.5543251
scalar OsgEarthNet.uav[3] utilizationEnergyCharge 239652.76953125
scalar OsgEarthNet.uav[3] utilizationEnergyOverdrawMission 0
scalar OsgEarthNet.uav[3] utilizationEnergyOverdrawMaintenance 0
scalar OsgEarthNet.uav[3] utilizationCountMissions 54
scalar OsgEarthNet.uav[3] utilizationCountManeuversMission 808
scalar OsgEarthNet.uav[3] utilizationCountManeuversMaintenance 108
scalar OsgEarthNet.uav[3] utilizationCountChargeState 54
scalar OsgEarthNet.uav[3] utilizationCountOverdrawnAfterMission 0
scalar OsgEarthNet.uav[3] utilizationCountIdleState 54
scalar OsgEarthNet.uav[3] utilizationFail 0
scalar OsgEarthNet.uav[3] simulationTime 259200
scalar OsgEarthNet.uav[4] utilizationSecMission 940
scalar OsgEarthNet.uav[4] utilizationSecMaintenance 897.95704155868
scalar OsgEarthNet.uav[4] utilizationSecCharge 7010
scalar OsgEarthNet.uav[4] utilizationSecIdle 250352.04195844
scalar OsgEarthNet.uav[4] utilizationEnergyMission 4323.2677116394
scalar OsgEarthNet.uav[4] utilizationEnergyMaintenance 4162.8883895874
scalar OsgEarthNet.uav[4] utilizationEnergyCharge 9136.935546875
scalar OsgEarthNet.uav[4] utilizationEnergyOverdrawMission 0
scalar OsgEarthNet.uav[4] utilizationEnergyOverdrawMaintenance 0
scalar OsgEarthNet.uav[4] utilizationCountMissions 2
scalar OsgEarthNet.uav[4] utilizationCountManeuversMission 47
scalar OsgEarthNet.uav[4] utilizationCountManeuversMaintenance 4
scalar OsgEarthNet.uav[4] utilizationCountChargeState 2
scalar OsgEarthNet.uav[4] utilizationCountOverdrawnAfterMission 0
scalar OsgEarthNet.uav[4] utilizationCountIdleState 3
scalar OsgEarthNet.uav[4] utilizationFail 0
scalar OsgEarthNet.uav[4] simulationTime 259200
scalar OsgEarthNet.uav[5] utilizationSecMission 25475.062598339
scalar OsgEarthNet.uav[5] utilizationSecMaintenance 24312.605656506
scalar OsgEarthNet.uav[5] utilizationSecCharge 181060.32874516
scalar OsgEarthNet.uav[5] utilizationSecIdle 28352.002
scalar OsgEarthNet.uav[5] utilizationEnergyMission 123349.84507751
scalar OsgEarthNet.uav[5] utilizationEnergyMaintenance 111935.62204742
scalar OsgEarthNet.uav[5] utilizationEnergyCharge 236082.35375977
scalar OsgEarthNet.uav[5] utilizationEnergyOverdrawMission 0
scalar OsgEarthNet.uav[5] utilizationEnergyOverdrawMaintenance 0
scalar OsgEarthNet.uav[5] utilizationCountMissions 54
scalar OsgEarthNet.uav[5] utilizationCountManeuversMission 817
scalar OsgEarthNet.uav[5] utilizationCountManeuversMaintenance 108
scalar OsgEarthNet.uav[5] utilizationCountChargeState 54
scalar OsgEarthNet.uav[5] utilizationCountOverdrawnAfterMission 0
scalar OsgEarthNet.uav[5] utilizationCountIdleState 54
scalar OsgEarthNet.uav[5] utilizationFail 0
scalar OsgEarthNet.uav[5] simulationTime 259200
scalar OsgEarthNet.uav[6] utilizationSecMission 581.19640448947
scalar OsgEarthNet.uav[6] utilizationSecMaintenance 393.71026136566
scalar OsgEarthNet.uav[6] utilizationSecCharge 3570
scalar OsgEarthNet.uav[6] utilizationSecIdle 254655.09233414
scalar OsgEarthNet.uav[6] utilizationEnergyMission 2720.3427734375
scalar OsgEarthNet.uav[6] utilizationEnergyMaintenance 2021.8106613159
scalar OsgEarthNet.uav[6] utilizationEnergyCharge 4689.359375
scalar OsgEarthNet.uav[6] utilizationEnergyOverdrawMission 0
scalar OsgEarthNet.uav[6] utilizationEnergyOverdrawMaintenance 0
scalar OsgEarthNet.uav[6] utilizationCountMissions 1
scalar OsgEarthNet.uav[6] utilizationCountManeuversMission 9
scalar OsgEarthNet.uav[6] utilizationCountManeuversMaintenance 2
scalar OsgEarthNet.uav[6] utilizationCountChargeState 1
scalar OsgEarthNet.uav[6] utilizationCountOverdrawnAfterMission 0
scalar OsgEarthNet.uav[6] utilizationCountIdleState 2
scalar OsgEarthNet.uav[6] utilizationFail 0
scalar OsgEarthNet.uav[6] simulationTime 259200
scalar OsgEarthNet.uav[7] utilizationSecMission 23988.097094335
scalar OsgEarthNet.uav[7] utilizationSecMaintenance 21791.389830345
scalar OsgEarthNet.uav[7] utilizationSecCharge 164478.50207532
scalar OsgEarthNet.uav[7] utilizationSecIdle 48942.01
scalar OsgEarthNet.uav[7] utilizationEnergyMission 115706.03878021
scalar OsgEarthNet.uav[7] utilizationEnergyMaintenance 100289.02807999
scalar OsgEarthNet.uav[7] utilizationEnergyCharge 215184.98681641
scalar OsgEarthNet.uav[7] utilizationEnergyOverdrawMission 0
scalar OsgEarthNet.uav[7] utilizationEnergyOverdrawMaintenance 0
scalar OsgEarthNet.uav[7] utilizationCountMissions 49
scalar OsgEarthNet.uav[7] utilizationCountManeuversMission 754
scalar OsgEarthNet.uav[7] utilizationCountManeuversMaintenance 98
scalar OsgEarthNet.uav[7] utilizationCountChargeState 49
scalar OsgEarthNet.uav[7] utilizationCountOverdrawnAfterMission 0
scalar OsgEarthNet.uav[7] utilizationCountIdleState 49
scalar OsgEarthNet.uav[7] utilizationFail 0
scalar OsgEarthNet.uav[7] simulationTime 259200
scalar OsgEarthNet.uav[8] utilizationSecMission 19622.188999489
scalar OsgEarthNet.uav[8] utilizationSecMaintenance 19797.846861647
scalar OsgEarthNet.uav[8] utilizationSecCharge 143310.12632482
scalar OsgEarthNet.uav[8] utilizationSecIdle 76469.83681404
scalar OsgEarthNet.uav[8] utilizationEnergyMission 96327.987163544
scalar OsgEarthNet.uav[8] utilizationEnergyMaintenance 92667.852958679
scalar OsgEarthNet.uav[8] utilizationEnergyCharge 187533.79785156
scalar OsgEarthNet.uav[8] utilizationEnergyOverdrawMission 0
scalar OsgEarthNet.uav[8] utilizationEnergyOverdrawMaintenance 136.09185791016
scalar OsgEarthNet.uav[8] utilizationCountMissions 43
scalar OsgEarthNet.uav[8] utilizationCountManeuversMission 667
scalar OsgEarthNet.uav[8] utilizationCountManeuversMaintenance 86
scalar OsgEarthNet.uav[8] utilizationCountChargeState 43
scalar OsgEarthNet.uav[8] utilizationCountOverdrawnAfterMission 1
scalar OsgEarthNet.uav[8] utilizationCountIdleState 43
scalar OsgEarthNet.uav[8] utilizationFail 0
scalar OsgEarthNet.uav[8] simulationTime 259200
scalar OsgEarthNet.uav[9] utilizationSecMission 26047.679701166
scalar OsgEarthNet.uav[9] utilizationSecMaintenance 21501.731547761
scalar OsgEarthNet.uav[9] utilizationSecCharge 171226.56846962
scalar OsgEarthNet.uav[9] utilizationSecIdle 40424.019281449
scalar OsgEarthNet.uav[9] utilizationEnergyMission 125013.86278534
scalar OsgEarthNet.uav[9] utilizationEnergyMaintenance 100248.5161705
scalar OsgEarthNet.uav[9] utilizationEnergyCharge 224783.19311523
scalar OsgEarthNet.uav[9] utilizationEnergyOverdrawMission 0
scalar OsgEarthNet.uav[9] utilizationEnergyOverdrawMaintenance 0
scalar OsgEarthNet.uav[9] utilizationCountMissions 51
scalar OsgEarthNet.uav[9] utilizationCountManeuversMission 848
scalar OsgEarthNet.uav[9] utilizationCountManeuversMaintenance 102
scalar OsgEarthNet.uav[9] utilizationCountChargeState 51
scalar OsgEarthNet.uav[9] utilizationCountOverdrawnAfterMission 0
scalar OsgEarthNet.uav[9] utilizationCountIdleState 51
scalar OsgEarthNet.uav[9] utilizationFail 0
scalar OsgEarthNet.uav[9] simulationTime 259200
scalar OsgEarthNet.uav[10] utilizationSecMission 24550.727005862
scalar OsgEarthNet.uav[10] utilizationSecMaintenance 22402.913906639
scalar OsgEarthNet.uav[10] utilizationSecCharge 169594.3480875
scalar OsgEarthNet.uav[10] utilizationSecIdle 42652.01
scalar OsgEarthNet.uav[10] utilizationEnergyMission 119570.28360367
scalar OsgEarthNet.uav[10] utilizationEnergyMaintenance 104432.63420868
scalar OsgEarthNet.uav[10] utilizationEnergyCharge 223508.1887207
scalar OsgEarthNet.uav[10] utilizationEnergyOverdrawMission 0
scalar OsgEarthNet.uav[10] utilizationEnergyOverdrawMaintenance 0
scalar OsgEarthNet.uav[10] utilizationCountMissions 50
scalar OsgEarthNet.uav[10] utilizationCountManeuversMission 779
scalar OsgEarthNet.uav[10] utilizationCountManeuversMaintenance 100
scalar OsgEarthNet.uav[10] utilizationCountChargeState 50
scalar OsgEarthNet.uav[10] utilizationCountOverdrawnAfterMission 0
scalar OsgEarthNet.uav[10] utilizationCountIdleState 50
scalar OsgEarthNet.uav[10] utilizationFail 0
scalar OsgEarthNet.uav[10] simulationTime 259200
scalar OsgEarthNet.uav[11] utilizationSecMission 27199.262650319
scalar OsgEarthNet.uav[11] utilizationSecMaintenance 23024.832487171
scalar OsgEarthNet.uav[11] utilizationSecCharge 180523.89886251
scalar OsgEarthNet.uav[11] utilizationSecIdle 28452.005
scalar OsgEarthNet.uav[11] utilizationEnergyMission 131240.32970428
scalar OsgEarthNet.uav[11] utilizationEnergyMaintenance 108077.0506134
scalar OsgEarthNet.uav[11] utilizationEnergyCharge 238663.65625
scalar OsgEarthNet.uav[11] utilizationEnergyOverdrawMission 0
scalar OsgEarthNet.uav[11] utilizationEnergyOverdrawMaintenance 25.494916915894
scalar OsgEarthNet.uav[11] utilizationCountMissions 53
scalar OsgEarthNet.uav[11] utilizationCountManeuversMission 847
scalar OsgEarthNet.uav[11] utilizationCountManeuversMaintenance 106
scalar OsgEarthNet.uav[11] utilizationCountChargeState 53
scalar OsgEarthNet.uav[11] utilizationCountOverdrawnAfterMission 1
scalar OsgEarthNet.uav[11] utilizationCountIdleState 53
scalar OsgEarthNet.uav[11] utilizationFail 0
scalar OsgEarthNet.uav[11] simulationTime 259200
scalar OsgEarthNet.uav[12] utilizationSecMission 23838.200415381
scalar OsgEarthNet.uav[12] utilizationSecMaintenance 14933.559337395
scalar OsgEarthNet.uav[12] utilizationSecCharge 138098.78089913
scalar OsgEarthNet.uav[12] utilizationSecIdle 82329.458348089
scalar OsgEarthNet.uav[12] utilizationEnergyMission 115119.87514877
scalar OsgEarthNet.uav[12] utilizationEnergyMaintenance 68607.87046814
scalar OsgEarthNet.uav[12] utilizationEnergyCharge 182039.20532227
scalar OsgEarthNet.uav[12] utilizationEnergyOverdrawMission 0
scalar OsgEarthNet.uav[12] utilizationEnergyOverdrawMaintenance 0
scalar OsgEarthNet.uav[12] utilizationCountMissions 41
scalar OsgEarthNet.uav[12] utilizationCountManeuversMission 675
scalar OsgEarthNet.uav[12] utilizationCountManeuversMaintenance 82
scalar OsgEarthNet.uav[12] utilizationCountChargeState 41
scalar OsgEarthNet.uav[12] utilizationCountOverdrawnAfterMission 0
scalar OsgEarthNet.uav[12] utilizationCountIdleState 41
scalar OsgEarthNet.uav[12] utilizationFail 0
scalar OsgEarthNet.uav[12] simulationTime 259200
scalar OsgEarthNet.uav[13] utilizationSecMission 406.05775011247
scalar OsgEarthNet.uav[13] utilizationSecMaintenance 476.61924102071
scalar OsgEarthNet.uav[13] utilizationSecCharge 3370
scalar OsgEarthNet.uav[13] utilizationSecIdle 254947.32200887
scalar OsgEarthNet.uav[13] utilizationEnergyMission 1924.5772705078
scalar OsgEarthNet.uav[13] utilizationEnergyMaintenance 2418.5080795288
scalar OsgEarthNet.uav[13] utilizationEnergyCharge 4343.0908203125
scalar OsgEarthNet.uav[13] utilizationEnergyOverdrawMission 0
scalar OsgEarthNet.uav[13] utilizationEnergyOverdrawMaintenance 0
scalar OsgEarthNet.uav[13] utilizationCountMissions 1
scalar OsgEarthNet.uav[13] utilizationCountManeuversMission 6
scalar OsgEarthNet.uav[13] utilizationCountManeuversMaintenance 2
scalar OsgEarthNet.uav[13] utilizationCountChargeState 1
scalar OsgEarthNet.uav[13] utilizationCountOverdrawnAfterMission 0
scalar OsgEarthNet.uav[13] utilizationCountIdleState 2
scalar OsgEarthNet.uav[13] utilizationFail 0
scalar OsgEarthNet.uav[13] simulationTime 259200
scalar OsgEarthNet.uav[14] utilizationSecMission 507.8647069725
scalar OsgEarthNet.uav[14] utilizationSecMaintenance 432.03860364029
scalar OsgEarthNet.uav[14] utilizationSecCharge 3570
scalar OsgEarthNet.uav[14] utilizationSecIdle 254690.09568939
scalar OsgEarthNet.uav[14] utilizationEnergyMission 2636.7451171875
scalar OsgEarthNet.uav[14] utilizationEnergyMaintenance 2199.3539543152
scalar OsgEarthNet.uav[14] utilizationEnergyCharge 4737.9912109375
scalar OsgEarthNet.uav[14] utilizationEnergyOverdrawMission 0
scalar OsgEarthNet.uav[14] utilizationEnergyOverdrawMaintenance 0
scalar OsgEarthNet.uav[14] utilizationCountMissions 1
scalar OsgEarthNet.uav[14] utilizationCountManeuversMission 8
scalar OsgEarthNet.uav[14] utilizationCountManeuversMaintenance 2
scalar OsgEarthNet.uav[14] utilizationCountChargeState 1
scalar OsgEarthNet.uav[14] utilizationCountOverdrawnAfterMission 0
scalar OsgEarthNet.uav[14] utilizationCountIdleState 2
scalar OsgEarthNet.uav[14] utilizationFail 0
scalar OsgEarthNet.uav[14] simulationTime 259200
scalar OsgEarthNet.uav[15] utilizationSecMission 23528.803423752
scalar OsgEarthNet.uav[15] utilizationSecMaintenance 19949.191576248
scalar OsgEarthNet.uav[15] utilizationSecCharge 154400
scalar OsgEarthNet.uav[15] utilizationSecIdle 61322.004
scalar OsgEarthNet.uav[15] utilizationEnergyMission 112444.31302566
scalar OsgEarthNet.uav[15] utilizationEnergyMaintenance 91889.891525269
scalar OsgEarthNet.uav[15] utilizationEnergyCharge 201548.49316406
scalar OsgEarthNet.uav[15] utilizationEnergyOverdrawMission 0
scalar OsgEarthNet.uav[15] utilizationEnergyOverdrawMaintenance 0
scalar OsgEarthNet.uav[15] utilizationCountMissions 46
scalar OsgEarthNet.uav[15] utilizationCountManeuversMission 699
scalar OsgEarthNet.uav[15] utilizationCountManeuversMaintenance 93
scalar OsgEarthNet.uav[15] utilizationCountChargeState 46
scalar OsgEarthNet.uav[15] utilizationCountOverdrawnAfterMission 0
scalar OsgEarthNet.uav[15] utilizationCountIdleState 47
scalar OsgEarthNet.uav[15] utilizationFail 0
scalar OsgEarthNet.uav[15] simulationTime 259200
scalar OsgEarthNet.uav[16] utilizationSecMission 1590.004620753
scalar OsgEarthNet.uav[16] utilizationSecMaintenance 2069.7217230886
scalar OsgEarthNet.uav[16] utilizationSecCharge 13710
scalar OsgEarthNet.uav[16] utilizationSecIdle 241830.27265616
scalar OsgEarthNet.uav[16] utilizationEnergyMission 7569.8844223022
scalar OsgEarthNet.uav[16] utilizationEnergyMaintenance 9595.3419494629
scalar OsgEarthNet.uav[16] utilizationEnergyCharge 17835.9765625
scalar OsgEarthNet.uav[16] utilizationEnergyOverdrawMission 0
scalar OsgEarthNet.uav[16] utilizationEnergyOverdrawMaintenance 0
scalar OsgEarthNet.uav[16] utilizationCountMissions 4
scalar OsgEarthNet.uav[16] utilizationCountManeuversMission 55
scalar OsgEarthNet.uav[16] utilizationCountManeuversMaintenance 8
scalar OsgEarthNet.uav[16] utilizationCountChargeState 4
scalar OsgEarthNet.uav[16] utilizationCountOverdrawnAfterMission 0
scalar OsgEarthNet.uav[16] utilizationCountIdleState 5
scalar OsgEarthNet.uav[16] utilizationFail 0
scalar OsgEarthNet.uav[16] simulationTime 259200
scalar OsgEarthNet.uav[17] utilizationSecMission 533.25626237336
scalar OsgEarthNet.uav[17] utilizationSecMaintenance 451.14699917938
scalar OsgEarthNet.uav[17] utilizationSecCharge 3510
scalar OsgEarthNet.uav[17] utilizationSecIdle 254705.59573845
scalar OsgEarthNet.uav[17] utilizationEnergyMission 2428.8252563477
scalar OsgEarthNet.uav[17] utilizationEnergyMaintenance 2121.4798698425
scalar OsgEarthNet.uav[17] utilizationEnergyCharge 4609.4140625
scalar OsgEarthNet.uav[17] utilizationEnergyOverdrawMission 0
scalar OsgEarthNet.uav[17] utilizationEnergyOverdrawMaintenance 0
scalar OsgEarthNet.uav[17] utilizationCountMissions 1
scalar OsgEarthNet.uav[17] utilizationCountManeuversMission 8
scalar OsgEarthNet.uav[17] utilizationCountManeuversMaintenance 2
scalar OsgEarthNet.uav[17] utilizationCountChargeState 1
scalar OsgEarthNet.uav[17] utilizationCountOverdrawnAfterMission 0
scalar OsgEarthNet.uav[17] utilizationCountIdleState 2
scalar OsgEarthNet.uav[17] utilizationFail 0
scalar OsgEarthNet.uav[17] simulationTime 259200
scalar OsgEarthNet.uav[18] utilizationSecMission 14559.011287683
scalar OsgEarthNet.uav[18] utilizationSecMaintenance 13224.964444316
scalar OsgEarthNet.uav[18] utilizationSecCharge 98990
scalar OsgEarthNet.uav[18] utilizationSecIdle 132426.023268
scalar OsgEarthNet.uav[18] utilizationEnergyMission 70104.836994171
scalar OsgEarthNet.uav[18] utilizationEnergyMaintenance 60768.548925431
scalar OsgEarthNet.uav[18] utilizationEnergyCharge 129952.078125
scalar OsgEarthNet.uav[18] utilizationEnergyOverdrawMission 0
scalar OsgEarthNet.uav[18] utilizationEnergyOverdrawMaintenance 0
scalar OsgEarthNet.uav[18] utilizationCountMissions 29
scalar OsgEarthNet.uav[18] utilizationCountManeuversMission 374
scalar OsgEarthNet.uav[18] utilizationCountManeuversMaintenance 59
scalar OsgEarthNet.uav[18] utilizationCountChargeState 29
scalar OsgEarthNet.uav[18] utilizationCountOverdrawnAfterMission 0
scalar OsgEarthNet.uav[18] utilizationCountIdleState 30
scalar OsgEarthNet.uav[18] utilizationFail 0
scalar OsgEarthNet.uav[18] simulationTime 259200
scalar OsgEarthNet.uav[19] utilizationSecMission 27882.691018128
scalar OsgEarthNet.uav[19] utilizationSecMaintenance 23755.307981872
scalar OsgEarthNet.uav[19] utilizationSecCharge 184240
scalar OsgEarthNet.uav[19] utilizationSecIdle 23322
scalar OsgEarthNet.uav[19] utilizationEnergyMission 135370.59408188
scalar OsgEarthNet.uav[19] utilizationEnergyMaintenance 109873.84487531
scalar OsgEarthNet.uav[19] utilizationEnergyCharge 241944.93212891
scalar OsgEarthNet.uav[19] utilizationEnergyOverdrawMission 0
scalar OsgEarthNet.uav[19] utilizationEnergyOverdrawMaintenance 0
scalar OsgEarthNet.uav[19] utilizationCountMissions 55
scalar OsgEarthNet.uav[19] utilizationCountManeuversMission 805
scalar OsgEarthNet.uav[19] utilizationCountManeuversMaintenance 109
scalar OsgEarthNet.uav[19] utilizationCountChargeState 54
scalar OsgEarthNet.uav[19] utilizationCountOverdrawnAfterMission 0
scalar OsgEarthNet.uav[19] utilizationCountIdleState 55
scalar OsgEarthNet.uav[19] utilizationFail 0
scalar OsgEarthNet.uav[19] simulationTime 259200
scalar OsgEarthNet.uav[20] utilizationSecMission 23188.620900932
scalar OsgEarthNet.uav[20] utilizationSecMaintenance 22125.822090847
scalar OsgEarthNet.uav[20] utilizationSecCharge 163993.54500822
scalar OsgEarthNet.uav[20] utilizationSecIdle 49892.011
scalar OsgEarthNet.uav[20] utilizationEnergyMission 112380.27183151
scalar OsgEarthNet.uav[20] utilizationEnergyMaintenance 104083.73122406
scalar OsgEarthNet.uav[20] utilizationEnergyCharge 215293.0300293
scalar OsgEarthNet.uav[20] utilizationEnergyOverdrawMission 0
scalar OsgEarthNet.uav[20] utilizationEnergyOverdrawMaintenance 0
scalar OsgEarthNet.uav[20] utilizationCountMissions 49
scalar OsgEarthNet.uav[20] utilizationCountManeuversMission 787
scalar OsgEarthNet.uav[20] utilizationCountManeuversMaintenance 98
scalar OsgEarthNet.uav[20] utilizationCountChargeState 49
scalar OsgEarthNet.uav[20] utilizationCountOverdrawnAfterMission 0
scalar OsgEarthNet.uav[20] utilizationCountIdleState 49
scalar OsgEarthNet.uav[20] utilizationFail 0
scalar OsgEarthNet.uav[20] simulationTime 259200
scalar OsgEarthNet.uav[21] utilizationSecMission 24293.92501691
scalar OsgEarthNet.uav[21] utilizationSecMaintenance 19574.972153853
scalar OsgEarthNet.uav[21] utilizationSecCharge 158398.75827473
scalar OsgEarthNet.uav[21] utilizationSecIdle 56932.343554508
scalar OsgEarthNet.uav[21] utilizationEnergyMission 118661.62792969
scalar OsgEarthNet.uav[21] utilizationEnergyMaintenance 91545.442337036
scalar OsgEarthNet.uav[21] utilizationEnergyCharge 208628.2434082
scalar OsgEarthNet.uav[21] utilizationEnergyOverdrawMission 0
scalar OsgEarthNet.uav[21] utilizationEnergyOverdrawMaintenance 313.64337158203
scalar OsgEarthNet.uav[21] utilizationCountMissions 47
scalar OsgEarthNet.uav[21] utilizationCountManeuversMission 767
scalar OsgEarthNet.uav[21] utilizationCountManeuversMaintenance 94
scalar OsgEarthNet.uav[21] utilizationCountChargeState 47
scalar OsgEarthNet.uav[21] utilizationCountOverdrawnAfterMission 1
scalar OsgEarthNet.uav[21] utilizationCountIdleState 47
scalar OsgEarthNet.uav[21] utilizationFail 0
scalar OsgEarthNet.uav[21] simulationTime 259200
scalar OsgEarthNet.uav[22] utilizationSecMission 25572.911663937
scalar OsgEarthNet.uav[22] utilizationSecMaintenance 23251.260447934
scalar OsgEarthNet.uav[22] utilizationSecCharge 174933.82388813
scalar OsgEarthNet.uav[22] utilizationSecIdle 35442.003
scalar OsgEarthNet.uav[22] utilizationEnergyMission 124568.72930908
scalar OsgEarthNet.uav[22] utilizationEnergyMaintenance 108451.89625931
scalar OsgEarthNet.uav[22] utilizationEnergyCharge 229488.41186523
scalar OsgEarthNet.uav[22] utilizationEnergyOverdrawMission 0
scalar OsgEarthNet.uav[22] utilizationEnergyOverdrawMaintenance 0
scalar OsgEarthNet.uav[22] utilizationCountMissions 52
scalar OsgEarthNet.uav[22] utilizationCountManeuversMission 816
scalar OsgEarthNet.uav[22] utilizationCountManeuversMaintenance 104
scalar OsgEarthNet.uav[22] utilizationCountChargeState 52
scalar OsgEarthNet.uav[22] utilizationCountOverdrawnAfterMission 0
scalar OsgEarthNet.uav[22] utilizationCountIdleState 52
scalar OsgEarthNet.uav[22] utilizationFail 0
scalar OsgEarthNet.uav[22] simulationTime 259200
scalar OsgEarthNet.uav[23] utilizationSecMission 23788.857980185
scalar OsgEarthNet.uav[23] utilizationSecMaintenance 21186.687250407
scalar OsgEarthNet.uav[23] utilizationSecCharge 162485.07990962
scalar OsgEarthNet.uav[23] utilizationSecIdle 51739.373859786
scalar OsgEarthNet.uav[23] utilizationEnergyMission 114824.67053604
scalar OsgEarthNet.uav[23] utilizationEnergyMaintenance 99397.910411835
scalar OsgEarthNet.uav[23] utilizationEnergyCharge 213257.45410156
scalar OsgEarthNet.uav[23] utilizationEnergyOverdrawMission 0
scalar OsgEarthNet.uav[23] utilizationEnergyOverdrawMaintenance 0
scalar OsgEarthNet.uav[23] utilizationCountMissions 48
scalar OsgEarthNet.uav[23] utilizationCountManeuversMission 696
scalar OsgEarthNet.uav[23] utilizationCountManeuversMaintenance 96
scalar OsgEarthNet.uav[23] utilizationCountChargeState 48
scalar OsgEarthNet.uav[23] utilizationCountOverdrawnAfterMission 0
scalar OsgEarthNet.uav[23] utilizationCountIdleState 48
scalar OsgEarthNet.uav[23] utilizationFail 0
scalar OsgEarthNet.uav[23] simulationTime 259200
scalar OsgEarthNet.uav[24] utilizationSecMission 20172.78101628
scalar OsgEarthNet.uav[24] utilizationSecMaintenance 18506.529519347
scalar OsgEarthNet.uav[24] utilizationSecCharge 137577.9670003
scalar OsgEarthNet.uav[24] utilizationSecIdle 82942.721464075
scalar OsgEarthNet.uav[24] utilizationEnergyMission 99439.189727783
scalar OsgEarthNet.uav[24] utilizationEnergyMaintenance 85195.808330536
scalar OsgEarthNet.uav[24] utilizationEnergyCharge 180790.67102051
scalar OsgEarthNet.uav[24] utilizationEnergyOverdrawMission 0
scalar OsgEarthNet.uav[24] utilizationEnergyOverdrawMaintenance 0
scalar OsgEarthNet.uav[24] utilizationCountMissions 41
scalar OsgEarthNet.uav[24] utilizationCountManeuversMission 659
scalar OsgEarthNet.uav[24] utilizationCountManeuversMaintenance 82
scalar OsgEarthNet.uav[24] utilizationCountChargeState 41
scalar OsgEarthNet.uav[24] utilizationCountOverdrawnAfterMission 0
scalar OsgEarthNet.uav[24] utilizationCountIdleState 41
scalar OsgEarthNet.uav[24] utilizationFail 0
scalar OsgEarthNet.uav[24] simulationTime 259200
scalar OsgEarthNet.uav[25] utilizationSecMission 23539.211486111
scalar OsgEarthNet.uav[25] utilizationSecMaintenance 22323.005638423
scalar OsgEarthNet.uav[25] utilizationSecCharge 163812.32622206
scalar OsgEarthNet.uav[25] utilizationSecIdle 49525.455653403
scalar OsgEarthNet.uav[25] utilizationEnergyMission 112010.52471924
scalar OsgEarthNet.uav[25] utilizationEnergyMaintenance 104995.93028641
scalar OsgEarthNet.uav[25] utilizationEnergyCharge 216691.76416016
scalar OsgEarthNet.uav[25] utilizationEnergyOverdrawMission 0
scalar OsgEarthNet.uav[25] utilizationEnergyOverdrawMaintenance 56.825592041016
scalar OsgEarthNet.uav[25] utilizationCountMissions 48
scalar OsgEarthNet.uav[25] utilizationCountManeuversMission 657
scalar OsgEarthNet.uav[25] utilizationCountManeuversMaintenance 96
scalar OsgEarthNet.uav[25] utilizationCountChargeState 48
scalar OsgEarthNet.uav[25] utilizationCountOverdrawnAfterMission 1
scalar OsgEarthNet.uav[25] utilizationCountIdleState 48
scalar OsgEarthNet.uav[25] utilizationFail 0
scalar OsgEarthNet.uav[25] simulationTime 259200
scalar OsgEarthNet.uav[26] utilizationSecMission 24307.554046698
scalar OsgEarthNet.uav[26] utilizationSecMaintenance 23833.160784776
scalar OsgEarthNet.uav[26] utilizationSecCharge 176378.71374194
scalar OsgEarthNet.uav[26] utilizationSecIdle 34680.570426582
scalar OsgEarthNet.uav[26] utilizationEnergyMission 119482.71158218
scalar OsgEarthNet.uav[26] utilizationEnergyMaintenance 111828.106884
scalar OsgEarthNet.uav[26] utilizationEnergyCharge 230797.55566406
scalar OsgEarthNet.uav[26] utilizationEnergyOverdrawMission 0
scalar OsgEarthNet.uav[26] utilizationEnergyOverdrawMaintenance 0
scalar OsgEarthNet.uav[26] utilizationCountMissions 52
scalar OsgEarthNet.uav[26] utilizationCountManeuversMission 758
scalar OsgEarthNet.uav[26] utilizationCountManeuversMaintenance 104
scalar OsgEarthNet.uav[26] utilizationCountChargeState 52
scalar OsgEarthNet.uav[26] utilizationCountOverdrawnAfterMission 0
scalar OsgEarthNet.uav[26] utilizationCountIdleState 52
scalar OsgEarthNet.uav[26] utilizationFail 0
scalar OsgEarthNet.uav[26] simulationTime 259200
scalar OsgEarthNet.uav[27] utilizationSecMission 20618.358749988
scalar OsgEarthNet.uav[27] utilizationSecMaintenance 20414.598126923
scalar OsgEarthNet.uav[27] utilizationSecCharge 145013.28313797
scalar OsgEarthNet.uav[27] utilizationSecIdle 73153.758985123
scalar OsgEarthNet.uav[27] utilizationEnergyMission 99869.692150116
scalar OsgEarthNet.uav[27] utilizationEnergyMaintenance 93810.245674133
scalar OsgEarthNet.uav[27] utilizationEnergyCharge 190798.3704834
scalar OsgEarthNet.uav[27] utilizationEnergyOverdrawMission 0
scalar OsgEarthNet.uav[27] utilizationEnergyOverdrawMaintenance 103.78874206543
scalar OsgEarthNet.uav[27] utilizationCountMissions 43
scalar OsgEarthNet.uav[27] utilizationCountManeuversMission 643
scalar OsgEarthNet.uav[27] utilizationCountManeuversMaintenance 86
scalar OsgEarthNet.uav[27] utilizationCountChargeState 43
scalar OsgEarthNet.uav[27] utilizationCountOverdrawnAfterMission 1
scalar OsgEarthNet.uav[27] utilizationCountIdleState 43
scalar OsgEarthNet.uav[27] utilizationFail 0
scalar OsgEarthNet.uav[27] simulationTime 259200
scalar OsgEarthNet.uav[28] utilizationSecMission 25117.762136647
scalar OsgEarthNet.uav[28] utilizationSecMaintenance 20960.147026261
scalar OsgEarthNet.uav[28] utilizationSecCharge 167210.08583709
scalar OsgEarthNet.uav[28] utilizationSecIdle 45912.004
scalar OsgEarthNet.uav[28] utilizationEnergyMission 121853.15587234
scalar OsgEarthNet.uav[28] utilizationEnergyMaintenance 96013.007530212
scalar OsgEarthNet.uav[28] utilizationEnergyCharge 219069.74536133
scalar OsgEarthNet.uav[28] utilizationEnergyOverdrawMission 0
scalar OsgEarthNet.uav[28] utilizationEnergyOverdrawMaintenance 0
scalar OsgEarthNet.uav[28] utilizationCountMissions 49
scalar OsgEarthNet.uav[28] utilizationCountManeuversMission 838
scalar OsgEarthNet.uav[28] utilizationCountManeuversMaintenance 98
scalar OsgEarthNet.uav[28] utilizationCountChargeState 49
scalar OsgEarthNet.uav[28] utilizationCountOverdrawnAfterMission 0
scalar OsgEarthNet.uav[28] utilizationCountIdleState 49
scalar OsgEarthNet.uav[28] utilizationFail 0
scalar OsgEarthNet.uav[28] simulationTime 259200
scalar OsgEarthNet.uav[29] utilizationSecMission 500
scalar OsgEarthNet.uav[29] utilizationSecMaintenance 363.8841636065
scalar OsgEarthNet.uav[29] utilizationSecCharge 3270
scalar OsgEarthNet.uav[29] utilizationSecIdle 255066.11483639
scalar OsgEarthNet.uav[29] utilizationEnergyMission 2298.4949111938
scalar OsgEarthNet.uav[29] utilizationEnergyMaintenance 1873.1765861511
scalar OsgEarthNet.uav[29] utilizationEnergyCharge 4243.2392578125
scalar OsgEarthNet.uav[29] utilizationEnergyOverdrawMission 0
scalar OsgEarthNet.uav[29] utilizationEnergyOverdrawMaintenance 0
scalar OsgEarthNet.uav[29] utilizationCountMissions 1
scalar OsgEarthNet.uav[29] utilizationCountManeuversMission 25
scalar OsgEarthNet.uav[29] utilizationCountManeuversMaintenance 2
scalar OsgEarthNet.uav[29] utilizationCountChargeState 1
scalar OsgEarthNet.uav[29] utilizationCountOverdrawnAfterMission 0
scalar OsgEarthNet.uav[29] utilizationCountIdleState 2
scalar OsgEarthNet.uav[29] utilizationFail 0
scalar OsgEarthNet.uav[29] simulationTime 259200
scalar OsgEarthNet.uav[30] utilizationSecMission 27599.013827058
scalar OsgEarthNet.uav[30] utilizationSecMaintenance 21316.577204642
scalar OsgEarthNet.uav[30] utilizationSecCharge 175690
scalar OsgEarthNet.uav[30] utilizationSecIdle 34594.4079683
scalar OsgEarthNet.uav[30] utilizationEnergyMission 133797.06243896
scalar OsgEarthNet.uav[30] utilizationEnergyMaintenance 97429.881137848
scalar OsgEarthNet.uav[30] utilizationEnergyCharge 229810.09448242
scalar OsgEarthNet.uav[30] utilizationEnergyOverdrawMission 0
scalar OsgEarthNet.uav[30] utilizationEnergyOverdrawMaintenance 0
scalar OsgEarthNet.uav[30] utilizationCountMissions 52
scalar OsgEarthNet.uav[30] utilizationCountManeuversMission 895
scalar OsgEarthNet.uav[30] utilizationCountManeuversMaintenance 104
scalar OsgEarthNet.uav[30] utilizationCountChargeState 52
scalar OsgEarthNet.uav[30] utilizationCountOverdrawnAfterMission 0
scalar OsgEarthNet.uav[30] utilizationCountIdleState 53
scalar OsgEarthNet.uav[30] utilizationFail 0
scalar OsgEarthNet.uav[30] simulationTime 259200
scalar OsgEarthNet.uav[31] utilizationSecMission 23679.414707694
scalar OsgEarthNet.uav[31] utilizationSecMaintenance 24640.806616702
scalar OsgEarthNet.uav[31] utilizationSecCharge 172839.76974088
scalar OsgEarthNet.uav[31] utilizationSecIdle 38040.007934721
scalar OsgEarthNet.uav[31] utilizationEnergyMission 115366.45133972
scalar OsgEarthNet.uav[31] utilizationEnergyMaintenance 114449.65400314
scalar OsgEarthNet.uav[31] utilizationEnergyCharge 226329.42102051
scalar OsgEarthNet.uav[31] utilizationEnergyOverdrawMission 0
scalar OsgEarthNet.uav[31] utilizationEnergyOverdrawMaintenance 0
scalar OsgEarthNet.uav[31] utilizationCountMissions 52
scalar OsgEarthNet.uav[31] utilizationCountManeuversMission 749
scalar OsgEarthNet.uav[31] utilizationCountManeuversMaintenance 104
scalar OsgEarthNet.uav[31] utilizationCountChargeState 52
scalar OsgEarthNet.uav[31] utilizationCountOverdrawnAfterMission 0
scalar OsgEarthNet.uav[31] utilizationCountIdleState 52
scalar OsgEarthNet.uav[31] utilizationFail 0
scalar OsgEarthNet.uav[31] simulationTime 259200
scalar OsgEarthNet.uav[32] utilizationSecMission 27364.99307814
scalar OsgEarthNet.uav[32] utilizationSecMaintenance 24051.458451104
scalar OsgEarthNet.uav[32] utilizationSecCharge 184580
scalar OsgEarthNet.uav[32] utilizationSecIdle 23203.547470757
scalar OsgEarthNet.uav[32] utilizationEnergyMission 131042.39160715
scalar OsgEarthNet.uav[32] utilizationEnergyMaintenance 111375.92427444
scalar OsgEarthNet.uav[32] utilizationEnergyCharge 241722.77734375
scalar OsgEarthNet.uav[32] utilizationEnergyOverdrawMission 0
scalar OsgEarthNet.uav[32] utilizationEnergyOverdrawMaintenance 0
scalar OsgEarthNet.uav[32] utilizationCountMissions 54
scalar OsgEarthNet.uav[32] utilizationCountManeuversMission 840
scalar OsgEarthNet.uav[32] utilizationCountManeuversMaintenance 107
scalar OsgEarthNet.uav[32] utilizationCountChargeState 54
scalar OsgEarthNet.uav[32] utilizationCountOverdrawnAfterMission 0
scalar OsgEarthNet.uav[32] utilizationCountIdleState 55
scalar OsgEarthNet.uav[32] utilizationFail 0
scalar OsgEarthNet.uav[32] simulationTime 259200
scalar OsgEarthNet.uav[33] utilizationSecMission 25837.708240291
scalar OsgEarthNet.uav[33] utilizationSecMaintenance 24232.062945625
scalar OsgEarthNet.uav[33] utilizationSecCharge 182610
scalar OsgEarthNet.uav[33] utilizationSecIdle 26520.227814084
scalar OsgEarthNet.uav[33] utilizationEnergyMission 126197.9464035
scalar OsgEarthNet.uav[33] utilizationEnergyMaintenance 113418.63658142
scalar OsgEarthNet.uav[33] utilizationEnergyCharge 238574.4921875
scalar OsgEarthNet.uav[33] utilizationEnergyOverdrawMission 0
scalar OsgEarthNet.uav[33] utilizationEnergyOverdrawMaintenance 0
scalar OsgEarthNet.uav[33] utilizationCountMissions 54
scalar OsgEarthNet.uav[33] utilizationCountManeuversMission 873
scalar OsgEarthNet.uav[33] utilizationCountManeuversMaintenance 108
scalar OsgEarthNet.uav[33] utilizationCountChargeState 54
scalar OsgEarthNet.uav[33] utilizationCountOverdrawnAfterMission 0
scalar OsgEarthNet.uav[33] utilizationCountIdleState 55
scalar OsgEarthNet.uav[33] utilizationFail 0
scalar OsgEarthNet.uav[33] simulationTime 259200
scalar OsgEarthNet.uav[34] utilizationSecMission 26250.953718204
scalar OsgEarthNet.uav[34] utilizationSecMaintenance 22295.489063723
scalar OsgEarthNet.uav[34] utilizationSecCharge 176921.54921807
scalar OsgEarthNet.uav[34] utilizationSecIdle 33732.007
scalar OsgEarthNet.uav[34] utilizationEnergyMission 127298.73548889
scalar OsgEarthNet.uav[34] utilizationEnergyMaintenance 104966.3166275
scalar OsgEarthNet.uav[34] utilizationEnergyCharge 233002.62670898
scalar OsgEarthNet.uav[34] utilizationEnergyOverdrawMission 0
scalar OsgEarthNet.uav[34] utilizationEnergyOverdrawMaintenance 0
scalar OsgEarthNet.uav[34] utilizationCountMissions 52
scalar OsgEarthNet.uav[34] utilizationCountManeuversMission 807
scalar OsgEarthNet.uav[34] utilizationCountManeuversMaintenance 104
scalar OsgEarthNet.uav[34] utilizationCountChargeState 52
scalar OsgEarthNet.uav[34] utilizationCountOverdrawnAfterMission 0
scalar OsgEarthNet.uav[34] utilizationCountIdleState 52
scalar OsgEarthNet.uav[34] utilizationFail 0
scalar OsgEarthNet.uav[34] simulationTime 259200
scalar OsgEarthNet.uav[35] utilizationSecMission 7131.3559407698
scalar OsgEarthNet.uav[35] utilizationSecMaintenance 5186.8584094466
scalar OsgEarthNet.uav[35] utilizationSecCharge 44300
scalar OsgEarthNet.uav[35] utilizationSecIdle 202581.78464978
scalar OsgEarthNet.uav[35] utilizationEnergyMission 34632.23833847
scalar OsgEarthNet.uav[35] utilizationEnergyMaintenance 24011.348571777
scalar OsgEarthNet.uav[35] utilizationEnergyCharge 58225.327636719
scalar OsgEarthNet.uav[35] utilizationEnergyOverdrawMission 0
scalar OsgEarthNet.uav[35] utilizationEnergyOverdrawMaintenance 0
scalar OsgEarthNet.uav[35] utilizationCountMissions 13
scalar OsgEarthNet.uav[35] utilizationCountManeuversMission 199
scalar OsgEarthNet.uav[35] utilizationCountManeuversMaintenance 26
scalar OsgEarthNet.uav[35] utilizationCountChargeState 13
scalar OsgEarthNet.uav[35] utilizationCountOverdrawnAfterMission 0
scalar OsgEarthNet.uav[35] utilizationCountIdleState 14
scalar OsgEarthNet.uav[35] utilizationFail 0
scalar OsgEarthNet.uav[35] simulationTime 259200
scalar OsgEarthNet.uav[36] utilizationSecMission 26180.550926744
scalar OsgEarthNet.uav[36] utilizationSecMaintenance 24007.444073256
scalar OsgEarthNet.uav[36] utilizationSecCharge 181040
scalar OsgEarthNet.uav[36] utilizationSecIdle 27972.004
scalar OsgEarthNet.uav[36] utilizationEnergyMission 126326.87585831
scalar OsgEarthNet.uav[36] utilizationEnergyMaintenance 112817.10233642
scalar OsgEarthNet.uav[36] utilizationEnergyCharge 237498.01879883
scalar OsgEarthNet.uav[36] utilizationEnergyOverdrawMission 0
scalar OsgEarthNet.uav[36] utilizationEnergyOverdrawMaintenance 0
scalar OsgEarthNet.uav[36] utilizationCountMissions 53
scalar OsgEarthNet.uav[36] utilizationCountManeuversMission 756
scalar OsgEarthNet.uav[36] utilizationCountManeuversMaintenance 107
scalar OsgEarthNet.uav[36] utilizationCountChargeState 53
scalar OsgEarthNet.uav[36] utilizationCountOverdrawnAfterMission 0
scalar OsgEarthNet.uav[36] utilizationCountIdleState 54
scalar OsgEarthNet.uav[36] utilizationFail 0
scalar OsgEarthNet.uav[36] simulationTime 259200
scalar OsgEarthNet.uav[37] utilizationSecMission 3712.6074780633
scalar OsgEarthNet.uav[37] utilizationSecMaintenance 2711.4258134555
scalar OsgEarthNet.uav[37] utilizationSecCharge 23440
scalar OsgEarthNet.uav[37] utilizationSecIdle 229335.96570848
scalar OsgEarthNet.uav[37] utilizationEnergyMission 18216.041381836
scalar OsgEarthNet.uav[37] utilizationEnergyMaintenance 12847.933105469
scalar OsgEarthNet.uav[37] utilizationEnergyCharge 30539.397949219
scalar OsgEarthNet.uav[37] utilizationEnergyOverdrawMission 0
scalar OsgEarthNet.uav[37] utilizationEnergyOverdrawMaintenance 0
scalar OsgEarthNet.uav[37] utilizationCountMissions 7
scalar OsgEarthNet.uav[37] utilizationCountManeuversMission 121
scalar OsgEarthNet.uav[37] utilizationCountManeuversMaintenance 14
scalar OsgEarthNet.uav[37] utilizationCountChargeState 7
scalar OsgEarthNet.uav[37] utilizationCountOverdrawnAfterMission 0
scalar OsgEarthNet.uav[37] utilizationCountIdleState 8
scalar OsgEarthNet.uav[37] utilizationFail 0
scalar OsgEarthNet.uav[37] simulationTime 259200
scalar OsgEarthNet.uav[38] utilizationSecMission 26065.619741731
scalar OsgEarthNet.uav[38] utilizationSecMaintenance 23166.625924504
scalar OsgEarthNet.uav[38] utilizationSecCharge 177908.32798647
scalar OsgEarthNet.uav[38] utilizationSecIdle 32059.42534729
scalar OsgEarthNet.uav[38] utilizationEnergyMission 127048.2410965
scalar OsgEarthNet.uav[38] utilizationEnergyMaintenance 109146.24850464
scalar OsgEarthNet.uav[38] utilizationEnergyCharge 233547.12255859
scalar OsgEarthNet.uav[38] utilizationEnergyOverdrawMission 0
scalar OsgEarthNet.uav[38] utilizationEnergyOverdrawMaintenance 0
scalar OsgEarthNet.uav[38] utilizationCountMissions 53
scalar OsgEarthNet.uav[38] utilizationCountManeuversMission 889
scalar OsgEarthNet.uav[38] utilizationCountManeuversMaintenance 106
scalar OsgEarthNet.uav[38] utilizationCountChargeState 53
scalar OsgEarthNet.uav[38] utilizationCountOverdrawnAfterMission 0
scalar OsgEarthNet.uav[38] utilizationCountIdleState 53
scalar OsgEarthNet.uav[38] utilizationFail 0
scalar OsgEarthNet.uav[38] simulationTime 259200
scalar OsgEarthNet.uav[39] utilizationSecMission 22249.596599659
scalar OsgEarthNet.uav[39] utilizationSecMaintenance 18300.673166579
scalar OsgEarthNet.uav[39] utilizationSecCharge 143978.7749781
scalar OsgEarthNet.uav[39] utilizationSecIdle 74670.954255665
scalar OsgEarthNet.uav[39] utilizationEnergyMission 107864.35296631
scalar OsgEarthNet.uav[39] utilizationEnergyMaintenance 84710.700847626
scalar OsgEarthNet.uav[39] utilizationEnergyCharge 189307.36291504
scalar OsgEarthNet.uav[39] utilizationEnergyOverdrawMission 0
scalar OsgEarthNet.uav[39] utilizationEnergyOverdrawMaintenance 0
scalar OsgEarthNet.uav[39] utilizationCountMissions 43
scalar OsgEarthNet.uav[39] utilizationCountManeuversMission 657
scalar OsgEarthNet.uav[39] utilizationCountManeuversMaintenance 86
scalar OsgEarthNet.uav[39] utilizationCountChargeState 43
scalar OsgEarthNet.uav[39] utilizationCountOverdrawnAfterMission 0
scalar OsgEarthNet.uav[39] utilizationCountIdleState 43
scalar OsgEarthNet.uav[39] utilizationFail 0
scalar OsgEarthNet.uav[39] simulationTime 259200
scalar OsgEarthNet.uav[40] utilizationSecMission 27235.617745295
scalar OsgEarthNet.uav[40] utilizationSecMaintenance 24162.381254705
scalar OsgEarthNet.uav[40] utilizationSecCharge 186260
scalar OsgEarthNet.uav[40] utilizationSecIdle 21542
scalar OsgEarthNet.uav[40] utilizationEnergyMission 134201.12881971
scalar OsgEarthNet.uav[40] utilizationEnergyMaintenance 111203.31113815
scalar OsgEarthNet.uav[40] utilizationEnergyCharge 243244.92626953
scalar OsgEarthNet.uav[40] utilizationEnergyOverdrawMission 0
scalar OsgEarthNet.uav[40] utilizationEnergyOverdrawMaintenance 0
scalar OsgEarthNet.uav[40] utilizationCountMissions 55
scalar OsgEarthNet.uav[40] utilizationCountManeuversMission 929
scalar OsgEarthNet.uav[40] utilizationCountManeuversMaintenance 110
scalar OsgEarthNet.uav[40] utilizationCountChargeState 55
scalar OsgEarthNet.uav[40] utilizationCountOverdrawnAfterMission 0
scalar OsgEarthNet.uav[40] utilizationCountIdleState 56
scalar OsgEarthNet.uav[40] utilizationFail 0
scalar OsgEarthNet.uav[40] simulationTime 259200
scalar OsgEarthNet.uav[41] utilizationSecMission 25332.201594171
scalar OsgEarthNet.uav[41] utilizationSecMaintenance 26484.801585338
scalar OsgEarthNet.uav[41] utilizationSecCharge 185410.99382049
scalar OsgEarthNet.uav[41] utilizationSecIdle 21972.002
scalar OsgEarthNet.uav[41] utilizationEnergyMission 123288.73957062
scalar OsgEarthNet.uav[41] utilizationEnergyMaintenance 123138.38722229
scalar OsgEarthNet.uav[41] utilizationEnergyCharge 243494.90087891
scalar OsgEarthNet.uav[41] utilizationEnergyOverdrawMission 0
scalar OsgEarthNet.uav[41] utilizationEnergyOverdrawMaintenance 0
scalar OsgEarthNet.uav[41] utilizationCountMissions 55
scalar OsgEarthNet.uav[41] utilizationCountManeuversMission 757
scalar OsgEarthNet.uav[41] utilizationCountManeuversMaintenance 110
scalar OsgEarthNet.uav[41] utilizationCountChargeState 55
scalar OsgEarthNet.uav[41] utilizationCountOverdrawnAfterMission 0
scalar OsgEarthNet.uav[41] utilizationCountIdleState 55
scalar OsgEarthNet.uav[41] utilizationFail 0
scalar OsgEarthNet.uav[41] simulationTime 259200
scalar OsgEarthNet.uav[42] utilizationSecMission 27783.851728348
scalar OsgEarthNet.uav[42] utilizationSecMaintenance 22576.816185738
scalar OsgEarthNet.uav[42] utilizationSecCharge 180607.32908591
scalar OsgEarthNet.uav[42] utilizationSecIdle 28232.002
scalar OsgEarthNet.uav[42] utilizationEnergyMission 135618.93341827
scalar OsgEarthNet.uav[42] utilizationEnergyMaintenance 104558.60325623
scalar OsgEarthNet.uav[42] utilizationEnergyCharge 237194.1940918
scalar OsgEarthNet.uav[42] utilizationEnergyOverdrawMission 0
scalar OsgEarthNet.uav[42] utilizationEnergyOverdrawMaintenance 0
scalar OsgEarthNet.uav[42] utilizationCountMissions 54
scalar OsgEarthNet.uav[42] utilizationCountManeuversMission 817
scalar OsgEarthNet.uav[42] utilizationCountManeuversMaintenance 108
scalar OsgEarthNet.uav[42] utilizationCountChargeState 54
scalar OsgEarthNet.uav[42] utilizationCountOverdrawnAfterMission 0
scalar OsgEarthNet.uav[42] utilizationCountIdleState 54
scalar OsgEarthNet.uav[42] utilizationFail 0
scalar OsgEarthNet.uav[42] simulationTime 259200
scalar OsgEarthNet.uav[43] utilizationSecMission 26302.517620929
scalar OsgEarthNet.uav[43] utilizationSecMaintenance 24151.335466013
scalar OsgEarthNet.uav[43] utilizationSecCharge 184684.14491306
scalar OsgEarthNet.uav[43] utilizationSecIdle 24062.001
scalar OsgEarthNet.uav[43] utilizationEnergyMission 130252.09925461
scalar OsgEarthNet.uav[43] utilizationEnergyMaintenance 112768.32395554
scalar OsgEarthNet.uav[43] utilizationEnergyCharge 242403.79614258
scalar OsgEarthNet.uav[43] utilizationEnergyOverdrawMission 0
scalar OsgEarthNet.uav[43] utilizationEnergyOverdrawMaintenance 0
scalar OsgEarthNet.uav[43] utilizationCountMissions 55
scalar OsgEarthNet.uav[43] utilizationCountManeuversMission 925
scalar OsgEarthNet.uav[43] utilizationCountManeuversMaintenance 110
scalar OsgEarthNet.uav[43] utilizationCountChargeState 55
scalar OsgEarthNet.uav[43] utilizationCountOverdrawnAfterMission 0
scalar OsgEarthNet.uav[43] utilizationCountIdleState 55
scalar OsgEarthNet.uav[43] utilizationFail 0
scalar OsgEarthNet.uav[43] simulationTime 259200
scalar OsgEarthNet.uav[44] utilizationSecMission 27217.694322035
scalar OsgEarthNet.uav[44] utilizationSecMaintenance 21976.782785219
scalar OsgEarthNet.uav[44] utilizationSecCharge 177803.51589275
scalar OsgEarthNet.uav[44] utilizationSecIdle 32202.006
scalar OsgEarthNet.uav[44] utilizationEnergyMission 131214.66117477
scalar OsgEarthNet.uav[44] utilizationEnergyMaintenance 103073.86572266
scalar OsgEarthNet.uav[44] utilizationEnergyCharge 233645.06835938
scalar OsgEarthNet.uav[44] utilizationEnergyOverdrawMission 0
scalar OsgEarthNet.uav[44] utilizationEnergyOverdrawMaintenance 0
scalar OsgEarthNet.uav[44] utilizationCountMissions 52
scalar OsgEarthNet.uav[44] utilizationCountManeuversMission 820
scalar OsgEarthNet.uav[44] utilizationCountManeuversMaintenance 104
scalar OsgEarthNet.uav[44] utilizationCountChargeState 52
scalar OsgEarthNet.uav[44] utilizationCountOverdrawnAfterMission 0
scalar OsgEarthNet.uav[44] utilizationCountIdleState 52
scalar OsgEarthNet.uav[44] utilizationFail 0
scalar OsgEarthNet.uav[44] simulationTime 259200
scalar OsgEarthNet.uav[45] utilizationSecMission 25728.092120006
scalar OsgEarthNet.uav[45] utilizationSecMaintenance 25024.985422438
scalar OsgEarthNet.uav[45] utilizationSecCharge 179745.46849884
scalar OsgEarthNet.uav[45] utilizationSecIdle 28701.452958717
scalar OsgEarthNet.uav[45] utilizationEnergyMission 124058.70048904
scalar OsgEarthNet.uav[45] utilizationEnergyMaintenance 117155.80819321
scalar OsgEarthNet.uav[45] utilizationEnergyCharge 237029.85922241
scalar OsgEarthNet.uav[45] utilizationEnergyOverdrawMission 0
scalar OsgEarthNet.uav[45] utilizationEnergyOverdrawMaintenance 238.00602722168
scalar OsgEarthNet.uav[45] utilizationCountMissions 53
scalar OsgEarthNet.uav[45] utilizationCountManeuversMission 811
scalar OsgEarthNet.uav[45] utilizationCountManeuversMaintenance 106
scalar OsgEarthNet.uav[45] utilizationCountChargeState 53
scalar OsgEarthNet.uav[45] utilizationCountOverdrawnAfterMission 2
scalar OsgEarthNet.uav[45] utilizationCountIdleState 53
scalar OsgEarthNet.uav[45] utilizationFail 0
scalar OsgEarthNet.uav[45] simulationTime 259200
scalar OsgEarthNet.uav[46] utilizationSecMission 919.92101796368
scalar OsgEarthNet.uav[46] utilizationSecMaintenance 1033.5832142151
scalar OsgEarthNet.uav[46] utilizationSecCharge 7090
scalar OsgEarthNet.uav[46] utilizationSecIdle 250156.49476782
scalar OsgEarthNet.uav[46] utilizationEnergyMission 4672.0449714661
scalar OsgEarthNet.uav[46] utilizationEnergyMaintenance 4731.734336853
scalar OsgEarthNet.uav[46] utilizationEnergyCharge 9447.1411132812
scalar OsgEarthNet.uav[46] utilizationEnergyOverdrawMission 0
scalar OsgEarthNet.uav[46] utilizationEnergyOverdrawMaintenance 0
scalar OsgEarthNet.uav[46] utilizationCountMissions 2
scalar OsgEarthNet.uav[46] utilizationCountManeuversMission 32
scalar OsgEarthNet.uav[46] utilizationCountManeuversMaintenance 4
scalar OsgEarthNet.uav[46] utilizationCountChargeState 2
scalar OsgEarthNet.uav[46] utilizationCountOverdrawnAfterMission 0
scalar OsgEarthNet.uav[46] utilizationCountIdleState 2
scalar OsgEarthNet.uav[46] utilizationFail 0
scalar OsgEarthNet.uav[46] simulationTime 259200
scalar OsgEarthNet.uav[47] utilizationSecMission 25675.001502846
scalar OsgEarthNet.uav[47] utilizationSecMaintenance 21766.753457287
scalar OsgEarthNet.uav[47] utilizationSecCharge 172636.23603987
scalar OsgEarthNet.uav[47] utilizationSecIdle 39122.008
scalar OsgEarthNet.uav[47] utilizationEnergyMission 126204.30110168
scalar OsgEarthNet.uav[47] utilizationEnergyMaintenance 101822.01496887
scalar OsgEarthNet.uav[47] utilizationEnergyCharge 227730.98461914
scalar OsgEarthNet.uav[47] utilizationEnergyOverdrawMission 0
scalar OsgEarthNet.uav[47] utilizationEnergyOverdrawMaintenance 0
scalar OsgEarthNet.uav[47] utilizationCountMissions 51
scalar OsgEarthNet.uav[47] utilizationCountManeuversMission 885
scalar OsgEarthNet.uav[47] utilizationCountManeuversMaintenance 102
scalar OsgEarthNet.uav[47] utilizationCountChargeState 51
scalar OsgEarthNet.uav[47] utilizationCountOverdrawnAfterMission 0
scalar OsgEarthNet.uav[47] utilizationCountIdleState 51
scalar OsgEarthNet.uav[47] utilizationFail 0
scalar OsgEarthNet.uav[47] simulationTime 259200
scalar OsgEarthNet.uav[48] utilizationSecMission 27499.536188963
scalar OsgEarthNet.uav[48] utilizationSecMaintenance 23216.970605478
scalar OsgEarthNet.uav[48] utilizationSecCharge 182944.27259164
scalar OsgEarthNet.uav[48] utilizationSecIdle 25539.219613916
scalar OsgEarthNet.uav[48] utilizationEnergyMission 133203.50012207
scalar OsgEarthNet.uav[48] utilizationEnergyMaintenance 108520.61696243
scalar OsgEarthNet.uav[48] utilizationEnergyCharge 241488.00488281
scalar OsgEarthNet.uav[48] utilizationEnergyOverdrawMission 0
scalar OsgEarthNet.uav[48] utilizationEnergyOverdrawMaintenance 0
scalar OsgEarthNet.uav[48] utilizationCountMissions 54
scalar OsgEarthNet.uav[48] utilizationCountManeuversMission 854
scalar OsgEarthNet.uav[48] utilizationCountManeuversMaintenance 108
scalar OsgEarthNet.uav[48] utilizationCountChargeState 54
scalar OsgEarthNet.uav[48] utilizationCountOverdrawnAfterMission 0
scalar OsgEarthNet.uav[48] utilizationCountIdleState 54
scalar OsgEarthNet.uav[48] utilizationFail 0
scalar OsgEarthNet.uav[48] simulationTime 259200
scalar OsgEarthNet.uav[49] utilizationSecMission 3676.4705652197
scalar OsgEarthNet.uav[49] utilizationSecMaintenance 2695.3778809955
scalar OsgEarthNet.uav[49] utilizationSecCharge 23200
scalar OsgEarthNet.uav[49] utilizationSecIdle 229628.15055378
scalar OsgEarthNet.uav[49] utilizationEnergyMission 17661.85200119
scalar OsgEarthNet.uav[49] utilizationEnergyMaintenance 12570.920280457
scalar OsgEarthNet.uav[49] utilizationEnergyCharge 30080.085449219
scalar OsgEarthNet.uav[49] utilizationEnergyOverdrawMission 0
scalar OsgEarthNet.uav[49] utilizationEnergyOverdrawMaintenance 0
scalar OsgEarthNet.uav[49] utilizationCountMissions 7
scalar OsgEarthNet.uav[49] utilizationCountManeuversMission 112
scalar OsgEarthNet.uav[49] utilizationCountManeuversMaintenance 14
scalar OsgEarthNet.uav[49] utilizationCountChargeState 7
scalar OsgEarthNet.uav[49] utilizationCountOverdrawnAfterMission 0
scalar OsgEarthNet.uav[49] utilizationCountIdleState 8
scalar OsgEarthNet.uav[49] utilizationFail 0
scalar OsgEarthNet.uav[49] simulationTime 259200
scalar OsgEarthNet.uav[50] utilizationSecMission 10631.704185248
scalar OsgEarthNet.uav[50] utilizationSecMaintenance 10992.708247324
scalar OsgEarthNet.uav[50] utilizationSecCharge 78230
scalar OsgEarthNet.uav[50] utilizationSecIdle 159345.58656743
scalar OsgEarthNet.uav[50] utilizationEnergyMission 50911.077045441
scalar OsgEarthNet.uav[50] utilizationEnergyMaintenance 51691.287658691
scalar OsgEarthNet.uav[50] utilizationEnergyCharge 102415.84765625
scalar OsgEarthNet.uav[50] utilizationEnergyOverdrawMission 0
scalar OsgEarthNet.uav[50] utilizationEnergyOverdrawMaintenance 219.06692504883
scalar OsgEarthNet.uav[50] utilizationCountMissions 23
scalar OsgEarthNet.uav[50] utilizationCountManeuversMission 309
scalar OsgEarthNet.uav[50] utilizationCountManeuversMaintenance 46
scalar OsgEarthNet.uav[50] utilizationCountChargeState 23
scalar OsgEarthNet.uav[50] utilizationCountOverdrawnAfterMission 1
scalar OsgEarthNet.uav[50] utilizationCountIdleState 23
scalar OsgEarthNet.uav[50] utilizationFail 0
scalar OsgEarthNet.uav[50] simulationTime 259200
scalar OsgEarthNet.uav[51] utilizationSecMission 25622.67921582
scalar OsgEarthNet.uav[51] utilizationSecMaintenance 23495.31578418
scalar OsgEarthNet.uav[51] utilizationSecCharge 179050
scalar OsgEarthNet.uav[51] utilizationSecIdle 31032.004
scalar OsgEarthNet.uav[51] utilizationEnergyMission 124415.49039841
scalar OsgEarthNet.uav[51] utilizationEnergyMaintenance 108918.12952884
scalar OsgEarthNet.uav[51] utilizationEnergyCharge 233440.2800293
scalar OsgEarthNet.uav[51] utilizationEnergyOverdrawMission 0
scalar OsgEarthNet.uav[51] utilizationEnergyOverdrawMaintenance 30.041584014893
scalar OsgEarthNet.uav[51] utilizationCountMissions 53
scalar OsgEarthNet.uav[51] utilizationCountManeuversMission 822
scalar OsgEarthNet.uav[51] utilizationCountManeuversMaintenance 107
scalar OsgEarthNet.uav[51] utilizationCountChargeState 53
scalar OsgEarthNet.uav[51] utilizationCountOverdrawnAfterMission 1
scalar OsgEarthNet.uav[51] utilizationCountIdleState 54
scalar OsgEarthNet.uav[51] utilizationFail 0
scalar OsgEarthNet.uav[51] simulationTime 259200
scalar OsgEarthNet.uav[52] utilizationSecMission 23803.076935313
scalar OsgEarthNet.uav[52] utilizationSecMaintenance 22139.811483066
scalar OsgEarthNet.uav[52] utilizationSecCharge 168115.10558162
scalar OsgEarthNet.uav[52] utilizationSecIdle 45142.005
scalar OsgEarthNet.uav[52] utilizationEnergyMission 118129.16452026
scalar OsgEarthNet.uav[52] utilizationEnergyMaintenance 102412.36906433
scalar OsgEarthNet.uav[52] utilizationEnergyCharge 219601.16235352
scalar OsgEarthNet.uav[52] utilizationEnergyOverdrawMission 0
scalar OsgEarthNet.uav[52] utilizationEnergyOverdrawMaintenance 0
scalar OsgEarthNet.uav[52] utilizationCountMissions 50
scalar OsgEarthNet.uav[52] utilizationCountManeuversMission 870
scalar OsgEarthNet.uav[52] utilizationCountManeuversMaintenance 100
scalar OsgEarthNet.uav[52] utilizationCountChargeState 50
scalar OsgEarthNet.uav[52] utilizationCountOverdrawnAfterMission 0
scalar OsgEarthNet.uav[52] utilizationCountIdleState 50
scalar OsgEarthNet.uav[52] utilizationFail 0
scalar OsgEarthNet.uav[52] simulationTime 259200
scalar OsgEarthNet.uav[53] utilizationSecMission 15237.563595527
scalar OsgEarthNet.uav[53] utilizationSecMaintenance 13560.032193249
scalar OsgEarthNet.uav[53] utilizationSecCharge 101850
scalar OsgEarthNet.uav[53] utilizationSecIdle 128552.40321122
scalar OsgEarthNet.uav[53] utilizationEnergyMission 74267.104660034
scalar OsgEarthNet.uav[53] utilizationEnergyMaintenance 64103.148850576
scalar OsgEarthNet.uav[53] utilizationEnergyCharge 133190.73681641
scalar OsgEarthNet.uav[53] utilizationEnergyOverdrawMission 0
scalar OsgEarthNet.uav[53] utilizationEnergyOverdrawMaintenance 4.268424987793
scalar OsgEarthNet.uav[53] utilizationCountMissions 31
scalar OsgEarthNet.uav[53] utilizationCountManeuversMission 443
scalar OsgEarthNet.uav[53] utilizationCountManeuversMaintenance 62
scalar OsgEarthNet.uav[53] utilizationCountChargeState 30
scalar OsgEarthNet.uav[53] utilizationCountOverdrawnAfterMission 1
scalar OsgEarthNet.uav[53] utilizationCountIdleState 29
scalar OsgEarthNet.uav[53] utilizationFail 0
scalar OsgEarthNet.uav[53] simulationTime 259200
scalar OsgEarthNet.uav[54] utilizationSecMission 27196.170572906
scalar OsgEarthNet.uav[54] utilizationSecMaintenance 24482.071611894
scalar OsgEarthNet.uav[54] utilizationSecCharge 184159.7568152
scalar OsgEarthNet.uav[54] utilizationSecIdle 23362
scalar OsgEarthNet.uav[54] utilizationEnergyMission 131259.78837204
scalar OsgEarthNet.uav[54] utilizationEnergyMaintenance 113246.76823425
scalar OsgEarthNet.uav[54] utilizationEnergyCharge 241965.1875
scalar OsgEarthNet.uav[54] utilizationEnergyOverdrawMission 0
scalar OsgEarthNet.uav[54] utilizationEnergyOverdrawMaintenance 0
scalar OsgEarthNet.uav[54] utilizationCountMissions 55
scalar OsgEarthNet.uav[54] utilizationCountManeuversMission 856
scalar OsgEarthNet.uav[54] utilizationCountManeuversMaintenance 110
scalar OsgEarthNet.uav[54] utilizationCountChargeState 55
scalar OsgEarthNet.uav[54] utilizationCountOverdrawnAfterMission 0
scalar OsgEarthNet.uav[54] utilizationCountIdleState 55
scalar OsgEarthNet.uav[54] utilizationFail 0
scalar OsgEarthNet.uav[54] simulationTime 259200
scalar OsgEarthNet.uav[55] utilizationSecMission 24862.077549526
scalar OsgEarthNet.uav[55] utilizationSecMaintenance 23016.06739498
scalar OsgEarthNet.uav[55] utilizationSecCharge 173949.84705549
scalar OsgEarthNet.uav[55] utilizationSecIdle 37372.007
scalar OsgEarthNet.uav[55] utilizationEnergyMission 121721.70655441
scalar OsgEarthNet.uav[55] utilizationEnergyMaintenance 108337.15677643
scalar OsgEarthNet.uav[55] utilizationEnergyCharge 228437.27807617
scalar OsgEarthNet.uav[55] utilizationEnergyOverdrawMission 0
scalar OsgEarthNet.uav[55] utilizationEnergyOverdrawMaintenance 0
scalar OsgEarthNet.uav[55] utilizationCountMissions 52
scalar OsgEarthNet.uav[55] utilizationCountManeuversMission 865
scalar OsgEarthNet.uav[55] utilizationCountManeuversMaintenance 104
scalar OsgEarthNet.uav[55] utilizationCountChargeState 52
scalar OsgEarthNet.uav[55] utilizationCountOverdrawnAfterMission 0
scalar OsgEarthNet.uav[55] utilizationCountIdleState 51
scalar OsgEarthNet.uav[55] utilizationFail 0
scalar OsgEarthNet.uav[55] simulationTime 259200
scalar OsgEarthNet.uav[56] utilizationSecMission 20972.204934827
scalar OsgEarthNet.uav[56] utilizationSecMaintenance 17404.70611455
scalar OsgEarthNet.uav[56] utilizationSecCharge 137032.13769496
scalar OsgEarthNet.uav[56] utilizationSecIdle 83790.950255665
scalar OsgEarthNet.uav[56] utilizationEnergyMission 101114.37012863
scalar OsgEarthNet.uav[56] utilizationEnergyMaintenance 81657.573177338
scalar OsgEarthNet.uav[56] utilizationEnergyCharge 179806.26342773
scalar OsgEarthNet.uav[56] utilizationEnergyOverdrawMission 0
scalar OsgEarthNet.uav[56] utilizationEnergyOverdrawMaintenance 0
scalar OsgEarthNet.uav[56] utilizationCountMissions 41
scalar OsgEarthNet.uav[56] utilizationCountManeuversMission 660
scalar OsgEarthNet.uav[56] utilizationCountManeuversMaintenance 82
scalar OsgEarthNet.uav[56] utilizationCountChargeState 41
scalar OsgEarthNet.uav[56] utilizationCountOverdrawnAfterMission 0
scalar OsgEarthNet.uav[56] utilizationCountIdleState 41
scalar OsgEarthNet.uav[56] utilizationFail 0
scalar OsgEarthNet.uav[56] simulationTime 259200
scalar OsgEarthNet.uav[57] utilizationSecMission 18624.149730291
scalar OsgEarthNet.uav[57] utilizationSecMaintenance 17149.374457779
scalar OsgEarthNet.uav[57] utilizationSecCharge 128490
scalar OsgEarthNet.uav[57] utilizationSecIdle 94936.47481193
scalar OsgEarthNet.uav[57] utilizationEnergyMission 89456.095633506
scalar OsgEarthNet.uav[57] utilizationEnergyMaintenance 80699.174892426
scalar OsgEarthNet.uav[57] utilizationEnergyCharge 168030.37866211
scalar OsgEarthNet.uav[57] utilizationEnergyOverdrawMission 0
scalar OsgEarthNet.uav[57] utilizationEnergyOverdrawMaintenance 0
scalar OsgEarthNet.uav[57] utilizationCountMissions 38
scalar OsgEarthNet.uav[57] utilizationCountManeuversMission 517
scalar OsgEarthNet.uav[57] utilizationCountManeuversMaintenance 77
scalar OsgEarthNet.uav[57] utilizationCountChargeState 38
scalar OsgEarthNet.uav[57] utilizationCountOverdrawnAfterMission 0
scalar OsgEarthNet.uav[57] utilizationCountIdleState 38
scalar OsgEarthNet.uav[57] utilizationFail 0
scalar OsgEarthNet.uav[57] simulationTime 259200
scalar OsgEarthNet.uav[58] utilizationSecMission 17648.107457424
scalar OsgEarthNet.uav[58] utilizationSecMaintenance 15137.776388425
scalar OsgEarthNet.uav[58] utilizationSecCharge 118240
scalar OsgEarthNet.uav[58] utilizationSecIdle 108174.11515415
scalar OsgEarthNet.uav[58] utilizationEnergyMission 86772.510746002
scalar OsgEarthNet.uav[58] utilizationEnergyMaintenance 69386.117004395
scalar OsgEarthNet.uav[58] utilizationEnergyCharge 154501.66113281
scalar OsgEarthNet.uav[58] utilizationEnergyOverdrawMission 0
scalar OsgEarthNet.uav[58] utilizationEnergyOverdrawMaintenance 0
scalar OsgEarthNet.uav[58] utilizationCountMissions 35
scalar OsgEarthNet.uav[58] utilizationCountManeuversMission 556
scalar OsgEarthNet.uav[58] utilizationCountManeuversMaintenance 70
scalar OsgEarthNet.uav[58] utilizationCountChargeState 35
scalar OsgEarthNet.uav[58] utilizationCountOverdrawnAfterMission 0
scalar OsgEarthNet.uav[58] utilizationCountIdleState 35
scalar OsgEarthNet.uav[58] utilizationFail 0
scalar OsgEarthNet.uav[58] simulationTime 259200
scalar OsgEarthNet.uav[59] utilizationSecMission 20315.321108528
scalar OsgEarthNet.uav[59] utilizationSecMaintenance 17109.708485179
scalar OsgEarthNet.uav[59] utilizationSecCharge 133471.46980082
scalar OsgEarthNet.uav[59] utilizationSecIdle 88303.49960547
scalar OsgEarthNet.uav[59] utilizationEnergyMission 98383.863651276
scalar OsgEarthNet.uav[59] utilizationEnergyMaintenance 78462.781028748
scalar OsgEarthNet.uav[59] utilizationEnergyCharge 176178.04003906
scalar OsgEarthNet.uav[59] utilizationEnergyOverdrawMission 0
scalar OsgEarthNet.uav[59] utilizationEnergyOverdrawMaintenance 0
scalar OsgEarthNet.uav[59] utilizationCountMissions 40
scalar OsgEarthNet.uav[59] utilizationCountManeuversMission 619
scalar OsgEarthNet.uav[59] utilizationCountManeuversMaintenance 80
scalar OsgEarthNet.uav[59] utilizationCountChargeState 40
scalar OsgEarthNet.uav[59] utilizationCountOverdrawnAfterMission 0
scalar OsgEarthNet.uav[59] utilizationCountIdleState 36
scalar OsgEarthNet.uav[59] utilizationFail 0
scalar OsgEarthNet.uav[59] simulationTime 259200
scalar OsgEarthNet.uav[60] utilizationSecMission 20359.55716793
scalar OsgEarthNet.uav[60] utilizationSecMaintenance 20915.26661646
scalar OsgEarthNet.uav[60] utilizationSecCharge 146244.22195994
scalar OsgEarthNet.uav[60] utilizationSecIdle 71680.953255665
scalar OsgEarthNet.uav[60] utilizationEnergyMission 100182.68385315
scalar OsgEarthNet.uav[60] utilizationEnergyMaintenance 96752.72120285
scalar OsgEarthNet.uav[60] utilizationEnergyCharge 193203.0402832
scalar OsgEarthNet.uav[60] utilizationEnergyOverdrawMission 0
scalar OsgEarthNet.uav[60] utilizationEnergyOverdrawMaintenance 58.33843421936
scalar OsgEarthNet.uav[60] utilizationCountMissions 44
scalar OsgEarthNet.uav[60] utilizationCountManeuversMission 738
scalar OsgEarthNet.uav[60] utilizationCountManeuversMaintenance 88
scalar OsgEarthNet.uav[60] utilizationCountChargeState 44
scalar OsgEarthNet.uav[60] utilizationCountOverdrawnAfterMission 2
scalar OsgEarthNet.uav[60] utilizationCountIdleState 39
scalar OsgEarthNet.uav[60] utilizationFail 0
scalar OsgEarthNet.uav[60] simulationTime 259200
scalar OsgEarthNet.uav[61] utilizationSecMission 22797.546550282
scalar OsgEarthNet.uav[61] utilizationSecMaintenance 19042.386112638
scalar OsgEarthNet.uav[61] utilizationSecCharge 150790
scalar OsgEarthNet.uav[61] utilizationSecIdle 66570.06633708
scalar OsgEarthNet.uav[61] utilizationEnergyMission 108521.32129669
scalar OsgEarthNet.uav[61] utilizationEnergyMaintenance 89811.66046524
scalar OsgEarthNet.uav[61] utilizationEnergyCharge 198496.7980957
scalar OsgEarthNet.uav[61] utilizationEnergyOverdrawMission 0
scalar OsgEarthNet.uav[61] utilizationEnergyOverdrawMaintenance 0
scalar OsgEarthNet.uav[61] utilizationCountMissions 44
scalar OsgEarthNet.uav[61] utilizationCountManeuversMission 640
scalar OsgEarthNet.uav[61] utilizationCountManeuversMaintenance 88
scalar OsgEarthNet.uav[61] utilizationCountChargeState 44
scalar OsgEarthNet.uav[61] utilizationCountOverdrawnAfterMission 0
scalar OsgEarthNet.uav[61] utilizationCountIdleState 42
scalar OsgEarthNet.uav[61] utilizationFail 0
scalar OsgEarthNet.uav[61] simulationTime 259200
scalar OsgEarthNet.uav[62] utilizationSecMission 23458.320658995
scalar OsgEarthNet.uav[62] utilizationSecMaintenance 19604.485263496
scalar OsgEarthNet.uav[62] utilizationSecCharge 154298.34491772
scalar OsgEarthNet.uav[62] utilizationSecIdle 61838.848159794
scalar OsgEarthNet.uav[62] utilizationEnergyMission 112318.77135468
scalar OsgEarthNet.uav[62] utilizationEnergyMaintenance 90543.667102814
scalar OsgEarthNet.uav[62] utilizationEnergyCharge 202432.90844727
scalar OsgEarthNet.uav[62] utilizationEnergyOverdrawMission 0
scalar OsgEarthNet.uav[62] utilizationEnergyOverdrawMaintenance 0
scalar OsgEarthNet.uav[62] utilizationCountMissions 46
scalar OsgEarthNet.uav[62] utilizationCountManeuversMission 670
scalar OsgEarthNet.uav[62] utilizationCountManeuversMaintenance 92
scalar OsgEarthNet.uav[62] utilizationCountChargeState 46
scalar OsgEarthNet.uav[62] utilizationCountOverdrawnAfterMission 0
scalar OsgEarthNet.uav[62] utilizationCountIdleState 43
scalar OsgEarthNet.uav[62] utilizationFail 0
scalar OsgEarthNet.uav[62] simulationTime 259200
scalar OsgEarthNet.uav[63] utilizationSecMission 24616.20860027
scalar OsgEarthNet.uav[63] utilizationSecMaintenance 21569.071037163
scalar OsgEarthNet.uav[63] utilizationSecCharge 165200
scalar OsgEarthNet.uav[63] utilizationSecIdle 47814.719362566
scalar OsgEarthNet.uav[63] utilizationEnergyMission 118667.93556976
scalar OsgEarthNet.uav[63] utilizationEnergyMaintenance 99480.714221954
scalar OsgEarthNet.uav[63] utilizationEnergyCharge 218058.49072266
scalar OsgEarthNet.uav[63] utilizationEnergyOverdrawMission 0
scalar OsgEarthNet.uav[63] utilizationEnergyOverdrawMaintenance 0
scalar OsgEarthNet.uav[63] utilizationCountMissions 49
scalar OsgEarthNet.uav[63] utilizationCountManeuversMission 758
scalar OsgEarthNet.uav[63] utilizationCountManeuversMaintenance 98
scalar OsgEarthNet.uav[63] utilizationCountChargeState 49
scalar OsgEarthNet.uav[63] utilizationCountOverdrawnAfterMission 0
scalar OsgEarthNet.uav[63] utilizationCountIdleState 43
scalar OsgEarthNet.uav[63] utilizationFail 0
scalar OsgEarthNet.uav[63] simulationTime 259200
scalar OsgEarthNet.uav[64] utilizationSecMission 25347.125440833
scalar OsgEarthNet.uav[64] utilizationSecMaintenance 21714.09255536
scalar OsgEarthNet.uav[64] utilizationSecCharge 166646.77800381
scalar OsgEarthNet.uav[64] utilizationSecIdle 45492.003
scalar OsgEarthNet.uav[64] utilizationEnergyMission 123826.6287384
scalar OsgEarthNet.uav[64] utilizationEnergyMaintenance 101931.79748535
scalar OsgEarthNet.uav[64] utilizationEnergyCharge 221399.44262695
scalar OsgEarthNet.uav[64] utilizationEnergyOverdrawMission 0
scalar OsgEarthNet.uav[64] utilizationEnergyOverdrawMaintenance 0
scalar OsgEarthNet.uav[64] utilizationCountMissions 50
scalar OsgEarthNet.uav[64] utilizationCountManeuversMission 793
scalar OsgEarthNet.uav[64] utilizationCountManeuversMaintenance 100
scalar OsgEarthNet.uav[64] utilizationCountChargeState 50
scalar OsgEarthNet.uav[64] utilizationCountOverdrawnAfterMission 0
scalar OsgEarthNet.uav[64] utilizationCountIdleState 40
scalar OsgEarthNet.uav[64] utilizationFail 0
scalar OsgEarthNet.uav[64] simulationTime 259200
scalar OsgEarthNet.uav[65] utilizationSecMission 25349.878041345
scalar OsgEarthNet.uav[65] utilizationSecMaintenance 24142.670694624
scalar OsgEarthNet.uav[65] utilizationSecCharge 176850
scalar OsgEarthNet.uav[65] utilizationSecIdle 32857.450264031
[...]
scalar OsgEarthNet.uav[81] utilizationCountMissions 59
scalar OsgEarthNet.uav[81] utilizationCountManeuversMission 1008
scalar OsgEarthNet.uav[81] utilizationCountManeuversMaintenance 117
scalar OsgEarthNet.uav[81] utilizationCountChargeState 59
scalar OsgEarthNet.uav[81] utilizationCountOverdrawnAfterMission 0
scalar OsgEarthNet.uav[81] utilizationCountIdleState 31
scalar OsgEarthNet.uav[81] utilizationFail 0
scalar OsgEarthNet.uav[81] simulationTime 259200
scalar OsgEarthNet.uav[82] utilizationSecMission 27227.319488697
scalar OsgEarthNet.uav[82] utilizationSecMaintenance 28738.191773226
scalar OsgEarthNet.uav[82] utilizationSecCharge 194552.48473808
scalar OsgEarthNet.uav[82] utilizationSecIdle 8682.003
scalar OsgEarthNet.uav[82] utilizationEnergyMission 131301.75926971
scalar OsgEarthNet.uav[82] utilizationEnergyMaintenance 133101.16311646
scalar OsgEarthNet.uav[82] utilizationEnergyCharge 261127.15588379
scalar OsgEarthNet.uav[82] utilizationEnergyOverdrawMission 0
scalar OsgEarthNet.uav[82] utilizationEnergyOverdrawMaintenance 0
scalar OsgEarthNet.uav[82] utilizationCountMissions 60
scalar OsgEarthNet.uav[82] utilizationCountManeuversMission 876
scalar OsgEarthNet.uav[82] utilizationCountManeuversMaintenance 120
scalar OsgEarthNet.uav[82] utilizationCountChargeState 60
scalar OsgEarthNet.uav[82] utilizationCountOverdrawnAfterMission 0
scalar OsgEarthNet.uav[82] utilizationCountIdleState 25
scalar OsgEarthNet.uav[82] utilizationFail 0
scalar OsgEarthNet.uav[82] simulationTime 259200
scalar OsgEarthNet.uav[83] utilizationSecMission 27307.18561525
scalar OsgEarthNet.uav[83] utilizationSecMaintenance 28780.81338475
scalar OsgEarthNet.uav[83] utilizationSecCharge 195360
scalar OsgEarthNet.uav[83] utilizationSecIdle 7752
scalar OsgEarthNet.uav[83] utilizationEnergyMission 132846.5644989
scalar OsgEarthNet.uav[83] utilizationEnergyMaintenance 133724.82315119
scalar OsgEarthNet.uav[83] utilizationEnergyCharge 262835.79760742
scalar OsgEarthNet.uav[83] utilizationEnergyOverdrawMission 0
scalar OsgEarthNet.uav[83] utilizationEnergyOverdrawMaintenance 305.79586791992
scalar OsgEarthNet.uav[83] utilizationCountMissions 59
scalar OsgEarthNet.uav[83] utilizationCountManeuversMission 874
scalar OsgEarthNet.uav[83] utilizationCountManeuversMaintenance 119
scalar OsgEarthNet.uav[83] utilizationCountChargeState 59
scalar OsgEarthNet.uav[83] utilizationCountOverdrawnAfterMission 1
scalar OsgEarthNet.uav[83] utilizationCountIdleState 26
scalar OsgEarthNet.uav[83] utilizationFail 0
scalar OsgEarthNet.uav[83] simulationTime 259200
scalar OsgEarthNet.uav[84] utilizationSecMission 29185.716526394
scalar OsgEarthNet.uav[84] utilizationSecMaintenance 26299.623473425
scalar OsgEarthNet.uav[84] utilizationSecCharge 193770.04711066
scalar OsgEarthNet.uav[84] utilizationSecIdle 9944.6118895164
scalar OsgEarthNet.uav[84] utilizationEnergyMission 141016.32827759
scalar OsgEarthNet.uav[84] utilizationEnergyMaintenance 121988.51523209
scalar OsgEarthNet.uav[84] utilizationEnergyCharge 258706.17504883
scalar OsgEarthNet.uav[84] utilizationEnergyOverdrawMission 0
scalar OsgEarthNet.uav[84] utilizationEnergyOverdrawMaintenance 0
scalar OsgEarthNet.uav[84] utilizationCountMissions 59
scalar OsgEarthNet.uav[84] utilizationCountManeuversMission 913
scalar OsgEarthNet.uav[84] utilizationCountManeuversMaintenance 118
scalar OsgEarthNet.uav[84] utilizationCountChargeState 59
scalar OsgEarthNet.uav[84] utilizationCountOverdrawnAfterMission 0
scalar OsgEarthNet.uav[84] utilizationCountIdleState 35
scalar OsgEarthNet.uav[84] utilizationFail 0
scalar OsgEarthNet.uav[84] simulationTime 259200
scalar OsgEarthNet.uav[85] utilizationSecMission 27888.31869141
scalar OsgEarthNet.uav[85] utilizationSecMaintenance 27697.196784639
scalar OsgEarthNet.uav[85] utilizationSecCharge 195582.81047237
scalar OsgEarthNet.uav[85] utilizationSecIdle 8031.6730515863
scalar OsgEarthNet.uav[85] utilizationEnergyMission 135173.61346817
scalar OsgEarthNet.uav[85] utilizationEnergyMaintenance 129112.92185974
scalar OsgEarthNet.uav[85] utilizationEnergyCharge 263054.17016602
scalar OsgEarthNet.uav[85] utilizationEnergyOverdrawMission 0
scalar OsgEarthNet.uav[85] utilizationEnergyOverdrawMaintenance 0
scalar OsgEarthNet.uav[85] utilizationCountMissions 59
scalar OsgEarthNet.uav[85] utilizationCountManeuversMission 877
scalar OsgEarthNet.uav[85] utilizationCountManeuversMaintenance 118
scalar OsgEarthNet.uav[85] utilizationCountChargeState 59
scalar OsgEarthNet.uav[85] utilizationCountOverdrawnAfterMission 0
scalar OsgEarthNet.uav[85] utilizationCountIdleState 26
scalar OsgEarthNet.uav[85] utilizationFail 0
scalar OsgEarthNet.uav[85] simulationTime 259200
scalar OsgEarthNet.uav[86] utilizationSecMission 29279.865251984
scalar OsgEarthNet.uav[86] utilizationSecMaintenance 26398.127748016
scalar OsgEarthNet.uav[86] utilizationSecCharge 195010
scalar OsgEarthNet.uav[86] utilizationSecIdle 8512.006
scalar OsgEarthNet.uav[86] utilizationEnergyMission 141044.86542166
scalar OsgEarthNet.uav[86] utilizationEnergyMaintenance 122339.56667709
scalar OsgEarthNet.uav[86] utilizationEnergyCharge 262018.77783203
scalar OsgEarthNet.uav[86] utilizationEnergyOverdrawMission 0
scalar OsgEarthNet.uav[86] utilizationEnergyOverdrawMaintenance 0
scalar OsgEarthNet.uav[86] utilizationCountMissions 59
scalar OsgEarthNet.uav[86] utilizationCountManeuversMission 863
scalar OsgEarthNet.uav[86] utilizationCountManeuversMaintenance 119
scalar OsgEarthNet.uav[86] utilizationCountChargeState 59
scalar OsgEarthNet.uav[86] utilizationCountOverdrawnAfterMission 0
scalar OsgEarthNet.uav[86] utilizationCountIdleState 28
scalar OsgEarthNet.uav[86] utilizationFail 0
scalar OsgEarthNet.uav[86] simulationTime 259200
scalar OsgEarthNet.uav[87] utilizationSecMission 28830.925082903
scalar OsgEarthNet.uav[87] utilizationSecMaintenance 26892.688370367
scalar OsgEarthNet.uav[87] utilizationSecCharge 195874.38454673
scalar OsgEarthNet.uav[87] utilizationSecIdle 7602.001
scalar OsgEarthNet.uav[87] utilizationEnergyMission 139982.22527695
scalar OsgEarthNet.uav[87] utilizationEnergyMaintenance 125063.82421494
scalar OsgEarthNet.uav[87] utilizationEnergyCharge 264227.70507812
scalar OsgEarthNet.uav[87] utilizationEnergyOverdrawMission 0
scalar OsgEarthNet.uav[87] utilizationEnergyOverdrawMaintenance 0
scalar OsgEarthNet.uav[87] utilizationCountMissions 59
scalar OsgEarthNet.uav[87] utilizationCountManeuversMission 872
scalar OsgEarthNet.uav[87] utilizationCountManeuversMaintenance 118
scalar OsgEarthNet.uav[87] utilizationCountChargeState 59
scalar OsgEarthNet.uav[87] utilizationCountOverdrawnAfterMission 0
scalar OsgEarthNet.uav[87] utilizationCountIdleState 25
scalar OsgEarthNet.uav[87] utilizationFail 0
scalar OsgEarthNet.uav[87] simulationTime 259200
scalar OsgEarthNet.uav[88] utilizationSecMission 31255.848029543
scalar OsgEarthNet.uav[88] utilizationSecMaintenance 24571.394959399
scalar OsgEarthNet.uav[88] utilizationSecCharge 195110.75601106
scalar OsgEarthNet.uav[88] utilizationSecIdle 8262
scalar OsgEarthNet.uav[88] utilizationEnergyMission 150070.14692874
scalar OsgEarthNet.uav[88] utilizationEnergyMaintenance 115536.80348969
scalar OsgEarthNet.uav[88] utilizationEnergyCharge 263850.90722656
scalar OsgEarthNet.uav[88] utilizationEnergyOverdrawMission 0
scalar OsgEarthNet.uav[88] utilizationEnergyOverdrawMaintenance 0
scalar OsgEarthNet.uav[88] utilizationCountMissions 59
scalar OsgEarthNet.uav[88] utilizationCountManeuversMission 898
scalar OsgEarthNet.uav[88] utilizationCountManeuversMaintenance 117
scalar OsgEarthNet.uav[88] utilizationCountChargeState 59
scalar OsgEarthNet.uav[88] utilizationCountOverdrawnAfterMission 0
scalar OsgEarthNet.uav[88] utilizationCountIdleState 27
scalar OsgEarthNet.uav[88] utilizationFail 0
scalar OsgEarthNet.uav[88] simulationTime 259200
scalar OsgEarthNet.uav[89] utilizationSecMission 27587.192811368
scalar OsgEarthNet.uav[89] utilizationSecMaintenance 27414.913089794
scalar OsgEarthNet.uav[89] utilizationSecCharge 193633.76734117
scalar OsgEarthNet.uav[89] utilizationSecIdle 10564.125757665
scalar OsgEarthNet.uav[89] utilizationEnergyMission 133051.84060287
scalar OsgEarthNet.uav[89] utilizationEnergyMaintenance 126815.80542755
scalar OsgEarthNet.uav[89] utilizationEnergyCharge 261022.67895508
scalar OsgEarthNet.uav[89] utilizationEnergyOverdrawMission 0
scalar OsgEarthNet.uav[89] utilizationEnergyOverdrawMaintenance 0
scalar OsgEarthNet.uav[89] utilizationCountMissions 59
scalar OsgEarthNet.uav[89] utilizationCountManeuversMission 861
scalar OsgEarthNet.uav[89] utilizationCountManeuversMaintenance 118
scalar OsgEarthNet.uav[89] utilizationCountChargeState 59
scalar OsgEarthNet.uav[89] utilizationCountOverdrawnAfterMission 0
scalar OsgEarthNet.uav[89] utilizationCountIdleState 26
scalar OsgEarthNet.uav[89] utilizationFail 0
scalar OsgEarthNet.uav[89] simulationTime 259200
scalar OsgEarthNet.uav[90] utilizationSecMission 29798.939717595
scalar OsgEarthNet.uav[90] utilizationSecMaintenance 27188.045005633
scalar OsgEarthNet.uav[90] utilizationSecCharge 196867.46736751
scalar OsgEarthNet.uav[90] utilizationSecIdle 5345.5469092579
scalar OsgEarthNet.uav[90] utilizationEnergyMission 143090.81970596
scalar OsgEarthNet.uav[90] utilizationEnergyMaintenance 125795.57324219
scalar OsgEarthNet.uav[90] utilizationEnergyCharge 264640.99200439
scalar OsgEarthNet.uav[90] utilizationEnergyOverdrawMission 0
scalar OsgEarthNet.uav[90] utilizationEnergyOverdrawMaintenance 0
scalar OsgEarthNet.uav[90] utilizationCountMissions 61
scalar OsgEarthNet.uav[90] utilizationCountManeuversMission 957
scalar OsgEarthNet.uav[90] utilizationCountManeuversMaintenance 122
scalar OsgEarthNet.uav[90] utilizationCountChargeState 61
scalar OsgEarthNet.uav[90] utilizationCountOverdrawnAfterMission 0
scalar OsgEarthNet.uav[90] utilizationCountIdleState 22
scalar OsgEarthNet.uav[90] utilizationFail 0
scalar OsgEarthNet.uav[90] simulationTime 259200
scalar OsgEarthNet.uav[91] utilizationSecMission 28368.06987332
scalar OsgEarthNet.uav[91] utilizationSecMaintenance 26930.294340743
scalar OsgEarthNet.uav[91] utilizationSecCharge 194916.18969725
scalar OsgEarthNet.uav[91] utilizationSecIdle 8985.4450886909
scalar OsgEarthNet.uav[91] utilizationEnergyMission 137590.62030029
scalar OsgEarthNet.uav[91] utilizationEnergyMaintenance 125605.68609619
scalar OsgEarthNet.uav[91] utilizationEnergyCharge 261208.29956055
scalar OsgEarthNet.uav[91] utilizationEnergyOverdrawMission 0
scalar OsgEarthNet.uav[91] utilizationEnergyOverdrawMaintenance 0
scalar OsgEarthNet.uav[91] utilizationCountMissions 59
scalar OsgEarthNet.uav[91] utilizationCountManeuversMission 885
scalar OsgEarthNet.uav[91] utilizationCountManeuversMaintenance 118
scalar OsgEarthNet.uav[91] utilizationCountChargeState 59
scalar OsgEarthNet.uav[91] utilizationCountOverdrawnAfterMission 0
scalar OsgEarthNet.uav[91] utilizationCountIdleState 27
scalar OsgEarthNet.uav[91] utilizationFail 0
scalar OsgEarthNet.uav[91] simulationTime 259200
scalar OsgEarthNet.uav[92] utilizationSecMission 28644.653240147
scalar OsgEarthNet.uav[92] utilizationSecMaintenance 27863.345759853
scalar OsgEarthNet.uav[92] utilizationSecCharge 198150
scalar OsgEarthNet.uav[92] utilizationSecIdle 4542
scalar OsgEarthNet.uav[92] utilizationEnergyMission 141135.57549306
scalar OsgEarthNet.uav[92] utilizationEnergyMaintenance 130111.27300262
scalar OsgEarthNet.uav[92] utilizationEnergyCharge 267965.79223633
scalar OsgEarthNet.uav[92] utilizationEnergyOverdrawMission 0
scalar OsgEarthNet.uav[92] utilizationEnergyOverdrawMaintenance 0
scalar OsgEarthNet.uav[92] utilizationCountMissions 60
scalar OsgEarthNet.uav[92] utilizationCountManeuversMission 958
scalar OsgEarthNet.uav[92] utilizationCountManeuversMaintenance 121
scalar OsgEarthNet.uav[92] utilizationCountChargeState 60
scalar OsgEarthNet.uav[92] utilizationCountOverdrawnAfterMission 0
scalar OsgEarthNet.uav[92] utilizationCountIdleState 23
scalar OsgEarthNet.uav[92] utilizationFail 0
scalar OsgEarthNet.uav[92] simulationTime 259200
scalar OsgEarthNet.uav[93] utilizationSecMission 29741.744874567
scalar OsgEarthNet.uav[93] utilizationSecMaintenance 25296.070788761
scalar OsgEarthNet.uav[93] utilizationSecCharge 193200.17033667
scalar OsgEarthNet.uav[93] utilizationSecIdle 10962.013
scalar OsgEarthNet.uav[93] utilizationEnergyMission 145131.67316818
scalar OsgEarthNet.uav[93] utilizationEnergyMaintenance 118205.49718857
scalar OsgEarthNet.uav[93] utilizationEnergyCharge 260957.76928711
scalar OsgEarthNet.uav[93] utilizationEnergyOverdrawMission 0
scalar OsgEarthNet.uav[93] utilizationEnergyOverdrawMaintenance 197.40905761719
scalar OsgEarthNet.uav[93] utilizationCountMissions 58
scalar OsgEarthNet.uav[93] utilizationCountManeuversMission 929
scalar OsgEarthNet.uav[93] utilizationCountManeuversMaintenance 116
scalar OsgEarthNet.uav[93] utilizationCountChargeState 58
scalar OsgEarthNet.uav[93] utilizationCountOverdrawnAfterMission 1
scalar OsgEarthNet.uav[93] utilizationCountIdleState 27
scalar OsgEarthNet.uav[93] utilizationFail 0
scalar OsgEarthNet.uav[93] simulationTime 259200
scalar OsgEarthNet.uav[94] utilizationSecMission 30590.206477093
scalar OsgEarthNet.uav[94] utilizationSecMaintenance 25948.736718946
scalar OsgEarthNet.uav[94] utilizationSecCharge 194820
scalar OsgEarthNet.uav[94] utilizationSecIdle 7841.0558039614
scalar OsgEarthNet.uav[94] utilizationEnergyMission 146861.91434479
scalar OsgEarthNet.uav[94] utilizationEnergyMaintenance 120573.60771053
scalar OsgEarthNet.uav[94] utilizationEnergyCharge 262468.5246582
scalar OsgEarthNet.uav[94] utilizationEnergyOverdrawMission 0
scalar OsgEarthNet.uav[94] utilizationEnergyOverdrawMaintenance 0
scalar OsgEarthNet.uav[94] utilizationCountMissions 60
scalar OsgEarthNet.uav[94] utilizationCountManeuversMission 891
scalar OsgEarthNet.uav[94] utilizationCountManeuversMaintenance 120
scalar OsgEarthNet.uav[94] utilizationCountChargeState 59
scalar OsgEarthNet.uav[94] utilizationCountOverdrawnAfterMission 0
scalar OsgEarthNet.uav[94] utilizationCountIdleState 23
scalar OsgEarthNet.uav[94] utilizationFail 0
scalar OsgEarthNet.uav[94] simulationTime 259200
scalar OsgEarthNet.uav[95] utilizationSecMission 28269.405402487
scalar OsgEarthNet.uav[95] utilizationSecMaintenance 27556.984933817
scalar OsgEarthNet.uav[95] utilizationSecCharge 197083.97758303
scalar OsgEarthNet.uav[95] utilizationSecIdle 6289.6310806652
scalar OsgEarthNet.uav[95] utilizationEnergyMission 138771.31303787
scalar OsgEarthNet.uav[95] utilizationEnergyMaintenance 127948.1117897
scalar OsgEarthNet.uav[95] utilizationEnergyCharge 265366.80786133
scalar OsgEarthNet.uav[95] utilizationEnergyOverdrawMission 0
scalar OsgEarthNet.uav[95] utilizationEnergyOverdrawMaintenance 0
scalar OsgEarthNet.uav[95] utilizationCountMissions 60
scalar OsgEarthNet.uav[95] utilizationCountManeuversMission 854
scalar OsgEarthNet.uav[95] utilizationCountManeuversMaintenance 120
scalar OsgEarthNet.uav[95] utilizationCountChargeState 60
scalar OsgEarthNet.uav[95] utilizationCountOverdrawnAfterMission 0
scalar OsgEarthNet.uav[95] utilizationCountIdleState 24
scalar OsgEarthNet.uav[95] utilizationFail 0
scalar OsgEarthNet.uav[95] simulationTime 259200
scalar OsgEarthNet.uav[96] utilizationSecMission 27599.413380602
scalar OsgEarthNet.uav[96] utilizationSecMaintenance 29267.287527897
scalar OsgEarthNet.uav[96] utilizationSecCharge 196828.67700934
scalar OsgEarthNet.uav[96] utilizationSecIdle 5504.621082158
scalar OsgEarthNet.uav[96] utilizationEnergyMission 134185.76034546
scalar OsgEarthNet.uav[96] utilizationEnergyMaintenance 134933.935009
scalar OsgEarthNet.uav[96] utilizationEnergyCharge 267173.70019531
scalar OsgEarthNet.uav[96] utilizationEnergyOverdrawMission 0
scalar OsgEarthNet.uav[96] utilizationEnergyOverdrawMaintenance 0
scalar OsgEarthNet.uav[96] utilizationCountMissions 61
scalar OsgEarthNet.uav[96] utilizationCountManeuversMission 909
scalar OsgEarthNet.uav[96] utilizationCountManeuversMaintenance 122
scalar OsgEarthNet.uav[96] utilizationCountChargeState 61
scalar OsgEarthNet.uav[96] utilizationCountOverdrawnAfterMission 0
scalar OsgEarthNet.uav[96] utilizationCountIdleState 22
scalar OsgEarthNet.uav[96] utilizationFail 0
scalar OsgEarthNet.uav[96] simulationTime 259200
scalar OsgEarthNet.uav[97] utilizationSecMission 31212.137094958
scalar OsgEarthNet.uav[97] utilizationSecMaintenance 24542.593973596
scalar OsgEarthNet.uav[97] utilizationSecCharge 193355.88392686
scalar OsgEarthNet.uav[97] utilizationSecIdle 10089.384004586
scalar OsgEarthNet.uav[97] utilizationEnergyMission 149053.15230179
scalar OsgEarthNet.uav[97] utilizationEnergyMaintenance 114450.15890884
scalar OsgEarthNet.uav[97] utilizationEnergyCharge 259519.98223877
scalar OsgEarthNet.uav[97] utilizationEnergyOverdrawMission 0
scalar OsgEarthNet.uav[97] utilizationEnergyOverdrawMaintenance 0
scalar OsgEarthNet.uav[97] utilizationCountMissions 60
scalar OsgEarthNet.uav[97] utilizationCountManeuversMission 909
scalar OsgEarthNet.uav[97] utilizationCountManeuversMaintenance 120
scalar OsgEarthNet.uav[97] utilizationCountChargeState 60
scalar OsgEarthNet.uav[97] utilizationCountOverdrawnAfterMission 0
scalar OsgEarthNet.uav[97] utilizationCountIdleState 27
scalar OsgEarthNet.uav[97] utilizationFail 0
scalar OsgEarthNet.uav[97] simulationTime 259200
scalar OsgEarthNet.uav[98] utilizationSecMission 28601.884533161
scalar OsgEarthNet.uav[98] utilizationSecMaintenance 28572.237404997
scalar OsgEarthNet.uav[98] utilizationSecCharge 197653.87606184
scalar OsgEarthNet.uav[98] utilizationSecIdle 4372.001
scalar OsgEarthNet.uav[98] utilizationEnergyMission 136935.15446091
scalar OsgEarthNet.uav[98] utilizationEnergyMaintenance 133583.74351883
scalar OsgEarthNet.uav[98] utilizationEnergyCharge 268022.68212891
scalar OsgEarthNet.uav[98] utilizationEnergyOverdrawMission 0
scalar OsgEarthNet.uav[98] utilizationEnergyOverdrawMaintenance 0
scalar OsgEarthNet.uav[98] utilizationCountMissions 60
scalar OsgEarthNet.uav[98] utilizationCountManeuversMission 733
scalar OsgEarthNet.uav[98] utilizationCountManeuversMaintenance 120
scalar OsgEarthNet.uav[98] utilizationCountChargeState 60
scalar OsgEarthNet.uav[98] utilizationCountOverdrawnAfterMission 0
scalar OsgEarthNet.uav[98] utilizationCountIdleState 17
scalar OsgEarthNet.uav[98] utilizationFail 0
scalar OsgEarthNet.uav[98] simulationTime 259200
scalar OsgEarthNet.uav[99] utilizationSecMission 29493.309200055
scalar OsgEarthNet.uav[99] utilizationSecMaintenance 27030.042040009
scalar OsgEarthNet.uav[99] utilizationSecCharge 196700
scalar OsgEarthNet.uav[99] utilizationSecIdle 5976.6477599359
scalar OsgEarthNet.uav[99] utilizationEnergyMission 139823.35958099
scalar OsgEarthNet.uav[99] utilizationEnergyMaintenance 125328.53567111
scalar OsgEarthNet.uav[99] utilizationEnergyCharge 266625.01220703
scalar OsgEarthNet.uav[99] utilizationEnergyOverdrawMission 0
scalar OsgEarthNet.uav[99] utilizationEnergyOverdrawMaintenance 0
scalar OsgEarthNet.uav[99] utilizationCountMissions 60
scalar OsgEarthNet.uav[99] utilizationCountManeuversMission 886
scalar OsgEarthNet.uav[99] utilizationCountManeuversMaintenance 121
scalar OsgEarthNet.uav[99] utilizationCountChargeState 60
scalar OsgEarthNet.uav[99] utilizationCountOverdrawnAfterMission 0
scalar OsgEarthNet.uav[99] utilizationCountIdleState 21
scalar OsgEarthNet.uav[99] utilizationFail 0
scalar OsgEarthNet.uav[99] simulationTime 259200
scalar OsgEarthNet.cs[0] usedPower 5236759.9961413
scalar OsgEarthNet.cs[0] chargedPower 5236759.9961413
scalar OsgEarthNet.cs[0] chargedMobileNodes 924
scalar OsgEarthNet.cs[0] reservations 1198
scalar OsgEarthNet.cs[1] usedPower 5666882.3780437
scalar OsgEarthNet.cs[1] chargedPower 5666882.3780437
scalar OsgEarthNet.cs[1] chargedMobileNodes 922
scalar OsgEarthNet.cs[1] reservations 1257
scalar OsgEarthNet.cs[2] usedPower 9680527.08531
scalar OsgEarthNet.cs[2] chargedPower 9680527.08531
scalar OsgEarthNet.cs[2] chargedMobileNodes 1744
scalar OsgEarthNet.cs[2] reservations 2197

