version 2
run Szenario_Hotel_Gabelbach-6-20180711-16:11:42-1440
attr configname Szenario_Hotel_Gabelbach
attr datetime 20180711-16:11:42
attr experiment Szenario_Hotel_Gabelbach
attr inifile omnetpp.ini
attr iterationvars "$replM=0, $replSearchM=0"
attr iterationvarsf replM=0,replSearchM=0-
attr measurement "$replM=0, $replSearchM=0"
attr network OsgEarthNet
attr processid 1440
attr repetition 6
attr replication #6
attr resultdir results
attr runnumber 6
attr seedset 6
itervar replM 0
itervar replSearchM 0
param *.osgEarthScene.scene "\"Szenario_Hotel_Gabelbach.earth\""
param *.playgroundLatitude 50.6830269
param *.playgroundLongitude 10.8538055
param *.playgroundWidth 3500m
param *.playgroundHeight 3500m
param *.numCSs 3
param *.numUAVs 100
param *.cs[0].posX 3537m
param *.cs[0].posY 965m
param *.cs[0].posZ 538m
param *.cs[1].posX 312m
param *.cs[1].posY 1262m
param *.cs[1].posZ 539m
param *.cs[2].posX 2185m
param *.cs[2].posY 3026m
param *.cs[2].posZ 777m
param *.cs[3].posX 10m
param *.cs[3].posY 2200m
param *.cs[3].posZ 560m
param *.cs[4].posX 750m
param *.cs[4].posY 200m
param *.cs[4].posZ 540m
param *.cs[5].posX 2450m
param *.cs[5].posY 180m
param *.cs[5].posZ 524m
param *.cs[6].posX 3140m
param *.cs[6].posY 1790m
param *.cs[6].posZ 606m
param *.numCSs 3
param *.numUAVs 100
param *.uav[*].replacementMethod 0
param *.missionControl.replacementSearchMethod 0
param *.*.timeStep 10s
param *.uav[*].commandPreviewCommandCount 20
param *.missionControl.missionFiles "\"missions\\\\Szenario_WB_Hotel_Gabelbach_Mission_Hotel.waypoints,missions\\\\Szenario_WB_Hotel_Gabelbach_Mission_Kickelhahn.waypoints,missions\\\\Szenario_WB_Hotel_Gabelbach_Mission_Ilmenau_Sportplatz.waypoints,missions\\\\Szenario_WB_Hotel_Gabelbach_Mission_Manebach_Mitte.waypoints,missions\\\\Szenario_WB_Hotel_Gabelbach_Mission_Manebach_Sued.waypoints,missions\\\\Szenario_WB_Hotel_Gabelbach_Hover_HoheSchlaufe.waypoints,missions\\\\Szenario_WB_Hotel_Gabelbach_Hover_Kickelhahn.waypoints,missions\\\\Szenario_WB_Hotel_Gabelbach_Hover_Gabelbachskopf.waypoints,missions\\\\Szenario_WB_Hotel_Gabelbach_Hover_Dachskopf.waypoints\""
param *.uav[0].startX 3537m
param *.uav[0].startY 965m
param *.uav[0].startZ 539m
param *.uav[1].startX 312m
param *.uav[1].startY 1262m
param *.uav[1].startZ 540m
param *.uav[2].startX 2185m
param *.uav[2].startY 3026m
param *.uav[2].startZ 778m
param *.uav[3].startX 3537m
param *.uav[3].startY 965m
param *.uav[3].startZ 539m
param *.uav[4].startX 312m
param *.uav[4].startY 1262m
param *.uav[4].startZ 540m
param *.uav[5].startX 2185m
param *.uav[5].startY 3026m
param *.uav[5].startZ 778m
param *.uav[6].startX 3537m
param *.uav[6].startY 965m
param *.uav[6].startZ 539m
param *.uav[7].startX 312m
param *.uav[7].startY 1262m
param *.uav[7].startZ 540m
param *.uav[8].startX 2185m
param *.uav[8].startY 3026m
param *.uav[8].startZ 778m
param *.uav[9].startX 3537m
param *.uav[9].startY 965m
param *.uav[9].startZ 539m
param *.uav[10].startX 3537m
param *.uav[10].startY 965m
param *.uav[10].startZ 539m
param *.uav[11].startX 312m
param *.uav[11].startY 1262m
param *.uav[11].startZ 540m
param *.uav[12].startX 2185m
param *.uav[12].startY 3026m
param *.uav[12].startZ 778m
param *.uav[13].startX 3537m
param *.uav[13].startY 965m
param *.uav[13].startZ 539m
param *.uav[14].startX 312m
param *.uav[14].startY 1262m
param *.uav[14].startZ 540m
param *.uav[15].startX 2185m
param *.uav[15].startY 3026m
param *.uav[15].startZ 778m
param *.uav[16].startX 3537m
param *.uav[16].startY 965m
param *.uav[16].startZ 539m
param *.uav[17].startX 312m
param *.uav[17].startY 1262m
param *.uav[17].startZ 540m
param *.uav[18].startX 2185m
param *.uav[18].startY 3026m
param *.uav[18].startZ 778m
param *.uav[19].startX 3537m
param *.uav[19].startY 965m
param *.uav[19].startZ 539m
param *.uav[20].startX 3537m
param *.uav[20].startY 965m
param *.uav[20].startZ 539m
param *.uav[21].startX 312m
param *.uav[21].startY 1262m
param *.uav[21].startZ 540m
param *.uav[22].startX 2185m
param *.uav[22].startY 3026m
param *.uav[22].startZ 778m
param *.uav[23].startX 3537m
param *.uav[23].startY 965m
param *.uav[23].startZ 539m
param *.uav[24].startX 312m
param *.uav[24].startY 1262m
param *.uav[24].startZ 540m
param *.uav[25].startX 2185m
param *.uav[25].startY 3026m
param *.uav[25].startZ 778m
param *.uav[26].startX 3537m
param *.uav[26].startY 965m
param *.uav[26].startZ 539m
param *.uav[27].startX 312m
param *.uav[27].startY 1262m
param *.uav[27].startZ 540m
param *.uav[28].startX 2185m
param *.uav[28].startY 3026m
param *.uav[28].startZ 778m
param *.uav[29].startX 3537m
param *.uav[29].startY 965m
param *.uav[29].startZ 539m
param *.uav[30].startX 3537m
param *.uav[30].startY 965m
param *.uav[30].startZ 539m
param *.uav[31].startX 312m
param *.uav[31].startY 1262m
param *.uav[31].startZ 540m
param *.uav[32].startX 2185m
param *.uav[32].startY 3026m
param *.uav[32].startZ 778m
param *.uav[33].startX 3537m
param *.uav[33].startY 965m
param *.uav[33].startZ 539m
param *.uav[34].startX 312m
param *.uav[34].startY 1262m
param *.uav[34].startZ 540m
param *.uav[35].startX 2185m
param *.uav[35].startY 3026m
param *.uav[35].startZ 778m
param *.uav[36].startX 3537m
param *.uav[36].startY 965m
param *.uav[36].startZ 539m
param *.uav[37].startX 312m
param *.uav[37].startY 1262m
param *.uav[37].startZ 540m
param *.uav[38].startX 2185m
param *.uav[38].startY 3026m
param *.uav[38].startZ 778m
param *.uav[39].startX 3537m
param *.uav[39].startY 965m
param *.uav[39].startZ 539m
param *.uav[40].startX 3537m
param *.uav[40].startY 965m
param *.uav[40].startZ 539m
param *.uav[41].startX 312m
param *.uav[41].startY 1262m
param *.uav[41].startZ 540m
param *.uav[42].startX 2185m
param *.uav[42].startY 3026m
param *.uav[42].startZ 778m
param *.uav[43].startX 3537m
param *.uav[43].startY 965m
param *.uav[43].startZ 539m
param *.uav[44].startX 312m
param *.uav[44].startY 1262m
param *.uav[44].startZ 540m
param *.uav[45].startX 2185m
param *.uav[45].startY 3026m
param *.uav[45].startZ 778m
param *.uav[46].startX 3537m
param *.uav[46].startY 965m
param *.uav[46].startZ 539m
param *.uav[47].startX 312m
param *.uav[47].startY 1262m
param *.uav[47].startZ 540m
param *.uav[48].startX 2185m
param *.uav[48].startY 3026m
param *.uav[48].startZ 778m
param *.uav[49].startX 3537m
param *.uav[49].startY 965m
param *.uav[49].startZ 539m
param *.uav[50].startX 3537m
param *.uav[50].startY 965m
param *.uav[50].startZ 539m
param *.uav[51].startX 312m
param *.uav[51].startY 1262m
param *.uav[51].startZ 540m
param *.uav[52].startX 2185m
param *.uav[52].startY 3026m
param *.uav[52].startZ 778m
param *.uav[53].startX 3537m
param *.uav[53].startY 965m
param *.uav[53].startZ 539m
param *.uav[54].startX 312m
param *.uav[54].startY 1262m
param *.uav[54].startZ 540m
param *.uav[55].startX 2185m
param *.uav[55].startY 3026m
param *.uav[55].startZ 778m
param *.uav[56].startX 3537m
param *.uav[56].startY 965m
param *.uav[56].startZ 539m
param *.uav[57].startX 312m
param *.uav[57].startY 1262m
param *.uav[57].startZ 540m
param *.uav[58].startX 2185m
param *.uav[58].startY 3026m
param *.uav[58].startZ 778m
param *.uav[59].startX 3537m
param *.uav[59].startY 965m
param *.uav[59].startZ 539m
param *.uav[60].startX 3537m
param *.uav[60].startY 965m
param *.uav[60].startZ 539m
param *.uav[61].startX 312m
param *.uav[61].startY 1262m
param *.uav[61].startZ 540m
param *.uav[62].startX 2185m
param *.uav[62].startY 3026m
param *.uav[62].startZ 778m
param *.uav[63].startX 3537m
param *.uav[63].startY 965m
param *.uav[63].startZ 539m
param *.uav[64].startX 312m
param *.uav[64].startY 1262m
param *.uav[64].startZ 540m
param *.uav[65].startX 2185m
param *.uav[65].startY 3026m
param *.uav[65].startZ 778m
param *.uav[66].startX 3537m
param *.uav[66].startY 965m
param *.uav[66].startZ 539m
param *.uav[67].startX 312m
param *.uav[67].startY 1262m
param *.uav[67].startZ 540m
param *.uav[68].startX 2185m
param *.uav[68].startY 3026m
param *.uav[68].startZ 778m
param *.uav[69].startX 3537m
param *.uav[69].startY 965m
param *.uav[69].startZ 539m
param *.uav[70].startX 3537m
param *.uav[70].startY 965m
param *.uav[70].startZ 539m
param *.uav[71].startX 312m
param *.uav[71].startY 1262m
param *.uav[71].startZ 540m
param *.uav[72].startX 2185m
param *.uav[72].startY 3026m
param *.uav[72].startZ 778m
param *.uav[73].startX 3537m
param *.uav[73].startY 965m
param *.uav[73].startZ 539m
param *.uav[74].startX 312m
param *.uav[74].startY 1262m
param *.uav[74].startZ 540m
param *.uav[75].startX 2185m
param *.uav[75].startY 3026m
param *.uav[75].startZ 778m
param *.uav[76].startX 3537m
param *.uav[76].startY 965m
param *.uav[76].startZ 539m
param *.uav[77].startX 312m
param *.uav[77].startY 1262m
param *.uav[77].startZ 540m
param *.uav[78].startX 2185m
param *.uav[78].startY 3026m
param *.uav[78].startZ 778m
param *.uav[79].startX 3537m
param *.uav[79].startY 965m
param *.uav[79].startZ 539m
param *.uav[80].startX 3537m
param *.uav[80].startY 965m
param *.uav[80].startZ 539m
param *.uav[81].startX 312m
param *.uav[81].startY 1262m
param *.uav[81].startZ 540m
param *.uav[82].startX 2185m
param *.uav[82].startY 3026m
param *.uav[82].startZ 778m
param *.uav[83].startX 3537m
param *.uav[83].startY 965m
param *.uav[83].startZ 539m
param *.uav[84].startX 312m
param *.uav[84].startY 1262m
param *.uav[84].startZ 540m
param *.uav[85].startX 2185m
param *.uav[85].startY 3026m
param *.uav[85].startZ 778m
param *.uav[86].startX 3537m
param *.uav[86].startY 965m
param *.uav[86].startZ 539m
param *.uav[87].startX 312m
param *.uav[87].startY 1262m
param *.uav[87].startZ 540m
param *.uav[88].startX 2185m
param *.uav[88].startY 3026m
param *.uav[88].startZ 778m
param *.uav[89].startX 3537m
param *.uav[89].startY 965m
param *.uav[89].startZ 539m
param *.uav[90].startX 3537m
param *.uav[90].startY 965m
param *.uav[90].startZ 539m
param *.uav[91].startX 312m
param *.uav[91].startY 1262m
param *.uav[91].startZ 540m
param *.uav[92].startX 2185m
param *.uav[92].startY 3026m
param *.uav[92].startZ 778m
param *.uav[93].startX 3537m
param *.uav[93].startY 965m
param *.uav[93].startZ 539m
param *.uav[94].startX 312m
param *.uav[94].startY 1262m
param *.uav[94].startZ 540m
param *.uav[95].startX 2185m
param *.uav[95].startY 3026m
param *.uav[95].startZ 778m
param *.uav[96].startX 3537m
param *.uav[96].startY 965m
param *.uav[96].startZ 539m
param *.uav[97].startX 312m
param *.uav[97].startY 1262m
param *.uav[97].startZ 540m
param *.uav[98].startX 2185m
param *.uav[98].startY 3026m
param *.uav[98].startZ 778m
param *.uav[99].startX 3537m
param *.uav[99].startY 965m
param *.uav[99].startZ 539m
param *.osgEarthScene.scene "\"boston.earth\""
param *.playgroundLatitude 42.3558
param *.playgroundLongitude -71.0677
param *.playgroundWidth 400m
param *.playgroundHeight 200m
param *.channelController.connectionColor "\"#0000FF40\""
param *.channelController.showConnections false
param *.uav[*].modelURL "\"quadrocopter.small.obj.15.scale.0,0,90.rot\""
param *.uav[*].labelColor "\"#FF7C00CC\""
param *.uav[*].label2Color "\"#FF7C00EE\""
param *.uav[*].batteryCapacity 5200mAh
param *.uav[*].batteryRemaining uav[index].batteryCapacity
param *.uav[*].predictionQuantile 0.95
param *.uav[*].replacementMethod 2
param *.uav[*].weightedSumWeight 0.5
param *.cs[*].modelURL "\"chargingstation_v1.osgt.2.scale.0,0,0.rot.0,0,-15e-1.trans\""
param *.cs[*].spotsWaiting 999
param *.cs[*].spotsCharging 999
param *.cs[*].chargeEffectivenessPercentage 100
param *.cs[*].nonLinearPhaseStartPercentage 85
param *.cs[*].chargeCurrent 6.0A
param *.cs[*].prioritizeFastCharge true
param *.missionControl.replacementSearchMethod 0
param *.*.timeStep 9s

scalar OsgEarthNet.uav[0] utilizationSecMission 2922.9960564057
scalar OsgEarthNet.uav[0] utilizationSecMaintenance 1448.1993962044
scalar OsgEarthNet.uav[0] utilizationSecCharge 17210
scalar OsgEarthNet.uav[0] utilizationSecIdle 237618.80354739
scalar OsgEarthNet.uav[0] utilizationEnergyMission 14870.887680054
scalar OsgEarthNet.uav[0] utilizationEnergyMaintenance 7079.9020652771
scalar OsgEarthNet.uav[0] utilizationEnergyCharge 22662.606445312
scalar OsgEarthNet.uav[0] utilizationEnergyOverdrawMission 0
scalar OsgEarthNet.uav[0] utilizationEnergyOverdrawMaintenance 0
scalar OsgEarthNet.uav[0] utilizationCountMissions 5
scalar OsgEarthNet.uav[0] utilizationCountManeuversMission 124
scalar OsgEarthNet.uav[0] utilizationCountManeuversMaintenance 10
scalar OsgEarthNet.uav[0] utilizationCountChargeState 5
scalar OsgEarthNet.uav[0] utilizationCountOverdrawnAfterMission 0
scalar OsgEarthNet.uav[0] utilizationCountIdleState 6
scalar OsgEarthNet.uav[0] utilizationFail 0
scalar OsgEarthNet.uav[0] simulationTime 259200
scalar OsgEarthNet.uav[1] utilizationSecMission 26145.974519774
scalar OsgEarthNet.uav[1] utilizationSecMaintenance 20232.264891675
scalar OsgEarthNet.uav[1] utilizationSecCharge 166150.70378459
scalar OsgEarthNet.uav[1] utilizationSecIdle 46671.055803961
scalar OsgEarthNet.uav[1] utilizationEnergyMission 126011.65812683
scalar OsgEarthNet.uav[1] utilizationEnergyMaintenance 94598.163433075
scalar OsgEarthNet.uav[1] utilizationEnergyCharge 219383.7512207
scalar OsgEarthNet.uav[1] utilizationEnergyOverdrawMission 0
scalar OsgEarthNet.uav[1] utilizationEnergyOverdrawMaintenance 0
scalar OsgEarthNet.uav[1] utilizationCountMissions 49
scalar OsgEarthNet.uav[1] utilizationCountManeuversMission 729
scalar OsgEarthNet.uav[1] utilizationCountManeuversMaintenance 98
scalar OsgEarthNet.uav[1] utilizationCountChargeState 49
scalar OsgEarthNet.uav[1] utilizationCountOverdrawnAfterMission 0
scalar OsgEarthNet.uav[1] utilizationCountIdleState 49
scalar OsgEarthNet.uav[1] utilizationFail 0
scalar OsgEarthNet.uav[1] simulationTime 259200
scalar OsgEarthNet.uav[2] utilizationSecMission 26311.996942043
scalar OsgEarthNet.uav[2] utilizationSecMaintenance 24916.002057957
scalar OsgEarthNet.uav[2] utilizationSecCharge 186300
scalar OsgEarthNet.uav[2] utilizationSecIdle 21672
scalar OsgEarthNet.uav[2] utilizationEnergyMission 130055.82343459
scalar OsgEarthNet.uav[2] utilizationEnergyMaintenance 116607.97386932
scalar OsgEarthNet.uav[2] utilizationEnergyCharge 243616.07568359
scalar OsgEarthNet.uav[2] utilizationEnergyOverdrawMission 0
scalar OsgEarthNet.uav[2] utilizationEnergyOverdrawMaintenance 0
scalar OsgEarthNet.uav[2] utilizationCountMissions 55
scalar OsgEarthNet.uav[2] utilizationCountManeuversMission 903
scalar OsgEarthNet.uav[2] utilizationCountManeuversMaintenance 111
scalar OsgEarthNet.uav[2] utilizationCountChargeState 55
scalar OsgEarthNet.uav[2] utilizationCountOverdrawnAfterMission 0
scalar OsgEarthNet.uav[2] utilizationCountIdleState 56
scalar OsgEarthNet.uav[2] utilizationFail 0
scalar OsgEarthNet.uav[2] simulationTime 259200
scalar OsgEarthNet.uav[3] utilizationSecMission 581.19640448947
scalar OsgEarthNet.uav[3] utilizationSecMaintenance 393.71026136566
scalar OsgEarthNet.uav[3] utilizationSecCharge 3530
scalar OsgEarthNet.uav[3] utilizationSecIdle 254695.09233414
scalar OsgEarthNet.uav[3] utilizationEnergyMission 2903.1170654297
scalar OsgEarthNet.uav[3] utilizationEnergyMaintenance 1841.5138168335
scalar OsgEarthNet.uav[3] utilizationEnergyCharge 4649.1557617188
scalar OsgEarthNet.uav[3] utilizationEnergyOverdrawMission 0
scalar OsgEarthNet.uav[3] utilizationEnergyOverdrawMaintenance 0
scalar OsgEarthNet.uav[3] utilizationCountMissions 1
scalar OsgEarthNet.uav[3] utilizationCountManeuversMission 9
scalar OsgEarthNet.uav[3] utilizationCountManeuversMaintenance 2
scalar OsgEarthNet.uav[3] utilizationCountChargeState 1
scalar OsgEarthNet.uav[3] utilizationCountOverdrawnAfterMission 0
scalar OsgEarthNet.uav[3] utilizationCountIdleState 2
scalar OsgEarthNet.uav[3] utilizationFail 0
scalar OsgEarthNet.uav[3] simulationTime 259200
scalar OsgEarthNet.uav[4] utilizationSecMission 25285.432026305
scalar OsgEarthNet.uav[4] utilizationSecMaintenance 22239.343476445
scalar OsgEarthNet.uav[4] utilizationSecCharge 170743.21749725
scalar OsgEarthNet.uav[4] utilizationSecIdle 40932.006
scalar OsgEarthNet.uav[4] utilizationEnergyMission 123704.22702789
scalar OsgEarthNet.uav[4] utilizationEnergyMaintenance 102366.37500381
scalar OsgEarthNet.uav[4] utilizationEnergyCharge 223758.42480469
scalar OsgEarthNet.uav[4] utilizationEnergyOverdrawMission 0
scalar OsgEarthNet.uav[4] utilizationEnergyOverdrawMaintenance 0
scalar OsgEarthNet.uav[4] utilizationCountMissions 51
scalar OsgEarthNet.uav[4] utilizationCountManeuversMission 904
scalar OsgEarthNet.uav[4] utilizationCountManeuversMaintenance 102
scalar OsgEarthNet.uav[4] utilizationCountChargeState 51
scalar OsgEarthNet.uav[4] utilizationCountOverdrawnAfterMission 0
scalar OsgEarthNet.uav[4] utilizationCountIdleState 51
scalar OsgEarthNet.uav[4] utilizationFail 0
scalar OsgEarthNet.uav[4] simulationTime 259200
scalar OsgEarthNet.uav[5] utilizationSecMission 13713.081794289
scalar OsgEarthNet.uav[5] utilizationSecMaintenance 10202.170734644
scalar OsgEarthNet.uav[5] utilizationSecCharge 85762.739471067
scalar OsgEarthNet.uav[5] utilizationSecIdle 149522.007
scalar OsgEarthNet.uav[5] utilizationEnergyMission 66024.564311981
scalar OsgEarthNet.uav[5] utilizationEnergyMaintenance 47347.612636566
scalar OsgEarthNet.uav[5] utilizationEnergyCharge 112868.53759766
scalar OsgEarthNet.uav[5] utilizationEnergyOverdrawMission 0
scalar OsgEarthNet.uav[5] utilizationEnergyOverdrawMaintenance 0
scalar OsgEarthNet.uav[5] utilizationCountMissions 25
scalar OsgEarthNet.uav[5] utilizationCountManeuversMission 402
scalar OsgEarthNet.uav[5] utilizationCountManeuversMaintenance 50
scalar OsgEarthNet.uav[5] utilizationCountChargeState 25
scalar OsgEarthNet.uav[5] utilizationCountOverdrawnAfterMission 0
scalar OsgEarthNet.uav[5] utilizationCountIdleState 25
scalar OsgEarthNet.uav[5] utilizationFail 0
scalar OsgEarthNet.uav[5] simulationTime 259200
scalar OsgEarthNet.uav[6] utilizationSecMission 21760.003574253
scalar OsgEarthNet.uav[6] utilizationSecMaintenance 18217.984425747
scalar OsgEarthNet.uav[6] utilizationSecCharge 144990
scalar OsgEarthNet.uav[6] utilizationSecIdle 74232.011
scalar OsgEarthNet.uav[6] utilizationEnergyMission 106084.82477908
scalar OsgEarthNet.uav[6] utilizationEnergyMaintenance 84854.835914612
scalar OsgEarthNet.uav[6] utilizationEnergyCharge 189187.65087891
scalar OsgEarthNet.uav[6] utilizationEnergyOverdrawMission 0
scalar OsgEarthNet.uav[6] utilizationEnergyOverdrawMaintenance 0
scalar OsgEarthNet.uav[6] utilizationCountMissions 43
scalar OsgEarthNet.uav[6] utilizationCountManeuversMission 720
scalar OsgEarthNet.uav[6] utilizationCountManeuversMaintenance 87
scalar OsgEarthNet.uav[6] utilizationCountChargeState 43
scalar OsgEarthNet.uav[6] utilizationCountOverdrawnAfterMission 0
scalar OsgEarthNet.uav[6] utilizationCountIdleState 44
scalar OsgEarthNet.uav[6] utilizationFail 0
scalar OsgEarthNet.uav[6] simulationTime 259200
scalar OsgEarthNet.uav[7] utilizationSecMission 24045.876776103
scalar OsgEarthNet.uav[7] utilizationSecMaintenance 19322.113223897
scalar OsgEarthNet.uav[7] utilizationSecCharge 153090
scalar OsgEarthNet.uav[7] utilizationSecIdle 62742.009
scalar OsgEarthNet.uav[7] utilizationEnergyMission 116984.32791901
scalar OsgEarthNet.uav[7] utilizationEnergyMaintenance 89573.524371315
scalar OsgEarthNet.uav[7] utilizationEnergyCharge 200723.03051758
scalar OsgEarthNet.uav[7] utilizationEnergyOverdrawMission 0
scalar OsgEarthNet.uav[7] utilizationEnergyOverdrawMaintenance 0
scalar OsgEarthNet.uav[7] utilizationCountMissions 46
scalar OsgEarthNet.uav[7] utilizationCountManeuversMission 723
scalar OsgEarthNet.uav[7] utilizationCountManeuversMaintenance 92
scalar OsgEarthNet.uav[7] utilizationCountChargeState 45
scalar OsgEarthNet.uav[7] utilizationCountOverdrawnAfterMission 0
scalar OsgEarthNet.uav[7] utilizationCountIdleState 46
scalar OsgEarthNet.uav[7] utilizationFail 0
scalar OsgEarthNet.uav[7] simulationTime 259200
scalar OsgEarthNet.uav[8] utilizationSecMission 25755.333392278
scalar OsgEarthNet.uav[8] utilizationSecMaintenance 22092.695603284
scalar OsgEarthNet.uav[8] utilizationSecCharge 172689.96700444
scalar OsgEarthNet.uav[8] utilizationSecIdle 38662.003
scalar OsgEarthNet.uav[8] utilizationEnergyMission 124270.04801559
scalar OsgEarthNet.uav[8] utilizationEnergyMaintenance 102613.09363937
scalar OsgEarthNet.uav[8] utilizationEnergyCharge 227210.96289062
scalar OsgEarthNet.uav[8] utilizationEnergyOverdrawMission 0
scalar OsgEarthNet.uav[8] utilizationEnergyOverdrawMaintenance 123.65118408203
scalar OsgEarthNet.uav[8] utilizationCountMissions 51
scalar OsgEarthNet.uav[8] utilizationCountManeuversMission 818
scalar OsgEarthNet.uav[8] utilizationCountManeuversMaintenance 102
scalar OsgEarthNet.uav[8] utilizationCountChargeState 51
scalar OsgEarthNet.uav[8] utilizationCountOverdrawnAfterMission 1
scalar OsgEarthNet.uav[8] utilizationCountIdleState 51
scalar OsgEarthNet.uav[8] utilizationFail 0
scalar OsgEarthNet.uav[8] simulationTime 259200
scalar OsgEarthNet.uav[9] utilizationSecMission 25652.950105067
scalar OsgEarthNet.uav[9] utilizationSecMaintenance 25030.88722055
scalar OsgEarthNet.uav[9] utilizationSecCharge 185088.91683545
scalar OsgEarthNet.uav[9] utilizationSecIdle 23427.24483893
scalar OsgEarthNet.uav[9] utilizationEnergyMission 126004.62291718
scalar OsgEarthNet.uav[9] utilizationEnergyMaintenance 118788.56208801
scalar OsgEarthNet.uav[9] utilizationEnergyCharge 243152.45556641
scalar OsgEarthNet.uav[9] utilizationEnergyOverdrawMission 0
scalar OsgEarthNet.uav[9] utilizationEnergyOverdrawMaintenance 121.31746673584
scalar OsgEarthNet.uav[9] utilizationCountMissions 55
scalar OsgEarthNet.uav[9] utilizationCountManeuversMission 855
scalar OsgEarthNet.uav[9] utilizationCountManeuversMaintenance 110
scalar OsgEarthNet.uav[9] utilizationCountChargeState 55
scalar OsgEarthNet.uav[9] utilizationCountOverdrawnAfterMission 1
scalar OsgEarthNet.uav[9] utilizationCountIdleState 55
scalar OsgEarthNet.uav[9] utilizationFail 0
scalar OsgEarthNet.uav[9] simulationTime 259200
scalar OsgEarthNet.uav[10] utilizationSecMission 26825.173043342
scalar OsgEarthNet.uav[10] utilizationSecMaintenance 20288.009894021
scalar OsgEarthNet.uav[10] utilizationSecCharge 168346.24563268
scalar OsgEarthNet.uav[10] utilizationSecIdle 43740.570429961
scalar OsgEarthNet.uav[10] utilizationEnergyMission 129637.18275833
scalar OsgEarthNet.uav[10] utilizationEnergyMaintenance 93473.75560379
scalar OsgEarthNet.uav[10] utilizationEnergyCharge 219525.48181152
scalar OsgEarthNet.uav[10] utilizationEnergyOverdrawMission 0
scalar OsgEarthNet.uav[10] utilizationEnergyOverdrawMaintenance 0
scalar OsgEarthNet.uav[10] utilizationCountMissions 51
scalar OsgEarthNet.uav[10] utilizationCountManeuversMission 825
scalar OsgEarthNet.uav[10] utilizationCountManeuversMaintenance 102
scalar OsgEarthNet.uav[10] utilizationCountChargeState 51
scalar OsgEarthNet.uav[10] utilizationCountOverdrawnAfterMission 0
scalar OsgEarthNet.uav[10] utilizationCountIdleState 51
scalar OsgEarthNet.uav[10] utilizationFail 0
scalar OsgEarthNet.uav[10] simulationTime 259200
scalar OsgEarthNet.uav[11] utilizationSecMission 27751.688953639
scalar OsgEarthNet.uav[11] utilizationSecMaintenance 24417.79767501
scalar OsgEarthNet.uav[11] utilizationSecCharge 183768.51237135
scalar OsgEarthNet.uav[11] utilizationSecIdle 23262
scalar OsgEarthNet.uav[11] utilizationEnergyMission 133041.95516205
scalar OsgEarthNet.uav[11] utilizationEnergyMaintenance 112586.19077682
scalar OsgEarthNet.uav[11] utilizationEnergyCharge 240672.19067383
scalar OsgEarthNet.uav[11] utilizationEnergyOverdrawMission 0
scalar OsgEarthNet.uav[11] utilizationEnergyOverdrawMaintenance 0
scalar OsgEarthNet.uav[11] utilizationCountMissions 55
scalar OsgEarthNet.uav[11] utilizationCountManeuversMission 760
scalar OsgEarthNet.uav[11] utilizationCountManeuversMaintenance 109
scalar OsgEarthNet.uav[11] utilizationCountChargeState 55
scalar OsgEarthNet.uav[11] utilizationCountOverdrawnAfterMission 0
scalar OsgEarthNet.uav[11] utilizationCountIdleState 55
scalar OsgEarthNet.uav[11] utilizationFail 0
scalar OsgEarthNet.uav[11] simulationTime 259200
scalar OsgEarthNet.uav[12] utilizationSecMission 24141.143513372
scalar OsgEarthNet.uav[12] utilizationSecMaintenance 19860.745960649
scalar OsgEarthNet.uav[12] utilizationSecCharge 158668.47844531
scalar OsgEarthNet.uav[12] utilizationSecIdle 56529.631080665
scalar OsgEarthNet.uav[12] utilizationEnergyMission 116681.93802261
scalar OsgEarthNet.uav[12] utilizationEnergyMaintenance 91834.453491211
scalar OsgEarthNet.uav[12] utilizationEnergyCharge 208716.68017578
scalar OsgEarthNet.uav[12] utilizationEnergyOverdrawMission 0
scalar OsgEarthNet.uav[12] utilizationEnergyOverdrawMaintenance 0
scalar OsgEarthNet.uav[12] utilizationCountMissions 47
scalar OsgEarthNet.uav[12] utilizationCountManeuversMission 795
scalar OsgEarthNet.uav[12] utilizationCountManeuversMaintenance 94
scalar OsgEarthNet.uav[12] utilizationCountChargeState 47
scalar OsgEarthNet.uav[12] utilizationCountOverdrawnAfterMission 0
scalar OsgEarthNet.uav[12] utilizationCountIdleState 47
scalar OsgEarthNet.uav[12] utilizationFail 0
scalar OsgEarthNet.uav[12] simulationTime 259200
scalar OsgEarthNet.uav[13] utilizationSecMission 21297.778149657
scalar OsgEarthNet.uav[13] utilizationSecMaintenance 16462.235691104
scalar OsgEarthNet.uav[13] utilizationSecCharge 136060
scalar OsgEarthNet.uav[13] utilizationSecIdle 85379.985159239
scalar OsgEarthNet.uav[13] utilizationEnergyMission 103698.48577118
scalar OsgEarthNet.uav[13] utilizationEnergyMaintenance 76336.744091034
scalar OsgEarthNet.uav[13] utilizationEnergyCharge 178076.06347656
scalar OsgEarthNet.uav[13] utilizationEnergyOverdrawMission 0
scalar OsgEarthNet.uav[13] utilizationEnergyOverdrawMaintenance 0
scalar OsgEarthNet.uav[13] utilizationCountMissions 40
scalar OsgEarthNet.uav[13] utilizationCountManeuversMission 644
scalar OsgEarthNet.uav[13] utilizationCountManeuversMaintenance 80
scalar OsgEarthNet.uav[13] utilizationCountChargeState 40
scalar OsgEarthNet.uav[13] utilizationCountOverdrawnAfterMission 0
scalar OsgEarthNet.uav[13] utilizationCountIdleState 41
scalar OsgEarthNet.uav[13] utilizationFail 0
scalar OsgEarthNet.uav[13] simulationTime 259200
scalar OsgEarthNet.uav[14] utilizationSecMission 16371.485187485
scalar OsgEarthNet.uav[14] utilizationSecMaintenance 12786.123190304
scalar OsgEarthNet.uav[14] utilizationSecCharge 103180.04706756
scalar OsgEarthNet.uav[14] utilizationSecIdle 126862.34355465
scalar OsgEarthNet.uav[14] utilizationEnergyMission 78182.087669373
scalar OsgEarthNet.uav[14] utilizationEnergyMaintenance 60077.537654877
scalar OsgEarthNet.uav[14] utilizationEnergyCharge 135912.14672852
scalar OsgEarthNet.uav[14] utilizationEnergyOverdrawMission 0
scalar OsgEarthNet.uav[14] utilizationEnergyOverdrawMaintenance 0
scalar OsgEarthNet.uav[14] utilizationCountMissions 31
scalar OsgEarthNet.uav[14] utilizationCountManeuversMission 443
scalar OsgEarthNet.uav[14] utilizationCountManeuversMaintenance 62
scalar OsgEarthNet.uav[14] utilizationCountChargeState 31
scalar OsgEarthNet.uav[14] utilizationCountOverdrawnAfterMission 0
scalar OsgEarthNet.uav[14] utilizationCountIdleState 31
scalar OsgEarthNet.uav[14] utilizationFail 0
scalar OsgEarthNet.uav[14] simulationTime 259200
scalar OsgEarthNet.uav[15] utilizationSecMission 13744.259865367
scalar OsgEarthNet.uav[15] utilizationSecMaintenance 15765.902320593
scalar OsgEarthNet.uav[15] utilizationSecCharge 106740
scalar OsgEarthNet.uav[15] utilizationSecIdle 122949.83681404
scalar OsgEarthNet.uav[15] utilizationEnergyMission 67219.471100475
scalar OsgEarthNet.uav[15] utilizationEnergyMaintenance 73738.652980804
scalar OsgEarthNet.uav[15] utilizationEnergyCharge 140247.6652832
scalar OsgEarthNet.uav[15] utilizationEnergyOverdrawMission 0
scalar OsgEarthNet.uav[15] utilizationEnergyOverdrawMaintenance 139.25605773926
scalar OsgEarthNet.uav[15] utilizationCountMissions 31
scalar OsgEarthNet.uav[15] utilizationCountManeuversMission 432
scalar OsgEarthNet.uav[15] utilizationCountManeuversMaintenance 63
scalar OsgEarthNet.uav[15] utilizationCountChargeState 31
scalar OsgEarthNet.uav[15] utilizationCountOverdrawnAfterMission 1
scalar OsgEarthNet.uav[15] utilizationCountIdleState 32
scalar OsgEarthNet.uav[15] utilizationFail 0
scalar OsgEarthNet.uav[15] simulationTime 259200
scalar OsgEarthNet.uav[16] utilizationSecMission 3690.8654478178
scalar OsgEarthNet.uav[16] utilizationSecMaintenance 2800.324143357
scalar OsgEarthNet.uav[16] utilizationSecCharge 23820
scalar OsgEarthNet.uav[16] utilizationSecIdle 228888.80940883
scalar OsgEarthNet.uav[16] utilizationEnergyMission 17857.381778717
scalar OsgEarthNet.uav[16] utilizationEnergyMaintenance 13160.444355011
scalar OsgEarthNet.uav[16] utilizationEnergyCharge 31135.223144531
scalar OsgEarthNet.uav[16] utilizationEnergyOverdrawMission 0
scalar OsgEarthNet.uav[16] utilizationEnergyOverdrawMaintenance 0
scalar OsgEarthNet.uav[16] utilizationCountMissions 7
scalar OsgEarthNet.uav[16] utilizationCountManeuversMission 142
scalar OsgEarthNet.uav[16] utilizationCountManeuversMaintenance 14
scalar OsgEarthNet.uav[16] utilizationCountChargeState 7
scalar OsgEarthNet.uav[16] utilizationCountOverdrawnAfterMission 0
scalar OsgEarthNet.uav[16] utilizationCountIdleState 8
scalar OsgEarthNet.uav[16] utilizationFail 0
scalar OsgEarthNet.uav[16] simulationTime 259200
scalar OsgEarthNet.uav[17] utilizationSecMission 19178.612989521
scalar OsgEarthNet.uav[17] utilizationSecMaintenance 17611.203690057
scalar OsgEarthNet.uav[17] utilizationSecCharge 132568.17132042
scalar OsgEarthNet.uav[17] utilizationSecIdle 89842.011
scalar OsgEarthNet.uav[17] utilizationEnergyMission 91849.025615692
scalar OsgEarthNet.uav[17] utilizationEnergyMaintenance 81780.785003662
scalar OsgEarthNet.uav[17] utilizationEnergyCharge 174686.35644531
scalar OsgEarthNet.uav[17] utilizationEnergyOverdrawMission 0
scalar OsgEarthNet.uav[17] utilizationEnergyOverdrawMaintenance 0
scalar OsgEarthNet.uav[17] utilizationCountMissions 39
scalar OsgEarthNet.uav[17] utilizationCountManeuversMission 543
scalar OsgEarthNet.uav[17] utilizationCountManeuversMaintenance 78
scalar OsgEarthNet.uav[17] utilizationCountChargeState 39
scalar OsgEarthNet.uav[17] utilizationCountOverdrawnAfterMission 0
scalar OsgEarthNet.uav[17] utilizationCountIdleState 39
scalar OsgEarthNet.uav[17] utilizationFail 0
scalar OsgEarthNet.uav[17] simulationTime 259200
scalar OsgEarthNet.uav[18] utilizationSecMission 16916.27885501
scalar OsgEarthNet.uav[18] utilizationSecMaintenance 17658.619726687
scalar OsgEarthNet.uav[18] utilizationSecCharge 125423.0944183
scalar OsgEarthNet.uav[18] utilizationSecIdle 99202.006
scalar OsgEarthNet.uav[18] utilizationEnergyMission 86726.335735321
scalar OsgEarthNet.uav[18] utilizationEnergyMaintenance 81970.464202881
scalar OsgEarthNet.uav[18] utilizationEnergyCharge 164033.89611816
scalar OsgEarthNet.uav[18] utilizationEnergyOverdrawMission 0
scalar OsgEarthNet.uav[18] utilizationEnergyOverdrawMaintenance 0
scalar OsgEarthNet.uav[18] utilizationCountMissions 38
scalar OsgEarthNet.uav[18] utilizationCountManeuversMission 660
scalar OsgEarthNet.uav[18] utilizationCountManeuversMaintenance 76
scalar OsgEarthNet.uav[18] utilizationCountChargeState 38
scalar OsgEarthNet.uav[18] utilizationCountOverdrawnAfterMission 0
scalar OsgEarthNet.uav[18] utilizationCountIdleState 38
scalar OsgEarthNet.uav[18] utilizationFail 0
scalar OsgEarthNet.uav[18] simulationTime 259200
scalar OsgEarthNet.uav[19] utilizationSecMission 18439.885915801
scalar OsgEarthNet.uav[19] utilizationSecMaintenance 16032.458177415
scalar OsgEarthNet.uav[19] utilizationSecCharge 126230
scalar OsgEarthNet.uav[19] utilizationSecIdle 98497.654906784
scalar OsgEarthNet.uav[19] utilizationEnergyMission 91067.855968475
scalar OsgEarthNet.uav[19] utilizationEnergyMaintenance 74554.652793884
scalar OsgEarthNet.uav[19] utilizationEnergyCharge 165288.48510742
scalar OsgEarthNet.uav[19] utilizationEnergyOverdrawMission 0
scalar OsgEarthNet.uav[19] utilizationEnergyOverdrawMaintenance 0
scalar OsgEarthNet.uav[19] utilizationCountMissions 37
scalar OsgEarthNet.uav[19] utilizationCountManeuversMission 614
scalar OsgEarthNet.uav[19] utilizationCountManeuversMaintenance 74
scalar OsgEarthNet.uav[19] utilizationCountChargeState 37
scalar OsgEarthNet.uav[19] utilizationCountOverdrawnAfterMission 0
scalar OsgEarthNet.uav[19] utilizationCountIdleState 38
scalar OsgEarthNet.uav[19] utilizationFail 0
scalar OsgEarthNet.uav[19] simulationTime 259200
scalar OsgEarthNet.uav[20] utilizationSecMission 536.06111026321
scalar OsgEarthNet.uav[20] utilizationSecMaintenance 387.76056727994
scalar OsgEarthNet.uav[20] utilizationSecCharge 3300
scalar OsgEarthNet.uav[20] utilizationSecIdle 254976.17732246
scalar OsgEarthNet.uav[20] utilizationEnergyMission 2286.9294281006
scalar OsgEarthNet.uav[20] utilizationEnergyMaintenance 1948.7624740601
scalar OsgEarthNet.uav[20] utilizationEnergyCharge 4235.6918945312
scalar OsgEarthNet.uav[20] utilizationEnergyOverdrawMission 0
scalar OsgEarthNet.uav[20] utilizationEnergyOverdrawMaintenance 0
scalar OsgEarthNet.uav[20] utilizationCountMissions 1
scalar OsgEarthNet.uav[20] utilizationCountManeuversMission 8
scalar OsgEarthNet.uav[20] utilizationCountManeuversMaintenance 2
scalar OsgEarthNet.uav[20] utilizationCountChargeState 1
scalar OsgEarthNet.uav[20] utilizationCountOverdrawnAfterMission 0
scalar OsgEarthNet.uav[20] utilizationCountIdleState 2
scalar OsgEarthNet.uav[20] utilizationFail 0
scalar OsgEarthNet.uav[20] simulationTime 259200
scalar OsgEarthNet.uav[21] utilizationSecMission 693.51498974598
scalar OsgEarthNet.uav[21] utilizationSecMaintenance 941.50331085544
scalar OsgEarthNet.uav[21] utilizationSecCharge 6320
scalar OsgEarthNet.uav[21] utilizationSecIdle 251244.9806994
scalar OsgEarthNet.uav[21] utilizationEnergyMission 3470.7616577148
scalar OsgEarthNet.uav[21] utilizationEnergyMaintenance 4620.4544906616
scalar OsgEarthNet.uav[21] utilizationEnergyCharge 8050.3466796875
scalar OsgEarthNet.uav[21] utilizationEnergyOverdrawMission 0
scalar OsgEarthNet.uav[21] utilizationEnergyOverdrawMaintenance 0
scalar OsgEarthNet.uav[21] utilizationCountMissions 2
scalar OsgEarthNet.uav[21] utilizationCountManeuversMission 23
scalar OsgEarthNet.uav[21] utilizationCountManeuversMaintenance 4
scalar OsgEarthNet.uav[21] utilizationCountChargeState 2
scalar OsgEarthNet.uav[21] utilizationCountOverdrawnAfterMission 0
scalar OsgEarthNet.uav[21] utilizationCountIdleState 3
scalar OsgEarthNet.uav[21] utilizationFail 0
scalar OsgEarthNet.uav[21] simulationTime 259200
scalar OsgEarthNet.uav[22] utilizationSecMission 10015.773533701
scalar OsgEarthNet.uav[22] utilizationSecMaintenance 9066.2775900915
scalar OsgEarthNet.uav[22] utilizationSecCharge 70360
scalar OsgEarthNet.uav[22] utilizationSecIdle 169757.94787621
scalar OsgEarthNet.uav[22] utilizationEnergyMission 48680.163303375
scalar OsgEarthNet.uav[22] utilizationEnergyMaintenance 42048.224338531
scalar OsgEarthNet.uav[22] utilizationEnergyCharge 91655.020263672
scalar OsgEarthNet.uav[22] utilizationEnergyOverdrawMission 0
scalar OsgEarthNet.uav[22] utilizationEnergyOverdrawMaintenance 0
scalar OsgEarthNet.uav[22] utilizationCountMissions 21
scalar OsgEarthNet.uav[22] utilizationCountManeuversMission 340
scalar OsgEarthNet.uav[22] utilizationCountManeuversMaintenance 42
scalar OsgEarthNet.uav[22] utilizationCountChargeState 21
scalar OsgEarthNet.uav[22] utilizationCountOverdrawnAfterMission 0
scalar OsgEarthNet.uav[22] utilizationCountIdleState 22
scalar OsgEarthNet.uav[22] utilizationFail 0
scalar OsgEarthNet.uav[22] simulationTime 259200
scalar OsgEarthNet.uav[23] utilizationSecMission 26234.633078058
scalar OsgEarthNet.uav[23] utilizationSecMaintenance 24855.195471267
scalar OsgEarthNet.uav[23] utilizationSecCharge 185998.17045068
scalar OsgEarthNet.uav[23] utilizationSecIdle 22112
scalar OsgEarthNet.uav[23] utilizationEnergyMission 128004.2109642
scalar OsgEarthNet.uav[23] utilizationEnergyMaintenance 115870.55376434
scalar OsgEarthNet.uav[23] utilizationEnergyCharge 242823.43798828
scalar OsgEarthNet.uav[23] utilizationEnergyOverdrawMission 0
scalar OsgEarthNet.uav[23] utilizationEnergyOverdrawMaintenance 0
scalar OsgEarthNet.uav[23] utilizationCountMissions 55
scalar OsgEarthNet.uav[23] utilizationCountManeuversMission 827
scalar OsgEarthNet.uav[23] utilizationCountManeuversMaintenance 109
scalar OsgEarthNet.uav[23] utilizationCountChargeState 55
scalar OsgEarthNet.uav[23] utilizationCountOverdrawnAfterMission 0
scalar OsgEarthNet.uav[23] utilizationCountIdleState 55
scalar OsgEarthNet.uav[23] utilizationFail 0
scalar OsgEarthNet.uav[23] simulationTime 259200
scalar OsgEarthNet.uav[24] utilizationSecMission 25249.89925602
scalar OsgEarthNet.uav[24] utilizationSecMaintenance 24498.09574398
scalar OsgEarthNet.uav[24] utilizationSecCharge 180530
scalar OsgEarthNet.uav[24] utilizationSecIdle 28922.004
scalar OsgEarthNet.uav[24] utilizationEnergyMission 123821.15773976
scalar OsgEarthNet.uav[24] utilizationEnergyMaintenance 113796.36294937
scalar OsgEarthNet.uav[24] utilizationEnergyCharge 236108.45361328
scalar OsgEarthNet.uav[24] utilizationEnergyOverdrawMission 0
scalar OsgEarthNet.uav[24] utilizationEnergyOverdrawMaintenance 0
scalar OsgEarthNet.uav[24] utilizationCountMissions 53
scalar OsgEarthNet.uav[24] utilizationCountManeuversMission 833
scalar OsgEarthNet.uav[24] utilizationCountManeuversMaintenance 107
scalar OsgEarthNet.uav[24] utilizationCountChargeState 53
scalar OsgEarthNet.uav[24] utilizationCountOverdrawnAfterMission 0
scalar OsgEarthNet.uav[24] utilizationCountIdleState 54
scalar OsgEarthNet.uav[24] utilizationFail 0
scalar OsgEarthNet.uav[24] simulationTime 259200
scalar OsgEarthNet.uav[25] utilizationSecMission 21566.888905836
scalar OsgEarthNet.uav[25] utilizationSecMaintenance 19425.948750667
scalar OsgEarthNet.uav[25] utilizationSecCharge 147235.1573435
scalar OsgEarthNet.uav[25] utilizationSecIdle 70972.004
scalar OsgEarthNet.uav[25] utilizationEnergyMission 105158.0926857
scalar OsgEarthNet.uav[25] utilizationEnergyMaintenance 89788.211128235
scalar OsgEarthNet.uav[25] utilizationEnergyCharge 193421.64428711
scalar OsgEarthNet.uav[25] utilizationEnergyOverdrawMission 0
scalar OsgEarthNet.uav[25] utilizationEnergyOverdrawMaintenance 0
scalar OsgEarthNet.uav[25] utilizationCountMissions 44
scalar OsgEarthNet.uav[25] utilizationCountManeuversMission 693
scalar OsgEarthNet.uav[25] utilizationCountManeuversMaintenance 88
scalar OsgEarthNet.uav[25] utilizationCountChargeState 44
scalar OsgEarthNet.uav[25] utilizationCountOverdrawnAfterMission 0
scalar OsgEarthNet.uav[25] utilizationCountIdleState 44
scalar OsgEarthNet.uav[25] utilizationFail 0
scalar OsgEarthNet.uav[25] simulationTime 259200
scalar OsgEarthNet.uav[26] utilizationSecMission 22254.403484986
scalar OsgEarthNet.uav[26] utilizationSecMaintenance 20753.585515014
scalar OsgEarthNet.uav[26] utilizationSecCharge 154660
scalar OsgEarthNet.uav[26] utilizationSecIdle 61532.01
scalar OsgEarthNet.uav[26] utilizationEnergyMission 108533.23963293
scalar OsgEarthNet.uav[26] utilizationEnergyMaintenance 97592.494171143
scalar OsgEarthNet.uav[26] utilizationEnergyCharge 203351.72558594
scalar OsgEarthNet.uav[26] utilizationEnergyOverdrawMission 0
scalar OsgEarthNet.uav[26] utilizationEnergyOverdrawMaintenance 0
scalar OsgEarthNet.uav[26] utilizationCountMissions 45
scalar OsgEarthNet.uav[26] utilizationCountManeuversMission 701
scalar OsgEarthNet.uav[26] utilizationCountManeuversMaintenance 91
scalar OsgEarthNet.uav[26] utilizationCountChargeState 45
scalar OsgEarthNet.uav[26] utilizationCountOverdrawnAfterMission 0
scalar OsgEarthNet.uav[26] utilizationCountIdleState 46
scalar OsgEarthNet.uav[26] utilizationFail 0
scalar OsgEarthNet.uav[26] simulationTime 259200
scalar OsgEarthNet.uav[27] utilizationSecMission 19517.824093901
scalar OsgEarthNet.uav[27] utilizationSecMaintenance 19250.164906099
scalar OsgEarthNet.uav[27] utilizationSecCharge 139540
scalar OsgEarthNet.uav[27] utilizationSecIdle 80892.01
scalar OsgEarthNet.uav[27] utilizationEnergyMission 93286.344455719
scalar OsgEarthNet.uav[27] utilizationEnergyMaintenance 89710.840144548
scalar OsgEarthNet.uav[27] utilizationEnergyCharge 183161.76367188
scalar OsgEarthNet.uav[27] utilizationEnergyOverdrawMission 0
scalar OsgEarthNet.uav[27] utilizationEnergyOverdrawMaintenance 0
scalar OsgEarthNet.uav[27] utilizationCountMissions 41
scalar OsgEarthNet.uav[27] utilizationCountManeuversMission 567
scalar OsgEarthNet.uav[27] utilizationCountManeuversMaintenance 83
scalar OsgEarthNet.uav[27] utilizationCountChargeState 41
scalar OsgEarthNet.uav[27] utilizationCountOverdrawnAfterMission 0
scalar OsgEarthNet.uav[27] utilizationCountIdleState 42
scalar OsgEarthNet.uav[27] utilizationFail 0
scalar OsgEarthNet.uav[27] simulationTime 259200
scalar OsgEarthNet.uav[28] utilizationSecMission 25342.516288016
scalar OsgEarthNet.uav[28] utilizationSecMaintenance 23602.19941688
scalar OsgEarthNet.uav[28] utilizationSecCharge 178010
scalar OsgEarthNet.uav[28] utilizationSecIdle 32245.283295104
scalar OsgEarthNet.uav[28] utilizationEnergyMission 122872.22954559
scalar OsgEarthNet.uav[28] utilizationEnergyMaintenance 110084.35673523
scalar OsgEarthNet.uav[28] utilizationEnergyCharge 233693.97558594
scalar OsgEarthNet.uav[28] utilizationEnergyOverdrawMission 0
scalar OsgEarthNet.uav[28] utilizationEnergyOverdrawMaintenance 87.801536560059
scalar OsgEarthNet.uav[28] utilizationCountMissions 52
scalar OsgEarthNet.uav[28] utilizationCountManeuversMission 755
scalar OsgEarthNet.uav[28] utilizationCountManeuversMaintenance 104
scalar OsgEarthNet.uav[28] utilizationCountChargeState 52
scalar OsgEarthNet.uav[28] utilizationCountOverdrawnAfterMission 1
scalar OsgEarthNet.uav[28] utilizationCountIdleState 53
scalar OsgEarthNet.uav[28] utilizationFail 0
scalar OsgEarthNet.uav[28] simulationTime 259200
scalar OsgEarthNet.uav[29] utilizationSecMission 27175.707506033
scalar OsgEarthNet.uav[29] utilizationSecMaintenance 23314.392944472
scalar OsgEarthNet.uav[29] utilizationSecCharge 182127.8945495
scalar OsgEarthNet.uav[29] utilizationSecIdle 26582.004
scalar OsgEarthNet.uav[29] utilizationEnergyMission 132434.86993408
scalar OsgEarthNet.uav[29] utilizationEnergyMaintenance 107334.70252609
scalar OsgEarthNet.uav[29] utilizationEnergyCharge 239161.8112793
scalar OsgEarthNet.uav[29] utilizationEnergyOverdrawMission 0
scalar OsgEarthNet.uav[29] utilizationEnergyOverdrawMaintenance 0
scalar OsgEarthNet.uav[29] utilizationCountMissions 54
scalar OsgEarthNet.uav[29] utilizationCountManeuversMission 897
scalar OsgEarthNet.uav[29] utilizationCountManeuversMaintenance 108
scalar OsgEarthNet.uav[29] utilizationCountChargeState 54
scalar OsgEarthNet.uav[29] utilizationCountOverdrawnAfterMission 0
scalar OsgEarthNet.uav[29] utilizationCountIdleState 54
scalar OsgEarthNet.uav[29] utilizationFail 0
scalar OsgEarthNet.uav[29] simulationTime 259200
scalar OsgEarthNet.uav[30] utilizationSecMission 27503.259728856
scalar OsgEarthNet.uav[30] utilizationSecMaintenance 24243.376447889
scalar OsgEarthNet.uav[30] utilizationSecCharge 186411.35982326
scalar OsgEarthNet.uav[30] utilizationSecIdle 21042.003
scalar OsgEarthNet.uav[30] utilizationEnergyMission 133532.76564026
scalar OsgEarthNet.uav[30] utilizationEnergyMaintenance 113013.52178574
scalar OsgEarthNet.uav[30] utilizationEnergyCharge 245181.38513184
scalar OsgEarthNet.uav[30] utilizationEnergyOverdrawMission 0
scalar OsgEarthNet.uav[30] utilizationEnergyOverdrawMaintenance 0
scalar OsgEarthNet.uav[30] utilizationCountMissions 55
scalar OsgEarthNet.uav[30] utilizationCountManeuversMission 824
scalar OsgEarthNet.uav[30] utilizationCountManeuversMaintenance 110
scalar OsgEarthNet.uav[30] utilizationCountChargeState 55
scalar OsgEarthNet.uav[30] utilizationCountOverdrawnAfterMission 0
scalar OsgEarthNet.uav[30] utilizationCountIdleState 55
scalar OsgEarthNet.uav[30] utilizationFail 0
scalar OsgEarthNet.uav[30] simulationTime 259200
scalar OsgEarthNet.uav[31] utilizationSecMission 21571.605022396
scalar OsgEarthNet.uav[31] utilizationSecMaintenance 19677.384952694
scalar OsgEarthNet.uav[31] utilizationSecCharge 147174.53421284
scalar OsgEarthNet.uav[31] utilizationSecIdle 70776.474812068
scalar OsgEarthNet.uav[31] utilizationEnergyMission 103607.13049316
scalar OsgEarthNet.uav[31] utilizationEnergyMaintenance 90345.854473114
scalar OsgEarthNet.uav[31] utilizationEnergyCharge 192963.37084961
scalar OsgEarthNet.uav[31] utilizationEnergyOverdrawMission 0
scalar OsgEarthNet.uav[31] utilizationEnergyOverdrawMaintenance 0
scalar OsgEarthNet.uav[31] utilizationCountMissions 44
scalar OsgEarthNet.uav[31] utilizationCountManeuversMission 651
scalar OsgEarthNet.uav[31] utilizationCountManeuversMaintenance 88
scalar OsgEarthNet.uav[31] utilizationCountChargeState 44
scalar OsgEarthNet.uav[31] utilizationCountOverdrawnAfterMission 0
scalar OsgEarthNet.uav[31] utilizationCountIdleState 44
scalar OsgEarthNet.uav[31] utilizationFail 0
scalar OsgEarthNet.uav[31] simulationTime 259200
scalar OsgEarthNet.uav[32] utilizationSecMission 23035.142119106
scalar OsgEarthNet.uav[32] utilizationSecMaintenance 22869.451076256
scalar OsgEarthNet.uav[32] utilizationSecCharge 166723.73275525
scalar OsgEarthNet.uav[32] utilizationSecIdle 46571.673049383
scalar OsgEarthNet.uav[32] utilizationEnergyMission 112195.6880455
scalar OsgEarthNet.uav[32] utilizationEnergyMaintenance 105744.89636993
scalar OsgEarthNet.uav[32] utilizationEnergyCharge 218411.38208008
scalar OsgEarthNet.uav[32] utilizationEnergyOverdrawMission 0
scalar OsgEarthNet.uav[32] utilizationEnergyOverdrawMaintenance 0
scalar OsgEarthNet.uav[32] utilizationCountMissions 50
scalar OsgEarthNet.uav[32] utilizationCountManeuversMission 875
scalar OsgEarthNet.uav[32] utilizationCountManeuversMaintenance 100
scalar OsgEarthNet.uav[32] utilizationCountChargeState 50
scalar OsgEarthNet.uav[32] utilizationCountOverdrawnAfterMission 0
scalar OsgEarthNet.uav[32] utilizationCountIdleState 50
scalar OsgEarthNet.uav[32] utilizationFail 0
scalar OsgEarthNet.uav[32] simulationTime 259200
scalar OsgEarthNet.uav[33] utilizationSecMission 24436.04307091
scalar OsgEarthNet.uav[33] utilizationSecMaintenance 21111.94692909
scalar OsgEarthNet.uav[33] utilizationSecCharge 161680
scalar OsgEarthNet.uav[33] utilizationSecIdle 51972.009
scalar OsgEarthNet.uav[33] utilizationEnergyMission 118195.08473587
scalar OsgEarthNet.uav[33] utilizationEnergyMaintenance 98835.331847466
scalar OsgEarthNet.uav[33] utilizationEnergyCharge 210979.12719727
scalar OsgEarthNet.uav[33] utilizationEnergyOverdrawMission 0
scalar OsgEarthNet.uav[33] utilizationEnergyOverdrawMaintenance 0
scalar OsgEarthNet.uav[33] utilizationCountMissions 49
scalar OsgEarthNet.uav[33] utilizationCountManeuversMission 768
scalar OsgEarthNet.uav[33] utilizationCountManeuversMaintenance 98
scalar OsgEarthNet.uav[33] utilizationCountChargeState 48
scalar OsgEarthNet.uav[33] utilizationCountOverdrawnAfterMission 0
scalar OsgEarthNet.uav[33] utilizationCountIdleState 49
scalar OsgEarthNet.uav[33] utilizationFail 0
scalar OsgEarthNet.uav[33] simulationTime 259200
scalar OsgEarthNet.uav[34] utilizationSecMission 24092.438109023
scalar OsgEarthNet.uav[34] utilizationSecMaintenance 20790.001266564
scalar OsgEarthNet.uav[34] utilizationSecCharge 161297.5413415
scalar OsgEarthNet.uav[34] utilizationSecIdle 53020.018282913
scalar OsgEarthNet.uav[34] utilizationEnergyMission 116373.46964264
scalar OsgEarthNet.uav[34] utilizationEnergyMaintenance 97258.468898773
scalar OsgEarthNet.uav[34] utilizationEnergyCharge 212304.29907227
scalar OsgEarthNet.uav[34] utilizationEnergyOverdrawMission 0
scalar OsgEarthNet.uav[34] utilizationEnergyOverdrawMaintenance 0
scalar OsgEarthNet.uav[34] utilizationCountMissions 48
scalar OsgEarthNet.uav[34] utilizationCountManeuversMission 741
scalar OsgEarthNet.uav[34] utilizationCountManeuversMaintenance 96
scalar OsgEarthNet.uav[34] utilizationCountChargeState 48
scalar OsgEarthNet.uav[34] utilizationCountOverdrawnAfterMission 0
scalar OsgEarthNet.uav[34] utilizationCountIdleState 48
scalar OsgEarthNet.uav[34] utilizationFail 0
scalar OsgEarthNet.uav[34] simulationTime 259200
scalar OsgEarthNet.uav[35] utilizationSecMission 23073.338870121
scalar OsgEarthNet.uav[35] utilizationSecMaintenance 23337.613317047
scalar OsgEarthNet.uav[35] utilizationSecCharge 165429.62146554
scalar OsgEarthNet.uav[35] utilizationSecIdle 47359.42534729
scalar OsgEarthNet.uav[35] utilizationEnergyMission 114312.43626022
scalar OsgEarthNet.uav[35] utilizationEnergyMaintenance 107839.13635254
scalar OsgEarthNet.uav[35] utilizationEnergyCharge 216292.9821167
scalar OsgEarthNet.uav[35] utilizationEnergyOverdrawMission 0
scalar OsgEarthNet.uav[35] utilizationEnergyOverdrawMaintenance 0
scalar OsgEarthNet.uav[35] utilizationCountMissions 50
scalar OsgEarthNet.uav[35] utilizationCountManeuversMission 783
scalar OsgEarthNet.uav[35] utilizationCountManeuversMaintenance 100
scalar OsgEarthNet.uav[35] utilizationCountChargeState 50
scalar OsgEarthNet.uav[35] utilizationCountOverdrawnAfterMission 0
scalar OsgEarthNet.uav[35] utilizationCountIdleState 50
scalar OsgEarthNet.uav[35] utilizationFail 0
scalar OsgEarthNet.uav[35] simulationTime 259200
scalar OsgEarthNet.uav[36] utilizationSecMission 27951.512886139
scalar OsgEarthNet.uav[36] utilizationSecMaintenance 21966.273882862
scalar OsgEarthNet.uav[36] utilizationSecCharge 176277.59114546
scalar OsgEarthNet.uav[36] utilizationSecIdle 33004.621085537
scalar OsgEarthNet.uav[36] utilizationEnergyMission 134307.25501633
scalar OsgEarthNet.uav[36] utilizationEnergyMaintenance 102079.39149857
scalar OsgEarthNet.uav[36] utilizationEnergyCharge 232938.49707031
scalar OsgEarthNet.uav[36] utilizationEnergyOverdrawMission 0
scalar OsgEarthNet.uav[36] utilizationEnergyOverdrawMaintenance 237.37019729614
scalar OsgEarthNet.uav[36] utilizationCountMissions 52
scalar OsgEarthNet.uav[36] utilizationCountManeuversMission 745
scalar OsgEarthNet.uav[36] utilizationCountManeuversMaintenance 104
scalar OsgEarthNet.uav[36] utilizationCountChargeState 52
scalar OsgEarthNet.uav[36] utilizationCountOverdrawnAfterMission 2
scalar OsgEarthNet.uav[36] utilizationCountIdleState 52
scalar OsgEarthNet.uav[36] utilizationFail 0
scalar OsgEarthNet.uav[36] simulationTime 259200
scalar OsgEarthNet.uav[37] utilizationSecMission 26210.802986781
scalar OsgEarthNet.uav[37] utilizationSecMaintenance 24774.669308789
scalar OsgEarthNet.uav[37] utilizationSecCharge 184679.91481491
scalar OsgEarthNet.uav[37] utilizationSecIdle 23534.611889516
scalar OsgEarthNet.uav[37] utilizationEnergyMission 125747.77980423
scalar OsgEarthNet.uav[37] utilizationEnergyMaintenance 115218.10012436
scalar OsgEarthNet.uav[37] utilizationEnergyCharge 242667.28149414
scalar OsgEarthNet.uav[37] utilizationEnergyOverdrawMission 0
scalar OsgEarthNet.uav[37] utilizationEnergyOverdrawMaintenance 0
scalar OsgEarthNet.uav[37] utilizationCountMissions 55
scalar OsgEarthNet.uav[37] utilizationCountManeuversMission 871
scalar OsgEarthNet.uav[37] utilizationCountManeuversMaintenance 110
scalar OsgEarthNet.uav[37] utilizationCountChargeState 55
scalar OsgEarthNet.uav[37] utilizationCountOverdrawnAfterMission 0
scalar OsgEarthNet.uav[37] utilizationCountIdleState 55
scalar OsgEarthNet.uav[37] utilizationFail 0
scalar OsgEarthNet.uav[37] simulationTime 259200
scalar OsgEarthNet.uav[38] utilizationSecMission 28370.605380597
scalar OsgEarthNet.uav[38] utilizationSecMaintenance 23398.209038575
scalar OsgEarthNet.uav[38] utilizationSecCharge 184779.18458083
scalar OsgEarthNet.uav[38] utilizationSecIdle 22652
scalar OsgEarthNet.uav[38] utilizationEnergyMission 137670.37241028
scalar OsgEarthNet.uav[38] utilizationEnergyMaintenance 108823.30033112
scalar OsgEarthNet.uav[38] utilizationEnergyCharge 242937.39630127
scalar OsgEarthNet.uav[38] utilizationEnergyOverdrawMission 0
scalar OsgEarthNet.uav[38] utilizationEnergyOverdrawMaintenance 0
scalar OsgEarthNet.uav[38] utilizationCountMissions 55
scalar OsgEarthNet.uav[38] utilizationCountManeuversMission 955
scalar OsgEarthNet.uav[38] utilizationCountManeuversMaintenance 109
scalar OsgEarthNet.uav[38] utilizationCountChargeState 55
scalar OsgEarthNet.uav[38] utilizationCountOverdrawnAfterMission 0
scalar OsgEarthNet.uav[38] utilizationCountIdleState 55
scalar OsgEarthNet.uav[38] utilizationFail 0
scalar OsgEarthNet.uav[38] simulationTime 259200
scalar OsgEarthNet.uav[39] utilizationSecMission 27389.924746105
scalar OsgEarthNet.uav[39] utilizationSecMaintenance 24148.29296643
scalar OsgEarthNet.uav[39] utilizationSecCharge 186289.78128747
scalar OsgEarthNet.uav[39] utilizationSecIdle 21372
scalar OsgEarthNet.uav[39] utilizationEnergyMission 131900.02668381
scalar OsgEarthNet.uav[39] utilizationEnergyMaintenance 112536.67903519
scalar OsgEarthNet.uav[39] utilizationEnergyCharge 243803.2722168
scalar OsgEarthNet.uav[39] utilizationEnergyOverdrawMission 0
scalar OsgEarthNet.uav[39] utilizationEnergyOverdrawMaintenance 0
scalar OsgEarthNet.uav[39] utilizationCountMissions 55
scalar OsgEarthNet.uav[39] utilizationCountManeuversMission 793
scalar OsgEarthNet.uav[39] utilizationCountManeuversMaintenance 109
scalar OsgEarthNet.uav[39] utilizationCountChargeState 55
scalar OsgEarthNet.uav[39] utilizationCountOverdrawnAfterMission 0
scalar OsgEarthNet.uav[39] utilizationCountIdleState 55
scalar OsgEarthNet.uav[39] utilizationFail 0
scalar OsgEarthNet.uav[39] simulationTime 259200
scalar OsgEarthNet.uav[40] utilizationSecMission 24602.979342811
scalar OsgEarthNet.uav[40] utilizationSecMaintenance 23145.011657189
scalar OsgEarthNet.uav[40] utilizationSecCharge 171040
scalar OsgEarthNet.uav[40] utilizationSecIdle 40412.008
scalar OsgEarthNet.uav[40] utilizationEnergyMission 121320.75811005
scalar OsgEarthNet.uav[40] utilizationEnergyMaintenance 107405.87633884
scalar OsgEarthNet.uav[40] utilizationEnergyCharge 224397.22216797
scalar OsgEarthNet.uav[40] utilizationEnergyOverdrawMission 0
scalar OsgEarthNet.uav[40] utilizationEnergyOverdrawMaintenance 0
scalar OsgEarthNet.uav[40] utilizationCountMissions 51
scalar OsgEarthNet.uav[40] utilizationCountManeuversMission 839
scalar OsgEarthNet.uav[40] utilizationCountManeuversMaintenance 102
scalar OsgEarthNet.uav[40] utilizationCountChargeState 50
scalar OsgEarthNet.uav[40] utilizationCountOverdrawnAfterMission 0
scalar OsgEarthNet.uav[40] utilizationCountIdleState 51
scalar OsgEarthNet.uav[40] utilizationFail 0
scalar OsgEarthNet.uav[40] simulationTime 259200
scalar OsgEarthNet.uav[41] utilizationSecMission 12032.684941054
scalar OsgEarthNet.uav[41] utilizationSecMaintenance 11131.463742427
scalar OsgEarthNet.uav[41] utilizationSecCharge 81200.405227828
scalar OsgEarthNet.uav[41] utilizationSecIdle 154835.44508869
scalar OsgEarthNet.uav[41] utilizationEnergyMission 57839.365306854
scalar OsgEarthNet.uav[41] utilizationEnergyMaintenance 51762.488975525
scalar OsgEarthNet.uav[41] utilizationEnergyCharge 106342.50390625
scalar OsgEarthNet.uav[41] utilizationEnergyOverdrawMission 0
scalar OsgEarthNet.uav[41] utilizationEnergyOverdrawMaintenance 0
scalar OsgEarthNet.uav[41] utilizationCountMissions 25
scalar OsgEarthNet.uav[41] utilizationCountManeuversMission 368
scalar OsgEarthNet.uav[41] utilizationCountManeuversMaintenance 50
scalar OsgEarthNet.uav[41] utilizationCountChargeState 25
scalar OsgEarthNet.uav[41] utilizationCountOverdrawnAfterMission 0
scalar OsgEarthNet.uav[41] utilizationCountIdleState 25
scalar OsgEarthNet.uav[41] utilizationFail 0
scalar OsgEarthNet.uav[41] simulationTime 259200
scalar OsgEarthNet.uav[42] utilizationSecMission 28182.65889357
scalar OsgEarthNet.uav[42] utilizationSecMaintenance 21945.33910643
scalar OsgEarthNet.uav[42] utilizationSecCharge 181040
scalar OsgEarthNet.uav[42] utilizationSecIdle 28032.001
scalar OsgEarthNet.uav[42] utilizationEnergyMission 137494.3462502
scalar OsgEarthNet.uav[42] utilizationEnergyMaintenance 102859.57698822
scalar OsgEarthNet.uav[42] utilizationEnergyCharge 237200.62939453
scalar OsgEarthNet.uav[42] utilizationEnergyOverdrawMission 0
scalar OsgEarthNet.uav[42] utilizationEnergyOverdrawMaintenance 0
scalar OsgEarthNet.uav[42] utilizationCountMissions 53
scalar OsgEarthNet.uav[42] utilizationCountManeuversMission 910
scalar OsgEarthNet.uav[42] utilizationCountManeuversMaintenance 107
scalar OsgEarthNet.uav[42] utilizationCountChargeState 53
scalar OsgEarthNet.uav[42] utilizationCountOverdrawnAfterMission 0
scalar OsgEarthNet.uav[42] utilizationCountIdleState 54
scalar OsgEarthNet.uav[42] utilizationFail 0
scalar OsgEarthNet.uav[42] simulationTime 259200
scalar OsgEarthNet.uav[43] utilizationSecMission 24371.856382655
scalar OsgEarthNet.uav[43] utilizationSecMaintenance 25577.524526493
scalar OsgEarthNet.uav[43] utilizationSecCharge 179418.61309085
scalar OsgEarthNet.uav[43] utilizationSecIdle 29832.005
scalar OsgEarthNet.uav[43] utilizationEnergyMission 117402.69116211
scalar OsgEarthNet.uav[43] utilizationEnergyMaintenance 118690.17422485
scalar OsgEarthNet.uav[43] utilizationEnergyCharge 236221.77978516
scalar OsgEarthNet.uav[43] utilizationEnergyOverdrawMission 0
scalar OsgEarthNet.uav[43] utilizationEnergyOverdrawMaintenance 0
scalar OsgEarthNet.uav[43] utilizationCountMissions 53
scalar OsgEarthNet.uav[43] utilizationCountManeuversMission 719
scalar OsgEarthNet.uav[43] utilizationCountManeuversMaintenance 106
scalar OsgEarthNet.uav[43] utilizationCountChargeState 53
scalar OsgEarthNet.uav[43] utilizationCountOverdrawnAfterMission 0
scalar OsgEarthNet.uav[43] utilizationCountIdleState 53
scalar OsgEarthNet.uav[43] utilizationFail 0
scalar OsgEarthNet.uav[43] simulationTime 259200
scalar OsgEarthNet.uav[44] utilizationSecMission 25828.94945382
scalar OsgEarthNet.uav[44] utilizationSecMaintenance 25458.569398147
scalar OsgEarthNet.uav[44] utilizationSecCharge 186800.47914803
scalar OsgEarthNet.uav[44] utilizationSecIdle 21112.001
scalar OsgEarthNet.uav[44] utilizationEnergyMission 126434.2555542
scalar OsgEarthNet.uav[44] utilizationEnergyMaintenance 117589.60219192
scalar OsgEarthNet.uav[44] utilizationEnergyCharge 244392.17749023
scalar OsgEarthNet.uav[44] utilizationEnergyOverdrawMission 0
scalar OsgEarthNet.uav[44] utilizationEnergyOverdrawMaintenance 0
scalar OsgEarthNet.uav[44] utilizationCountMissions 55
scalar OsgEarthNet.uav[44] utilizationCountManeuversMission 902
scalar OsgEarthNet.uav[44] utilizationCountManeuversMaintenance 110
scalar OsgEarthNet.uav[44] utilizationCountChargeState 55
scalar OsgEarthNet.uav[44] utilizationCountOverdrawnAfterMission 0
scalar OsgEarthNet.uav[44] utilizationCountIdleState 55
scalar OsgEarthNet.uav[44] utilizationFail 0
scalar OsgEarthNet.uav[44] simulationTime 259200
scalar OsgEarthNet.uav[45] utilizationSecMission 7908.8555244742
scalar OsgEarthNet.uav[45] utilizationSecMaintenance 6239.1898318958
scalar OsgEarthNet.uav[45] utilizationSecCharge 51430
scalar OsgEarthNet.uav[45] utilizationSecIdle 193621.95364363
scalar OsgEarthNet.uav[45] utilizationEnergyMission 39381.311729431
scalar OsgEarthNet.uav[45] utilizationEnergyMaintenance 28902.86195755
scalar OsgEarthNet.uav[45] utilizationEnergyCharge 67909.127929688
scalar OsgEarthNet.uav[45] utilizationEnergyOverdrawMission 0
scalar OsgEarthNet.uav[45] utilizationEnergyOverdrawMaintenance 0
scalar OsgEarthNet.uav[45] utilizationCountMissions 15
scalar OsgEarthNet.uav[45] utilizationCountManeuversMission 258
scalar OsgEarthNet.uav[45] utilizationCountManeuversMaintenance 30
scalar OsgEarthNet.uav[45] utilizationCountChargeState 15
scalar OsgEarthNet.uav[45] utilizationCountOverdrawnAfterMission 0
scalar OsgEarthNet.uav[45] utilizationCountIdleState 16
scalar OsgEarthNet.uav[45] utilizationFail 0
scalar OsgEarthNet.uav[45] simulationTime 259200
scalar OsgEarthNet.uav[46] utilizationSecMission 5041.8835444874
scalar OsgEarthNet.uav[46] utilizationSecMaintenance 3549.287966275
scalar OsgEarthNet.uav[46] utilizationSecCharge 31140
scalar OsgEarthNet.uav[46] utilizationSecIdle 219468.82748924
scalar OsgEarthNet.uav[46] utilizationEnergyMission 24156.994880676
scalar OsgEarthNet.uav[46] utilizationEnergyMaintenance 16253.773159027
scalar OsgEarthNet.uav[46] utilizationEnergyCharge 40845.153320312
scalar OsgEarthNet.uav[46] utilizationEnergyOverdrawMission 0
scalar OsgEarthNet.uav[46] utilizationEnergyOverdrawMaintenance 0
scalar OsgEarthNet.uav[46] utilizationCountMissions 9
scalar OsgEarthNet.uav[46] utilizationCountManeuversMission 157
scalar OsgEarthNet.uav[46] utilizationCountManeuversMaintenance 18
scalar OsgEarthNet.uav[46] utilizationCountChargeState 9
scalar OsgEarthNet.uav[46] utilizationCountOverdrawnAfterMission 0
scalar OsgEarthNet.uav[46] utilizationCountIdleState 9
scalar OsgEarthNet.uav[46] utilizationFail 0
scalar OsgEarthNet.uav[46] simulationTime 259200
scalar OsgEarthNet.uav[47] utilizationSecMission 25541.378458571
scalar OsgEarthNet.uav[47] utilizationSecMaintenance 23936.638458422
scalar OsgEarthNet.uav[47] utilizationSecCharge 180194.66699679
scalar OsgEarthNet.uav[47] utilizationSecIdle 29527.315086215
scalar OsgEarthNet.uav[47] utilizationEnergyMission 123145.75453186
scalar OsgEarthNet.uav[47] utilizationEnergyMaintenance 110107.57867813
scalar OsgEarthNet.uav[47] utilizationEnergyCharge 236511.70556641
scalar OsgEarthNet.uav[47] utilizationEnergyOverdrawMission 0
scalar OsgEarthNet.uav[47] utilizationEnergyOverdrawMaintenance 0
scalar OsgEarthNet.uav[47] utilizationCountMissions 53
scalar OsgEarthNet.uav[47] utilizationCountManeuversMission 840
scalar OsgEarthNet.uav[47] utilizationCountManeuversMaintenance 106
scalar OsgEarthNet.uav[47] utilizationCountChargeState 53
scalar OsgEarthNet.uav[47] utilizationCountOverdrawnAfterMission 0
scalar OsgEarthNet.uav[47] utilizationCountIdleState 53
scalar OsgEarthNet.uav[47] utilizationFail 0
scalar OsgEarthNet.uav[47] simulationTime 259200
scalar OsgEarthNet.uav[48] utilizationSecMission 25671.686104286
scalar OsgEarthNet.uav[48] utilizationSecMaintenance 22184.169835451
scalar OsgEarthNet.uav[48] utilizationSecCharge 171422.69010155
scalar OsgEarthNet.uav[48] utilizationSecIdle 39921.452958717
scalar OsgEarthNet.uav[48] utilizationEnergyMission 125302.84614563
scalar OsgEarthNet.uav[48] utilizationEnergyMaintenance 103105.8922081
scalar OsgEarthNet.uav[48] utilizationEnergyCharge 225191.13867188
scalar OsgEarthNet.uav[48] utilizationEnergyOverdrawMission 0
scalar OsgEarthNet.uav[48] utilizationEnergyOverdrawMaintenance 0
scalar OsgEarthNet.uav[48] utilizationCountMissions 51
scalar OsgEarthNet.uav[48] utilizationCountManeuversMission 720
scalar OsgEarthNet.uav[48] utilizationCountManeuversMaintenance 102
scalar OsgEarthNet.uav[48] utilizationCountChargeState 51
scalar OsgEarthNet.uav[48] utilizationCountOverdrawnAfterMission 0
scalar OsgEarthNet.uav[48] utilizationCountIdleState 51
scalar OsgEarthNet.uav[48] utilizationFail 0
scalar OsgEarthNet.uav[48] simulationTime 259200
scalar OsgEarthNet.uav[49] utilizationSecMission 25633.031713466
scalar OsgEarthNet.uav[49] utilizationSecMaintenance 23859.139597596
scalar OsgEarthNet.uav[49] utilizationSecCharge 176575.82068894
scalar OsgEarthNet.uav[49] utilizationSecIdle 33132.007
scalar OsgEarthNet.uav[49] utilizationEnergyMission 122609.95969772
scalar OsgEarthNet.uav[49] utilizationEnergyMaintenance 111789.64833832
scalar OsgEarthNet.uav[49] utilizationEnergyCharge 230864.32092285
scalar OsgEarthNet.uav[49] utilizationEnergyOverdrawMission 0
scalar OsgEarthNet.uav[49] utilizationEnergyOverdrawMaintenance 168.86926269531
scalar OsgEarthNet.uav[49] utilizationCountMissions 53
scalar OsgEarthNet.uav[49] utilizationCountManeuversMission 769
scalar OsgEarthNet.uav[49] utilizationCountManeuversMaintenance 106
scalar OsgEarthNet.uav[49] utilizationCountChargeState 53
scalar OsgEarthNet.uav[49] utilizationCountOverdrawnAfterMission 1
scalar OsgEarthNet.uav[49] utilizationCountIdleState 53
scalar OsgEarthNet.uav[49] utilizationFail 0
scalar OsgEarthNet.uav[49] simulationTime 259200
scalar OsgEarthNet.uav[50] utilizationSecMission 15908.26083992
scalar OsgEarthNet.uav[50] utilizationSecMaintenance 12411.438903257
scalar OsgEarthNet.uav[50] utilizationSecCharge 98949.459852677
scalar OsgEarthNet.uav[50] utilizationSecIdle 131930.83940415
scalar OsgEarthNet.uav[50] utilizationEnergyMission 74753.437606811
scalar OsgEarthNet.uav[50] utilizationEnergyMaintenance 57403.958011627
scalar OsgEarthNet.uav[50] utilizationEnergyCharge 129717.98364258
scalar OsgEarthNet.uav[50] utilizationEnergyOverdrawMission 0
scalar OsgEarthNet.uav[50] utilizationEnergyOverdrawMaintenance 0
scalar OsgEarthNet.uav[50] utilizationCountMissions 30
scalar OsgEarthNet.uav[50] utilizationCountManeuversMission 420
scalar OsgEarthNet.uav[50] utilizationCountManeuversMaintenance 60
scalar OsgEarthNet.uav[50] utilizationCountChargeState 30
scalar OsgEarthNet.uav[50] utilizationCountOverdrawnAfterMission 0
scalar OsgEarthNet.uav[50] utilizationCountIdleState 29
scalar OsgEarthNet.uav[50] utilizationFail 0
scalar OsgEarthNet.uav[50] simulationTime 259200
scalar OsgEarthNet.uav[51] utilizationSecMission 26930.543091445
scalar OsgEarthNet.uav[51] utilizationSecMaintenance 22941.565201614
scalar OsgEarthNet.uav[51] utilizationSecCharge 179695.88770694
scalar OsgEarthNet.uav[51] utilizationSecIdle 29632.003
scalar OsgEarthNet.uav[51] utilizationEnergyMission 132402.96128845
scalar OsgEarthNet.uav[51] utilizationEnergyMaintenance 106765.53290176
scalar OsgEarthNet.uav[51] utilizationEnergyCharge 235132.37780762
scalar OsgEarthNet.uav[51] utilizationEnergyOverdrawMission 0
scalar OsgEarthNet.uav[51] utilizationEnergyOverdrawMaintenance 0
scalar OsgEarthNet.uav[51] utilizationCountMissions 54
scalar OsgEarthNet.uav[51] utilizationCountManeuversMission 937
scalar OsgEarthNet.uav[51] utilizationCountManeuversMaintenance 108
scalar OsgEarthNet.uav[51] utilizationCountChargeState 54
scalar OsgEarthNet.uav[51] utilizationCountOverdrawnAfterMission 0
scalar OsgEarthNet.uav[51] utilizationCountIdleState 53
scalar OsgEarthNet.uav[51] utilizationFail 0
scalar OsgEarthNet.uav[51] simulationTime 259200
scalar OsgEarthNet.uav[52] utilizationSecMission 24134.141471308
scalar OsgEarthNet.uav[52] utilizationSecMaintenance 19718.386821314
scalar OsgEarthNet.uav[52] utilizationSecCharge 158438.62254979
scalar OsgEarthNet.uav[52] utilizationSecIdle 56908.84815759
scalar OsgEarthNet.uav[52] utilizationEnergyMission 115920.65869904
scalar OsgEarthNet.uav[52] utilizationEnergyMaintenance 92008.847213745
scalar OsgEarthNet.uav[52] utilizationEnergyCharge 207643.11694336
scalar OsgEarthNet.uav[52] utilizationEnergyOverdrawMission 0
scalar OsgEarthNet.uav[52] utilizationEnergyOverdrawMaintenance 0
scalar OsgEarthNet.uav[52] utilizationCountMissions 47
scalar OsgEarthNet.uav[52] utilizationCountManeuversMission 728
scalar OsgEarthNet.uav[52] utilizationCountManeuversMaintenance 94
scalar OsgEarthNet.uav[52] utilizationCountChargeState 47
scalar OsgEarthNet.uav[52] utilizationCountOverdrawnAfterMission 0
scalar OsgEarthNet.uav[52] utilizationCountIdleState 47
scalar OsgEarthNet.uav[52] utilizationFail 0
scalar OsgEarthNet.uav[52] simulationTime 259200
scalar OsgEarthNet.uav[53] utilizationSecMission 11669.009779465
scalar OsgEarthNet.uav[53] utilizationSecMaintenance 12660.835130037
scalar OsgEarthNet.uav[53] utilizationSecCharge 87620
scalar OsgEarthNet.uav[53] utilizationSecIdle 147250.1540905
scalar OsgEarthNet.uav[53] utilizationEnergyMission 57936.368778229
scalar OsgEarthNet.uav[53] utilizationEnergyMaintenance 58800.85830307
scalar OsgEarthNet.uav[53] utilizationEnergyCharge 115319.78564453
scalar OsgEarthNet.uav[53] utilizationEnergyOverdrawMission 0
scalar OsgEarthNet.uav[53] utilizationEnergyOverdrawMaintenance 199.23014831543
scalar OsgEarthNet.uav[53] utilizationCountMissions 26
scalar OsgEarthNet.uav[53] utilizationCountManeuversMission 479
scalar OsgEarthNet.uav[53] utilizationCountManeuversMaintenance 52
scalar OsgEarthNet.uav[53] utilizationCountChargeState 26
scalar OsgEarthNet.uav[53] utilizationCountOverdrawnAfterMission 1
scalar OsgEarthNet.uav[53] utilizationCountIdleState 24
scalar OsgEarthNet.uav[53] utilizationFail 0
scalar OsgEarthNet.uav[53] simulationTime 259200
scalar OsgEarthNet.uav[54] utilizationSecMission 27827.12590312
scalar OsgEarthNet.uav[54] utilizationSecMaintenance 20504.834595082
scalar OsgEarthNet.uav[54] utilizationSecCharge 174378.65449721
scalar OsgEarthNet.uav[54] utilizationSecIdle 36489.384004586
scalar OsgEarthNet.uav[54] utilizationEnergyMission 134532.29580688
scalar OsgEarthNet.uav[54] utilizationEnergyMaintenance 95425.824913025
scalar OsgEarthNet.uav[54] utilizationEnergyCharge 229843.1003418
scalar OsgEarthNet.uav[54] utilizationEnergyOverdrawMission 0
scalar OsgEarthNet.uav[54] utilizationEnergyOverdrawMaintenance 0
scalar OsgEarthNet.uav[54] utilizationCountMissions 51
scalar OsgEarthNet.uav[54] utilizationCountManeuversMission 779
scalar OsgEarthNet.uav[54] utilizationCountManeuversMaintenance 102
scalar OsgEarthNet.uav[54] utilizationCountChargeState 51
scalar OsgEarthNet.uav[54] utilizationCountOverdrawnAfterMission 0
scalar OsgEarthNet.uav[54] utilizationCountIdleState 50
scalar OsgEarthNet.uav[54] utilizationFail 0
scalar OsgEarthNet.uav[54] simulationTime 259200
scalar OsgEarthNet.uav[55] utilizationSecMission 25146.01406719
scalar OsgEarthNet.uav[55] utilizationSecMaintenance 24562.777639847
scalar OsgEarthNet.uav[55] utilizationSecCharge 180501.98767905
scalar OsgEarthNet.uav[55] utilizationSecIdle 28989.219613916
scalar OsgEarthNet.uav[55] utilizationEnergyMission 123834.6249733
scalar OsgEarthNet.uav[55] utilizationEnergyMaintenance 115271.96169281
scalar OsgEarthNet.uav[55] utilizationEnergyCharge 238427.60546875
scalar OsgEarthNet.uav[55] utilizationEnergyOverdrawMission 0
scalar OsgEarthNet.uav[55] utilizationEnergyOverdrawMaintenance 81.609539031982
scalar OsgEarthNet.uav[55] utilizationCountMissions 53
scalar OsgEarthNet.uav[55] utilizationCountManeuversMission 908
scalar OsgEarthNet.uav[55] utilizationCountManeuversMaintenance 106
scalar OsgEarthNet.uav[55] utilizationCountChargeState 53
scalar OsgEarthNet.uav[55] utilizationCountOverdrawnAfterMission 2
scalar OsgEarthNet.uav[55] utilizationCountIdleState 53
scalar OsgEarthNet.uav[55] utilizationFail 0
scalar OsgEarthNet.uav[55] simulationTime 259200
scalar OsgEarthNet.uav[56] utilizationSecMission 13449.826890475
scalar OsgEarthNet.uav[56] utilizationSecMaintenance 13768.842279715
scalar OsgEarthNet.uav[56] utilizationSecCharge 98870
scalar OsgEarthNet.uav[56] utilizationSecIdle 133111.32982981
scalar OsgEarthNet.uav[56] utilizationEnergyMission 65670.75699234
scalar OsgEarthNet.uav[56] utilizationEnergyMaintenance 64013.16985321
scalar OsgEarthNet.uav[56] utilizationEnergyCharge 129587.41894531
scalar OsgEarthNet.uav[56] utilizationEnergyOverdrawMission 0
scalar OsgEarthNet.uav[56] utilizationEnergyOverdrawMaintenance 0
scalar OsgEarthNet.uav[56] utilizationCountMissions 29
scalar OsgEarthNet.uav[56] utilizationCountManeuversMission 410
scalar OsgEarthNet.uav[56] utilizationCountManeuversMaintenance 58
scalar OsgEarthNet.uav[56] utilizationCountChargeState 29
scalar OsgEarthNet.uav[56] utilizationCountOverdrawnAfterMission 0
scalar OsgEarthNet.uav[56] utilizationCountIdleState 30
scalar OsgEarthNet.uav[56] utilizationFail 0
scalar OsgEarthNet.uav[56] simulationTime 259200
scalar OsgEarthNet.uav[57] utilizationSecMission 17565.732074695
scalar OsgEarthNet.uav[57] utilizationSecMaintenance 18783.60678606
scalar OsgEarthNet.uav[57] utilizationSecCharge 129570
scalar OsgEarthNet.uav[57] utilizationSecIdle 93280.660139245
scalar OsgEarthNet.uav[57] utilizationEnergyMission 84750.559783936
scalar OsgEarthNet.uav[57] utilizationEnergyMaintenance 86566.843093872
scalar OsgEarthNet.uav[57] utilizationEnergyCharge 170760.73168945
scalar OsgEarthNet.uav[57] utilizationEnergyOverdrawMission 0
scalar OsgEarthNet.uav[57] utilizationEnergyOverdrawMaintenance 0
scalar OsgEarthNet.uav[57] utilizationCountMissions 38
scalar OsgEarthNet.uav[57] utilizationCountManeuversMission 554
scalar OsgEarthNet.uav[57] utilizationCountManeuversMaintenance 76
scalar OsgEarthNet.uav[57] utilizationCountChargeState 38
scalar OsgEarthNet.uav[57] utilizationCountOverdrawnAfterMission 0
scalar OsgEarthNet.uav[57] utilizationCountIdleState 36
scalar OsgEarthNet.uav[57] utilizationFail 0
scalar OsgEarthNet.uav[57] simulationTime 259200
scalar OsgEarthNet.uav[58] utilizationSecMission 17291.582634267
scalar OsgEarthNet.uav[58] utilizationSecMaintenance 14624.574205232
scalar OsgEarthNet.uav[58] utilizationSecCharge 115080
scalar OsgEarthNet.uav[58] utilizationSecIdle 112203.8421605
scalar OsgEarthNet.uav[58] utilizationEnergyMission 83266.34344101
scalar OsgEarthNet.uav[58] utilizationEnergyMaintenance 68275.923839569
scalar OsgEarthNet.uav[58] utilizationEnergyCharge 150706.66113281
scalar OsgEarthNet.uav[58] utilizationEnergyOverdrawMission 0
scalar OsgEarthNet.uav[58] utilizationEnergyOverdrawMaintenance 0
scalar OsgEarthNet.uav[58] utilizationCountMissions 34
scalar OsgEarthNet.uav[58] utilizationCountManeuversMission 549
scalar OsgEarthNet.uav[58] utilizationCountManeuversMaintenance 68
scalar OsgEarthNet.uav[58] utilizationCountChargeState 34
scalar OsgEarthNet.uav[58] utilizationCountOverdrawnAfterMission 0
scalar OsgEarthNet.uav[58] utilizationCountIdleState 33
scalar OsgEarthNet.uav[58] utilizationFail 0
scalar OsgEarthNet.uav[58] simulationTime 259200
scalar OsgEarthNet.uav[59] utilizationSecMission 20376.431168471
scalar OsgEarthNet.uav[59] utilizationSecMaintenance 18436.228233317
scalar OsgEarthNet.uav[59] utilizationSecCharge 142444.26454741
scalar OsgEarthNet.uav[59] utilizationSecIdle 77943.075050808
scalar OsgEarthNet.uav[59] utilizationEnergyMission 101941.04453659
scalar OsgEarthNet.uav[59] utilizationEnergyMaintenance 86461.210639954
scalar OsgEarthNet.uav[59] utilizationEnergyCharge 187758.40600586
scalar OsgEarthNet.uav[59] utilizationEnergyOverdrawMission 0
scalar OsgEarthNet.uav[59] utilizationEnergyOverdrawMaintenance 54.770839691162
scalar OsgEarthNet.uav[59] utilizationCountMissions 42
scalar OsgEarthNet.uav[59] utilizationCountManeuversMission 767
scalar OsgEarthNet.uav[59] utilizationCountManeuversMaintenance 84
scalar OsgEarthNet.uav[59] utilizationCountChargeState 42
scalar OsgEarthNet.uav[59] utilizationCountOverdrawnAfterMission 1
scalar OsgEarthNet.uav[59] utilizationCountIdleState 42
scalar OsgEarthNet.uav[59] utilizationFail 0
scalar OsgEarthNet.uav[59] simulationTime 259200
scalar OsgEarthNet.uav[60] utilizationSecMission 15849.391097244
scalar OsgEarthNet.uav[60] utilizationSecMaintenance 15075.592166005
scalar OsgEarthNet.uav[60] utilizationSecCharge 112830
scalar OsgEarthNet.uav[60] utilizationSecIdle 115445.01573675
scalar OsgEarthNet.uav[60] utilizationEnergyMission 76896.838954926
scalar OsgEarthNet.uav[60] utilizationEnergyMaintenance 71400.58839035
scalar OsgEarthNet.uav[60] utilizationEnergyCharge 148732.95361328
scalar OsgEarthNet.uav[60] utilizationEnergyOverdrawMission 0
scalar OsgEarthNet.uav[60] utilizationEnergyOverdrawMaintenance 0
scalar OsgEarthNet.uav[60] utilizationCountMissions 33
scalar OsgEarthNet.uav[60] utilizationCountManeuversMission 526
scalar OsgEarthNet.uav[60] utilizationCountManeuversMaintenance 66
scalar OsgEarthNet.uav[60] utilizationCountChargeState 33
scalar OsgEarthNet.uav[60] utilizationCountOverdrawnAfterMission 0
scalar OsgEarthNet.uav[60] utilizationCountIdleState 31
scalar OsgEarthNet.uav[60] utilizationFail 0
scalar OsgEarthNet.uav[60] simulationTime 259200
scalar OsgEarthNet.uav[61] utilizationSecMission 16465.643285411
scalar OsgEarthNet.uav[61] utilizationSecMaintenance 17053.549952281
scalar OsgEarthNet.uav[61] utilizationSecCharge 120725.35967362
scalar OsgEarthNet.uav[61] utilizationSecIdle 104955.44608869
scalar OsgEarthNet.uav[61] utilizationEnergyMission 78954.288425446
scalar OsgEarthNet.uav[61] utilizationEnergyMaintenance 79382.274745941
scalar OsgEarthNet.uav[61] utilizationEnergyCharge 159415.48608398
scalar OsgEarthNet.uav[61] utilizationEnergyOverdrawMission 0
scalar OsgEarthNet.uav[61] utilizationEnergyOverdrawMaintenance 0
scalar OsgEarthNet.uav[61] utilizationCountMissions 36
scalar OsgEarthNet.uav[61] utilizationCountManeuversMission 515
scalar OsgEarthNet.uav[61] utilizationCountManeuversMaintenance 72
scalar OsgEarthNet.uav[61] utilizationCountChargeState 36
scalar OsgEarthNet.uav[61] utilizationCountOverdrawnAfterMission 0
scalar OsgEarthNet.uav[61] utilizationCountIdleState 32
scalar OsgEarthNet.uav[61] utilizationFail 0
scalar OsgEarthNet.uav[61] simulationTime 259200
scalar OsgEarthNet.uav[62] utilizationSecMission 22152.454558799
scalar OsgEarthNet.uav[62] utilizationSecMaintenance 19770.86438521
scalar OsgEarthNet.uav[62] utilizationSecCharge 148279.22979196
scalar OsgEarthNet.uav[62] utilizationSecIdle 68997.450264031
scalar OsgEarthNet.uav[62] utilizationEnergyMission 107313.83443832
scalar OsgEarthNet.uav[62] utilizationEnergyMaintenance 92505.009635925
scalar OsgEarthNet.uav[62] utilizationEnergyCharge 196736.62573242
scalar OsgEarthNet.uav[62] utilizationEnergyOverdrawMission 0
scalar OsgEarthNet.uav[62] utilizationEnergyOverdrawMaintenance 0
scalar OsgEarthNet.uav[62] utilizationCountMissions 44
scalar OsgEarthNet.uav[62] utilizationCountManeuversMission 642
scalar OsgEarthNet.uav[62] utilizationCountManeuversMaintenance 88
scalar OsgEarthNet.uav[62] utilizationCountChargeState 44
scalar OsgEarthNet.uav[62] utilizationCountOverdrawnAfterMission 0
scalar OsgEarthNet.uav[62] utilizationCountIdleState 38
scalar OsgEarthNet.uav[62] utilizationFail 0
scalar OsgEarthNet.uav[62] simulationTime 259200
scalar OsgEarthNet.uav[63] utilizationSecMission 24055.293328624
scalar OsgEarthNet.uav[63] utilizationSecMaintenance 18317.544837541
scalar OsgEarthNet.uav[63] utilizationSecCharge 151052.7978768
scalar OsgEarthNet.uav[63] utilizationSecIdle 65774.362957036
scalar OsgEarthNet.uav[63] utilizationEnergyMission 114517.90997696
scalar OsgEarthNet.uav[63] utilizationEnergyMaintenance 85302.162223816
scalar OsgEarthNet.uav[63] utilizationEnergyCharge 200458.90454102
scalar OsgEarthNet.uav[63] utilizationEnergyOverdrawMission 0
scalar OsgEarthNet.uav[63] utilizationEnergyOverdrawMaintenance 0
scalar OsgEarthNet.uav[63] utilizationCountMissions 44
scalar OsgEarthNet.uav[63] utilizationCountManeuversMission 705
scalar OsgEarthNet.uav[63] utilizationCountManeuversMaintenance 88
scalar OsgEarthNet.uav[63] utilizationCountChargeState 44
scalar OsgEarthNet.uav[63] utilizationCountOverdrawnAfterMission 0
scalar OsgEarthNet.uav[63] utilizationCountIdleState 39
scalar OsgEarthNet.uav[63] utilizationFail 0
scalar OsgEarthNet.uav[63] simulationTime 259200
scalar OsgEarthNet.uav[64] utilizationSecMission 22643.195895987
scalar OsgEarthNet.uav[64] utilizationSecMaintenance 23309.227992221
scalar OsgEarthNet.uav[64] utilizationSecCharge 163970
scalar OsgEarthNet.uav[64] utilizationSecIdle 49277.575111792
scalar OsgEarthNet.uav[64] utilizationEnergyMission 108952.5124588
scalar OsgEarthNet.uav[64] utilizationEnergyMaintenance 107977.00979996
scalar OsgEarthNet.uav[64] utilizationEnergyCharge 216966.58032227
scalar OsgEarthNet.uav[64] utilizationEnergyOverdrawMission 0
scalar OsgEarthNet.uav[64] utilizationEnergyOverdrawMaintenance 0
scalar OsgEarthNet.uav[64] utilizationCountMissions 48
scalar OsgEarthNet.uav[64] utilizationCountManeuversMission 648
scalar OsgEarthNet.uav[64] utilizationCountManeuversMaintenance 96
scalar OsgEarthNet.uav[64] utilizationCountChargeState 48
scalar OsgEarthNet.uav[64] utilizationCountOverdrawnAfterMission 0
scalar OsgEarthNet.uav[64] utilizationCountIdleState 40
scalar OsgEarthNet.uav[64] utilizationFail 0
scalar OsgEarthNet.uav[64] simulationTime 259200
scalar OsgEarthNet.uav[65] utilizationSecMission 26384.832683184
scalar OsgEarthNet.uav[65] utilizationSecMaintenance 19564.378290768
scalar OsgEarthNet.uav[65] utilizationSecCharge 163550
[...]
scalar OsgEarthNet.uav[81] utilizationCountMissions 57
scalar OsgEarthNet.uav[81] utilizationCountManeuversMission 869
scalar OsgEarthNet.uav[81] utilizationCountManeuversMaintenance 115
scalar OsgEarthNet.uav[81] utilizationCountChargeState 57
scalar OsgEarthNet.uav[81] utilizationCountOverdrawnAfterMission 0
scalar OsgEarthNet.uav[81] utilizationCountIdleState 36
scalar OsgEarthNet.uav[81] utilizationFail 0
scalar OsgEarthNet.uav[81] simulationTime 259200
scalar OsgEarthNet.uav[82] utilizationSecMission 29524.878817182
scalar OsgEarthNet.uav[82] utilizationSecMaintenance 24772.636872987
scalar OsgEarthNet.uav[82] utilizationSecCharge 193070.48330983
scalar OsgEarthNet.uav[82] utilizationSecIdle 11832
scalar OsgEarthNet.uav[82] utilizationEnergyMission 143785.10684967
scalar OsgEarthNet.uav[82] utilizationEnergyMaintenance 114804.27138138
scalar OsgEarthNet.uav[82] utilizationEnergyCharge 256431.39306641
scalar OsgEarthNet.uav[82] utilizationEnergyOverdrawMission 0
scalar OsgEarthNet.uav[82] utilizationEnergyOverdrawMaintenance 0
scalar OsgEarthNet.uav[82] utilizationCountMissions 59
scalar OsgEarthNet.uav[82] utilizationCountManeuversMission 872
scalar OsgEarthNet.uav[82] utilizationCountManeuversMaintenance 118
scalar OsgEarthNet.uav[82] utilizationCountChargeState 59
scalar OsgEarthNet.uav[82] utilizationCountOverdrawnAfterMission 0
scalar OsgEarthNet.uav[82] utilizationCountIdleState 33
scalar OsgEarthNet.uav[82] utilizationFail 0
scalar OsgEarthNet.uav[82] simulationTime 259200
scalar OsgEarthNet.uav[83] utilizationSecMission 29973.71413506
scalar OsgEarthNet.uav[83] utilizationSecMaintenance 24250.098483321
scalar OsgEarthNet.uav[83] utilizationSecCharge 190703.21773578
scalar OsgEarthNet.uav[83] utilizationSecIdle 14272.968645836
scalar OsgEarthNet.uav[83] utilizationEnergyMission 142545.58319092
scalar OsgEarthNet.uav[83] utilizationEnergyMaintenance 111771.99598312
scalar OsgEarthNet.uav[83] utilizationEnergyCharge 255206.78955078
scalar OsgEarthNet.uav[83] utilizationEnergyOverdrawMission 0
scalar OsgEarthNet.uav[83] utilizationEnergyOverdrawMaintenance 0
scalar OsgEarthNet.uav[83] utilizationCountMissions 57
scalar OsgEarthNet.uav[83] utilizationCountManeuversMission 832
scalar OsgEarthNet.uav[83] utilizationCountManeuversMaintenance 114
scalar OsgEarthNet.uav[83] utilizationCountChargeState 57
scalar OsgEarthNet.uav[83] utilizationCountOverdrawnAfterMission 0
scalar OsgEarthNet.uav[83] utilizationCountIdleState 30
scalar OsgEarthNet.uav[83] utilizationFail 0
scalar OsgEarthNet.uav[83] simulationTime 259200
scalar OsgEarthNet.uav[84] utilizationSecMission 29125.245763658
scalar OsgEarthNet.uav[84] utilizationSecMaintenance 26747.898325069
scalar OsgEarthNet.uav[84] utilizationSecCharge 194060.17410339
scalar OsgEarthNet.uav[84] utilizationSecIdle 9266.680807888
scalar OsgEarthNet.uav[84] utilizationEnergyMission 141344.84384537
scalar OsgEarthNet.uav[84] utilizationEnergyMaintenance 122993.38814926
scalar OsgEarthNet.uav[84] utilizationEnergyCharge 260410.26391602
scalar OsgEarthNet.uav[84] utilizationEnergyOverdrawMission 0
scalar OsgEarthNet.uav[84] utilizationEnergyOverdrawMaintenance 0
scalar OsgEarthNet.uav[84] utilizationCountMissions 59
scalar OsgEarthNet.uav[84] utilizationCountManeuversMission 894
scalar OsgEarthNet.uav[84] utilizationCountManeuversMaintenance 118
scalar OsgEarthNet.uav[84] utilizationCountChargeState 59
scalar OsgEarthNet.uav[84] utilizationCountOverdrawnAfterMission 0
scalar OsgEarthNet.uav[84] utilizationCountIdleState 28
scalar OsgEarthNet.uav[84] utilizationFail 0
scalar OsgEarthNet.uav[84] simulationTime 259200
scalar OsgEarthNet.uav[85] utilizationSecMission 28288.768195586
scalar OsgEarthNet.uav[85] utilizationSecMaintenance 27413.370183537
scalar OsgEarthNet.uav[85] utilizationSecCharge 196790
scalar OsgEarthNet.uav[85] utilizationSecIdle 6707.8606208768
scalar OsgEarthNet.uav[85] utilizationEnergyMission 137474.9667244
scalar OsgEarthNet.uav[85] utilizationEnergyMaintenance 128166.14341736
scalar OsgEarthNet.uav[85] utilizationEnergyCharge 263638.41210938
scalar OsgEarthNet.uav[85] utilizationEnergyOverdrawMission 0
scalar OsgEarthNet.uav[85] utilizationEnergyOverdrawMaintenance 0
scalar OsgEarthNet.uav[85] utilizationCountMissions 59
scalar OsgEarthNet.uav[85] utilizationCountManeuversMission 908
scalar OsgEarthNet.uav[85] utilizationCountManeuversMaintenance 118
scalar OsgEarthNet.uav[85] utilizationCountChargeState 59
scalar OsgEarthNet.uav[85] utilizationCountOverdrawnAfterMission 0
scalar OsgEarthNet.uav[85] utilizationCountIdleState 33
scalar OsgEarthNet.uav[85] utilizationFail 0
scalar OsgEarthNet.uav[85] simulationTime 259200
scalar OsgEarthNet.uav[86] utilizationSecMission 26371.012368429
scalar OsgEarthNet.uav[86] utilizationSecMaintenance 28648.608893771
scalar OsgEarthNet.uav[86] utilizationSecCharge 193638.3647378
scalar OsgEarthNet.uav[86] utilizationSecIdle 10542.013
scalar OsgEarthNet.uav[86] utilizationEnergyMission 129528.01991653
scalar OsgEarthNet.uav[86] utilizationEnergyMaintenance 133217.44246674
scalar OsgEarthNet.uav[86] utilizationEnergyCharge 258225.1015625
scalar OsgEarthNet.uav[86] utilizationEnergyOverdrawMission 0
scalar OsgEarthNet.uav[86] utilizationEnergyOverdrawMaintenance 0
scalar OsgEarthNet.uav[86] utilizationCountMissions 60
scalar OsgEarthNet.uav[86] utilizationCountManeuversMission 887
scalar OsgEarthNet.uav[86] utilizationCountManeuversMaintenance 120
scalar OsgEarthNet.uav[86] utilizationCountChargeState 60
scalar OsgEarthNet.uav[86] utilizationCountOverdrawnAfterMission 0
scalar OsgEarthNet.uav[86] utilizationCountIdleState 27
scalar OsgEarthNet.uav[86] utilizationFail 0
scalar OsgEarthNet.uav[86] simulationTime 259200
scalar OsgEarthNet.uav[87] utilizationSecMission 26710.162432369
scalar OsgEarthNet.uav[87] utilizationSecMaintenance 28894.170818231
scalar OsgEarthNet.uav[87] utilizationSecCharge 195043.6587494
scalar OsgEarthNet.uav[87] utilizationSecIdle 8552.007
scalar OsgEarthNet.uav[87] utilizationEnergyMission 130566.90655899
scalar OsgEarthNet.uav[87] utilizationEnergyMaintenance 135170.47060776
scalar OsgEarthNet.uav[87] utilizationEnergyCharge 262809.01757812
scalar OsgEarthNet.uav[87] utilizationEnergyOverdrawMission 0
scalar OsgEarthNet.uav[87] utilizationEnergyOverdrawMaintenance 362.1501159668
scalar OsgEarthNet.uav[87] utilizationCountMissions 60
scalar OsgEarthNet.uav[87] utilizationCountManeuversMission 826
scalar OsgEarthNet.uav[87] utilizationCountManeuversMaintenance 120
scalar OsgEarthNet.uav[87] utilizationCountChargeState 60
scalar OsgEarthNet.uav[87] utilizationCountOverdrawnAfterMission 1
scalar OsgEarthNet.uav[87] utilizationCountIdleState 26
scalar OsgEarthNet.uav[87] utilizationFail 0
scalar OsgEarthNet.uav[87] simulationTime 259200
scalar OsgEarthNet.uav[88] utilizationSecMission 30470.819880972
scalar OsgEarthNet.uav[88] utilizationSecMaintenance 24796.565528542
scalar OsgEarthNet.uav[88] utilizationSecCharge 195298.11564931
scalar OsgEarthNet.uav[88] utilizationSecIdle 8634.4979411756
scalar OsgEarthNet.uav[88] utilizationEnergyMission 147347.76232529
scalar OsgEarthNet.uav[88] utilizationEnergyMaintenance 116167.9908638
scalar OsgEarthNet.uav[88] utilizationEnergyCharge 261420.7746582
scalar OsgEarthNet.uav[88] utilizationEnergyOverdrawMission 0
scalar OsgEarthNet.uav[88] utilizationEnergyOverdrawMaintenance 0
scalar OsgEarthNet.uav[88] utilizationCountMissions 59
scalar OsgEarthNet.uav[88] utilizationCountManeuversMission 839
scalar OsgEarthNet.uav[88] utilizationCountManeuversMaintenance 118
scalar OsgEarthNet.uav[88] utilizationCountChargeState 59
scalar OsgEarthNet.uav[88] utilizationCountOverdrawnAfterMission 0
scalar OsgEarthNet.uav[88] utilizationCountIdleState 34
scalar OsgEarthNet.uav[88] utilizationFail 0
scalar OsgEarthNet.uav[88] simulationTime 259200
scalar OsgEarthNet.uav[89] utilizationSecMission 29807.787026966
scalar OsgEarthNet.uav[89] utilizationSecMaintenance 25460.16657361
scalar OsgEarthNet.uav[89] utilizationSecCharge 191500.84881425
scalar OsgEarthNet.uav[89] utilizationSecIdle 12431.196585173
scalar OsgEarthNet.uav[89] utilizationEnergyMission 142352.6027832
scalar OsgEarthNet.uav[89] utilizationEnergyMaintenance 118345.49501038
scalar OsgEarthNet.uav[89] utilizationEnergyCharge 256766.01708984
scalar OsgEarthNet.uav[89] utilizationEnergyOverdrawMission 0
scalar OsgEarthNet.uav[89] utilizationEnergyOverdrawMaintenance 0
scalar OsgEarthNet.uav[89] utilizationCountMissions 58
scalar OsgEarthNet.uav[89] utilizationCountManeuversMission 805
scalar OsgEarthNet.uav[89] utilizationCountManeuversMaintenance 116
scalar OsgEarthNet.uav[89] utilizationCountChargeState 58
scalar OsgEarthNet.uav[89] utilizationCountOverdrawnAfterMission 0
scalar OsgEarthNet.uav[89] utilizationCountIdleState 34
scalar OsgEarthNet.uav[89] utilizationFail 0
scalar OsgEarthNet.uav[89] simulationTime 259200
scalar OsgEarthNet.uav[90] utilizationSecMission 27444.524188821
scalar OsgEarthNet.uav[90] utilizationSecMaintenance 28103.460811179
scalar OsgEarthNet.uav[90] utilizationSecCharge 193320
scalar OsgEarthNet.uav[90] utilizationSecIdle 10332.014
scalar OsgEarthNet.uav[90] utilizationEnergyMission 134075.45493698
scalar OsgEarthNet.uav[90] utilizationEnergyMaintenance 130699.96113465
scalar OsgEarthNet.uav[90] utilizationEnergyCharge 260697.53417969
scalar OsgEarthNet.uav[90] utilizationEnergyOverdrawMission 0
scalar OsgEarthNet.uav[90] utilizationEnergyOverdrawMaintenance 0
scalar OsgEarthNet.uav[90] utilizationCountMissions 60
scalar OsgEarthNet.uav[90] utilizationCountManeuversMission 956
scalar OsgEarthNet.uav[90] utilizationCountManeuversMaintenance 120
scalar OsgEarthNet.uav[90] utilizationCountChargeState 59
scalar OsgEarthNet.uav[90] utilizationCountOverdrawnAfterMission 0
scalar OsgEarthNet.uav[90] utilizationCountIdleState 19
scalar OsgEarthNet.uav[90] utilizationFail 0
scalar OsgEarthNet.uav[90] simulationTime 259200
scalar OsgEarthNet.uav[91] utilizationSecMission 28635.697138566
scalar OsgEarthNet.uav[91] utilizationSecMaintenance 26814.35493664
scalar OsgEarthNet.uav[91] utilizationSecCharge 194807.94692479
scalar OsgEarthNet.uav[91] utilizationSecIdle 8942
scalar OsgEarthNet.uav[91] utilizationEnergyMission 138112.88404846
scalar OsgEarthNet.uav[91] utilizationEnergyMaintenance 124411.90069962
scalar OsgEarthNet.uav[91] utilizationEnergyCharge 263384.04541016
scalar OsgEarthNet.uav[91] utilizationEnergyOverdrawMission 0
scalar OsgEarthNet.uav[91] utilizationEnergyOverdrawMaintenance 270.33624267578
scalar OsgEarthNet.uav[91] utilizationCountMissions 59
scalar OsgEarthNet.uav[91] utilizationCountManeuversMission 876
scalar OsgEarthNet.uav[91] utilizationCountManeuversMaintenance 118
scalar OsgEarthNet.uav[91] utilizationCountChargeState 59
scalar OsgEarthNet.uav[91] utilizationCountOverdrawnAfterMission 1
scalar OsgEarthNet.uav[91] utilizationCountIdleState 30
scalar OsgEarthNet.uav[91] utilizationFail 0
scalar OsgEarthNet.uav[91] simulationTime 259200
scalar OsgEarthNet.uav[92] utilizationSecMission 28176.710094295
scalar OsgEarthNet.uav[92] utilizationSecMaintenance 27617.969629018
scalar OsgEarthNet.uav[92] utilizationSecCharge 197003.31527669
scalar OsgEarthNet.uav[92] utilizationSecIdle 6402.004
scalar OsgEarthNet.uav[92] utilizationEnergyMission 137189.8815155
scalar OsgEarthNet.uav[92] utilizationEnergyMaintenance 130436.647789
scalar OsgEarthNet.uav[92] utilizationEnergyCharge 267006.32543945
scalar OsgEarthNet.uav[92] utilizationEnergyOverdrawMission 0
scalar OsgEarthNet.uav[92] utilizationEnergyOverdrawMaintenance 0
scalar OsgEarthNet.uav[92] utilizationCountMissions 59
scalar OsgEarthNet.uav[92] utilizationCountManeuversMission 862
scalar OsgEarthNet.uav[92] utilizationCountManeuversMaintenance 118
scalar OsgEarthNet.uav[92] utilizationCountChargeState 59
scalar OsgEarthNet.uav[92] utilizationCountOverdrawnAfterMission 0
scalar OsgEarthNet.uav[92] utilizationCountIdleState 25
scalar OsgEarthNet.uav[92] utilizationFail 0
scalar OsgEarthNet.uav[92] simulationTime 259200
scalar OsgEarthNet.uav[93] utilizationSecMission 30283.889313393
scalar OsgEarthNet.uav[93] utilizationSecMaintenance 25474.107686607
scalar OsgEarthNet.uav[93] utilizationSecCharge 193860
scalar OsgEarthNet.uav[93] utilizationSecIdle 9582.002
scalar OsgEarthNet.uav[93] utilizationEnergyMission 145567.7462385
scalar OsgEarthNet.uav[93] utilizationEnergyMaintenance 117785.04785156
scalar OsgEarthNet.uav[93] utilizationEnergyCharge 259302.48291016
scalar OsgEarthNet.uav[93] utilizationEnergyOverdrawMission 0
scalar OsgEarthNet.uav[93] utilizationEnergyOverdrawMaintenance 51.181594848633
scalar OsgEarthNet.uav[93] utilizationCountMissions 58
scalar OsgEarthNet.uav[93] utilizationCountManeuversMission 855
scalar OsgEarthNet.uav[93] utilizationCountManeuversMaintenance 117
scalar OsgEarthNet.uav[93] utilizationCountChargeState 58
scalar OsgEarthNet.uav[93] utilizationCountOverdrawnAfterMission 1
scalar OsgEarthNet.uav[93] utilizationCountIdleState 32
scalar OsgEarthNet.uav[93] utilizationFail 0
scalar OsgEarthNet.uav[93] simulationTime 259200
scalar OsgEarthNet.uav[94] utilizationSecMission 28872.580874892
scalar OsgEarthNet.uav[94] utilizationSecMaintenance 27260.589445292
scalar OsgEarthNet.uav[94] utilizationSecCharge 193984.82067982
scalar OsgEarthNet.uav[94] utilizationSecIdle 9082.008
scalar OsgEarthNet.uav[94] utilizationEnergyMission 137553.67092133
scalar OsgEarthNet.uav[94] utilizationEnergyMaintenance 126496.14185715
scalar OsgEarthNet.uav[94] utilizationEnergyCharge 263277.03295898
scalar OsgEarthNet.uav[94] utilizationEnergyOverdrawMission 0
scalar OsgEarthNet.uav[94] utilizationEnergyOverdrawMaintenance 0
scalar OsgEarthNet.uav[94] utilizationCountMissions 59
scalar OsgEarthNet.uav[94] utilizationCountManeuversMission 814
scalar OsgEarthNet.uav[94] utilizationCountManeuversMaintenance 118
scalar OsgEarthNet.uav[94] utilizationCountChargeState 59
scalar OsgEarthNet.uav[94] utilizationCountOverdrawnAfterMission 0
scalar OsgEarthNet.uav[94] utilizationCountIdleState 24
scalar OsgEarthNet.uav[94] utilizationFail 0
scalar OsgEarthNet.uav[94] simulationTime 259200
scalar OsgEarthNet.uav[95] utilizationSecMission 30442.206319935
scalar OsgEarthNet.uav[95] utilizationSecMaintenance 26116.164817091
scalar OsgEarthNet.uav[95] utilizationSecCharge 195090.91980588
scalar OsgEarthNet.uav[95] utilizationSecIdle 7550.7080570899
scalar OsgEarthNet.uav[95] utilizationEnergyMission 145622.99986267
scalar OsgEarthNet.uav[95] utilizationEnergyMaintenance 120775.59453964
scalar OsgEarthNet.uav[95] utilizationEnergyCharge 263551.24639893
scalar OsgEarthNet.uav[95] utilizationEnergyOverdrawMission 0
scalar OsgEarthNet.uav[95] utilizationEnergyOverdrawMaintenance 0
scalar OsgEarthNet.uav[95] utilizationCountMissions 60
scalar OsgEarthNet.uav[95] utilizationCountManeuversMission 868
scalar OsgEarthNet.uav[95] utilizationCountManeuversMaintenance 120
scalar OsgEarthNet.uav[95] utilizationCountChargeState 60
scalar OsgEarthNet.uav[95] utilizationCountOverdrawnAfterMission 0
scalar OsgEarthNet.uav[95] utilizationCountIdleState 25
scalar OsgEarthNet.uav[95] utilizationFail 0
scalar OsgEarthNet.uav[95] simulationTime 259200
scalar OsgEarthNet.uav[96] utilizationSecMission 31195.607606493
scalar OsgEarthNet.uav[96] utilizationSecMaintenance 24773.397131161
scalar OsgEarthNet.uav[96] utilizationSecCharge 197298.36810156
scalar OsgEarthNet.uav[96] utilizationSecIdle 5932.6261607893
scalar OsgEarthNet.uav[96] utilizationEnergyMission 150643.03053665
scalar OsgEarthNet.uav[96] utilizationEnergyMaintenance 114230.70793915
scalar OsgEarthNet.uav[96] utilizationEnergyCharge 265127.3059082
scalar OsgEarthNet.uav[96] utilizationEnergyOverdrawMission 0
scalar OsgEarthNet.uav[96] utilizationEnergyOverdrawMaintenance 0
scalar OsgEarthNet.uav[96] utilizationCountMissions 60
scalar OsgEarthNet.uav[96] utilizationCountManeuversMission 933
scalar OsgEarthNet.uav[96] utilizationCountManeuversMaintenance 120
scalar OsgEarthNet.uav[96] utilizationCountChargeState 60
scalar OsgEarthNet.uav[96] utilizationCountOverdrawnAfterMission 0
scalar OsgEarthNet.uav[96] utilizationCountIdleState 24
scalar OsgEarthNet.uav[96] utilizationFail 0
scalar OsgEarthNet.uav[96] simulationTime 259200
scalar OsgEarthNet.uav[97] utilizationSecMission 28702.041698836
scalar OsgEarthNet.uav[97] utilizationSecMaintenance 26395.114397291
scalar OsgEarthNet.uav[97] utilizationSecCharge 194647.39581518
scalar OsgEarthNet.uav[97] utilizationSecIdle 9455.447088691
scalar OsgEarthNet.uav[97] utilizationEnergyMission 137360.43518829
scalar OsgEarthNet.uav[97] utilizationEnergyMaintenance 123077.66058731
scalar OsgEarthNet.uav[97] utilizationEnergyCharge 262599.90991211
scalar OsgEarthNet.uav[97] utilizationEnergyOverdrawMission 0
scalar OsgEarthNet.uav[97] utilizationEnergyOverdrawMaintenance 0
scalar OsgEarthNet.uav[97] utilizationCountMissions 59
scalar OsgEarthNet.uav[97] utilizationCountManeuversMission 848
scalar OsgEarthNet.uav[97] utilizationCountManeuversMaintenance 118
scalar OsgEarthNet.uav[97] utilizationCountChargeState 59
scalar OsgEarthNet.uav[97] utilizationCountOverdrawnAfterMission 0
scalar OsgEarthNet.uav[97] utilizationCountIdleState 24
scalar OsgEarthNet.uav[97] utilizationFail 0
scalar OsgEarthNet.uav[97] simulationTime 259200
scalar OsgEarthNet.uav[98] utilizationSecMission 27692.01639216
scalar OsgEarthNet.uav[98] utilizationSecMaintenance 28555.98060784
scalar OsgEarthNet.uav[98] utilizationSecCharge 196640
scalar OsgEarthNet.uav[98] utilizationSecIdle 6312.002
scalar OsgEarthNet.uav[98] utilizationEnergyMission 136857.10630327
scalar OsgEarthNet.uav[98] utilizationEnergyMaintenance 131965.46343994
scalar OsgEarthNet.uav[98] utilizationEnergyCharge 264385.79296875
scalar OsgEarthNet.uav[98] utilizationEnergyOverdrawMission 0
scalar OsgEarthNet.uav[98] utilizationEnergyOverdrawMaintenance 0
scalar OsgEarthNet.uav[98] utilizationCountMissions 60
scalar OsgEarthNet.uav[98] utilizationCountManeuversMission 874
scalar OsgEarthNet.uav[98] utilizationCountManeuversMaintenance 121
scalar OsgEarthNet.uav[98] utilizationCountChargeState 60
scalar OsgEarthNet.uav[98] utilizationCountOverdrawnAfterMission 0
scalar OsgEarthNet.uav[98] utilizationCountIdleState 27
scalar OsgEarthNet.uav[98] utilizationFail 0
scalar OsgEarthNet.uav[98] simulationTime 259200
scalar OsgEarthNet.uav[99] utilizationSecMission 27785.688985954
scalar OsgEarthNet.uav[99] utilizationSecMaintenance 28812.309014046
scalar OsgEarthNet.uav[99] utilizationSecCharge 197500
scalar OsgEarthNet.uav[99] utilizationSecIdle 5102.001
scalar OsgEarthNet.uav[99] utilizationEnergyMission 134694.78974533
scalar OsgEarthNet.uav[99] utilizationEnergyMaintenance 135816.74739427
scalar OsgEarthNet.uav[99] utilizationEnergyCharge 267512.27587891
scalar OsgEarthNet.uav[99] utilizationEnergyOverdrawMission 0
scalar OsgEarthNet.uav[99] utilizationEnergyOverdrawMaintenance 0
scalar OsgEarthNet.uav[99] utilizationCountMissions 61
scalar OsgEarthNet.uav[99] utilizationCountManeuversMission 888
scalar OsgEarthNet.uav[99] utilizationCountManeuversMaintenance 122
scalar OsgEarthNet.uav[99] utilizationCountChargeState 60
scalar OsgEarthNet.uav[99] utilizationCountOverdrawnAfterMission 0
scalar OsgEarthNet.uav[99] utilizationCountIdleState 19
scalar OsgEarthNet.uav[99] utilizationFail 0
scalar OsgEarthNet.uav[99] simulationTime 259200
scalar OsgEarthNet.cs[0] usedPower 5319252.4728526
scalar OsgEarthNet.cs[0] chargedPower 5319252.4728526
scalar OsgEarthNet.cs[0] chargedMobileNodes 950
scalar OsgEarthNet.cs[0] reservations 1213
scalar OsgEarthNet.cs[1] usedPower 5655115.2145604
scalar OsgEarthNet.cs[1] chargedPower 5655115.2145604
scalar OsgEarthNet.cs[1] chargedMobileNodes 984
scalar OsgEarthNet.cs[1] reservations 1255
scalar OsgEarthNet.cs[2] usedPower 9669302.8451229
scalar OsgEarthNet.cs[2] chargedPower 9669302.8451229
scalar OsgEarthNet.cs[2] chargedMobileNodes 1773
scalar OsgEarthNet.cs[2] reservations 2197

