version 2
run Szenario_Hotel_Gabelbach-31-20180711-17:34:52-9792
attr configname Szenario_Hotel_Gabelbach
attr datetime 20180711-17:34:52
attr experiment Szenario_Hotel_Gabelbach
attr inifile omnetpp.ini
attr iterationvars "$replM=0, $replSearchM=1"
attr iterationvarsf replM=0,replSearchM=1-
attr measurement "$replM=0, $replSearchM=1"
attr network OsgEarthNet
attr processid 9792
attr repetition 15
attr replication #15
attr resultdir results
attr runnumber 31
attr seedset 31
itervar replM 0
itervar replSearchM 1
param *.osgEarthScene.scene "\"Szenario_Hotel_Gabelbach.earth\""
param *.playgroundLatitude 50.6830269
param *.playgroundLongitude 10.8538055
param *.playgroundWidth 3500m
param *.playgroundHeight 3500m
param *.numCSs 3
param *.numUAVs 100
param *.cs[0].posX 3537m
param *.cs[0].posY 965m
param *.cs[0].posZ 538m
param *.cs[1].posX 312m
param *.cs[1].posY 1262m
param *.cs[1].posZ 539m
param *.cs[2].posX 2185m
param *.cs[2].posY 3026m
param *.cs[2].posZ 777m
param *.cs[3].posX 10m
param *.cs[3].posY 2200m
param *.cs[3].posZ 560m
param *.cs[4].posX 750m
param *.cs[4].posY 200m
param *.cs[4].posZ 540m
param *.cs[5].posX 2450m
param *.cs[5].posY 180m
param *.cs[5].posZ 524m
param *.cs[6].posX 3140m
param *.cs[6].posY 1790m
param *.cs[6].posZ 606m
param *.numCSs 3
param *.numUAVs 100
param *.uav[*].replacementMethod 0
param *.missionControl.replacementSearchMethod 1
param *.*.timeStep 10s
param *.uav[*].commandPreviewCommandCount 20
param *.missionControl.missionFiles "\"missions\\\\Szenario_WB_Hotel_Gabelbach_Mission_Hotel.waypoints,missions\\\\Szenario_WB_Hotel_Gabelbach_Mission_Kickelhahn.waypoints,missions\\\\Szenario_WB_Hotel_Gabelbach_Mission_Ilmenau_Sportplatz.waypoints,missions\\\\Szenario_WB_Hotel_Gabelbach_Mission_Manebach_Mitte.waypoints,missions\\\\Szenario_WB_Hotel_Gabelbach_Mission_Manebach_Sued.waypoints,missions\\\\Szenario_WB_Hotel_Gabelbach_Hover_HoheSchlaufe.waypoints,missions\\\\Szenario_WB_Hotel_Gabelbach_Hover_Kickelhahn.waypoints,missions\\\\Szenario_WB_Hotel_Gabelbach_Hover_Gabelbachskopf.waypoints,missions\\\\Szenario_WB_Hotel_Gabelbach_Hover_Dachskopf.waypoints\""
param *.uav[0].startX 3537m
param *.uav[0].startY 965m
param *.uav[0].startZ 539m
param *.uav[1].startX 312m
param *.uav[1].startY 1262m
param *.uav[1].startZ 540m
param *.uav[2].startX 2185m
param *.uav[2].startY 3026m
param *.uav[2].startZ 778m
param *.uav[3].startX 3537m
param *.uav[3].startY 965m
param *.uav[3].startZ 539m
param *.uav[4].startX 312m
param *.uav[4].startY 1262m
param *.uav[4].startZ 540m
param *.uav[5].startX 2185m
param *.uav[5].startY 3026m
param *.uav[5].startZ 778m
param *.uav[6].startX 3537m
param *.uav[6].startY 965m
param *.uav[6].startZ 539m
param *.uav[7].startX 312m
param *.uav[7].startY 1262m
param *.uav[7].startZ 540m
param *.uav[8].startX 2185m
param *.uav[8].startY 3026m
param *.uav[8].startZ 778m
param *.uav[9].startX 3537m
param *.uav[9].startY 965m
param *.uav[9].startZ 539m
param *.uav[10].startX 3537m
param *.uav[10].startY 965m
param *.uav[10].startZ 539m
param *.uav[11].startX 312m
param *.uav[11].startY 1262m
param *.uav[11].startZ 540m
param *.uav[12].startX 2185m
param *.uav[12].startY 3026m
param *.uav[12].startZ 778m
param *.uav[13].startX 3537m
param *.uav[13].startY 965m
param *.uav[13].startZ 539m
param *.uav[14].startX 312m
param *.uav[14].startY 1262m
param *.uav[14].startZ 540m
param *.uav[15].startX 2185m
param *.uav[15].startY 3026m
param *.uav[15].startZ 778m
param *.uav[16].startX 3537m
param *.uav[16].startY 965m
param *.uav[16].startZ 539m
param *.uav[17].startX 312m
param *.uav[17].startY 1262m
param *.uav[17].startZ 540m
param *.uav[18].startX 2185m
param *.uav[18].startY 3026m
param *.uav[18].startZ 778m
param *.uav[19].startX 3537m
param *.uav[19].startY 965m
param *.uav[19].startZ 539m
param *.uav[20].startX 3537m
param *.uav[20].startY 965m
param *.uav[20].startZ 539m
param *.uav[21].startX 312m
param *.uav[21].startY 1262m
param *.uav[21].startZ 540m
param *.uav[22].startX 2185m
param *.uav[22].startY 3026m
param *.uav[22].startZ 778m
param *.uav[23].startX 3537m
param *.uav[23].startY 965m
param *.uav[23].startZ 539m
param *.uav[24].startX 312m
param *.uav[24].startY 1262m
param *.uav[24].startZ 540m
param *.uav[25].startX 2185m
param *.uav[25].startY 3026m
param *.uav[25].startZ 778m
param *.uav[26].startX 3537m
param *.uav[26].startY 965m
param *.uav[26].startZ 539m
param *.uav[27].startX 312m
param *.uav[27].startY 1262m
param *.uav[27].startZ 540m
param *.uav[28].startX 2185m
param *.uav[28].startY 3026m
param *.uav[28].startZ 778m
param *.uav[29].startX 3537m
param *.uav[29].startY 965m
param *.uav[29].startZ 539m
param *.uav[30].startX 3537m
param *.uav[30].startY 965m
param *.uav[30].startZ 539m
param *.uav[31].startX 312m
param *.uav[31].startY 1262m
param *.uav[31].startZ 540m
param *.uav[32].startX 2185m
param *.uav[32].startY 3026m
param *.uav[32].startZ 778m
param *.uav[33].startX 3537m
param *.uav[33].startY 965m
param *.uav[33].startZ 539m
param *.uav[34].startX 312m
param *.uav[34].startY 1262m
param *.uav[34].startZ 540m
param *.uav[35].startX 2185m
param *.uav[35].startY 3026m
param *.uav[35].startZ 778m
param *.uav[36].startX 3537m
param *.uav[36].startY 965m
param *.uav[36].startZ 539m
param *.uav[37].startX 312m
param *.uav[37].startY 1262m
param *.uav[37].startZ 540m
param *.uav[38].startX 2185m
param *.uav[38].startY 3026m
param *.uav[38].startZ 778m
param *.uav[39].startX 3537m
param *.uav[39].startY 965m
param *.uav[39].startZ 539m
param *.uav[40].startX 3537m
param *.uav[40].startY 965m
param *.uav[40].startZ 539m
param *.uav[41].startX 312m
param *.uav[41].startY 1262m
param *.uav[41].startZ 540m
param *.uav[42].startX 2185m
param *.uav[42].startY 3026m
param *.uav[42].startZ 778m
param *.uav[43].startX 3537m
param *.uav[43].startY 965m
param *.uav[43].startZ 539m
param *.uav[44].startX 312m
param *.uav[44].startY 1262m
param *.uav[44].startZ 540m
param *.uav[45].startX 2185m
param *.uav[45].startY 3026m
param *.uav[45].startZ 778m
param *.uav[46].startX 3537m
param *.uav[46].startY 965m
param *.uav[46].startZ 539m
param *.uav[47].startX 312m
param *.uav[47].startY 1262m
param *.uav[47].startZ 540m
param *.uav[48].startX 2185m
param *.uav[48].startY 3026m
param *.uav[48].startZ 778m
param *.uav[49].startX 3537m
param *.uav[49].startY 965m
param *.uav[49].startZ 539m
param *.uav[50].startX 3537m
param *.uav[50].startY 965m
param *.uav[50].startZ 539m
param *.uav[51].startX 312m
param *.uav[51].startY 1262m
param *.uav[51].startZ 540m
param *.uav[52].startX 2185m
param *.uav[52].startY 3026m
param *.uav[52].startZ 778m
param *.uav[53].startX 3537m
param *.uav[53].startY 965m
param *.uav[53].startZ 539m
param *.uav[54].startX 312m
param *.uav[54].startY 1262m
param *.uav[54].startZ 540m
param *.uav[55].startX 2185m
param *.uav[55].startY 3026m
param *.uav[55].startZ 778m
param *.uav[56].startX 3537m
param *.uav[56].startY 965m
param *.uav[56].startZ 539m
param *.uav[57].startX 312m
param *.uav[57].startY 1262m
param *.uav[57].startZ 540m
param *.uav[58].startX 2185m
param *.uav[58].startY 3026m
param *.uav[58].startZ 778m
param *.uav[59].startX 3537m
param *.uav[59].startY 965m
param *.uav[59].startZ 539m
param *.uav[60].startX 3537m
param *.uav[60].startY 965m
param *.uav[60].startZ 539m
param *.uav[61].startX 312m
param *.uav[61].startY 1262m
param *.uav[61].startZ 540m
param *.uav[62].startX 2185m
param *.uav[62].startY 3026m
param *.uav[62].startZ 778m
param *.uav[63].startX 3537m
param *.uav[63].startY 965m
param *.uav[63].startZ 539m
param *.uav[64].startX 312m
param *.uav[64].startY 1262m
param *.uav[64].startZ 540m
param *.uav[65].startX 2185m
param *.uav[65].startY 3026m
param *.uav[65].startZ 778m
param *.uav[66].startX 3537m
param *.uav[66].startY 965m
param *.uav[66].startZ 539m
param *.uav[67].startX 312m
param *.uav[67].startY 1262m
param *.uav[67].startZ 540m
param *.uav[68].startX 2185m
param *.uav[68].startY 3026m
param *.uav[68].startZ 778m
param *.uav[69].startX 3537m
param *.uav[69].startY 965m
param *.uav[69].startZ 539m
param *.uav[70].startX 3537m
param *.uav[70].startY 965m
param *.uav[70].startZ 539m
param *.uav[71].startX 312m
param *.uav[71].startY 1262m
param *.uav[71].startZ 540m
param *.uav[72].startX 2185m
param *.uav[72].startY 3026m
param *.uav[72].startZ 778m
param *.uav[73].startX 3537m
param *.uav[73].startY 965m
param *.uav[73].startZ 539m
param *.uav[74].startX 312m
param *.uav[74].startY 1262m
param *.uav[74].startZ 540m
param *.uav[75].startX 2185m
param *.uav[75].startY 3026m
param *.uav[75].startZ 778m
param *.uav[76].startX 3537m
param *.uav[76].startY 965m
param *.uav[76].startZ 539m
param *.uav[77].startX 312m
param *.uav[77].startY 1262m
param *.uav[77].startZ 540m
param *.uav[78].startX 2185m
param *.uav[78].startY 3026m
param *.uav[78].startZ 778m
param *.uav[79].startX 3537m
param *.uav[79].startY 965m
param *.uav[79].startZ 539m
param *.uav[80].startX 3537m
param *.uav[80].startY 965m
param *.uav[80].startZ 539m
param *.uav[81].startX 312m
param *.uav[81].startY 1262m
param *.uav[81].startZ 540m
param *.uav[82].startX 2185m
param *.uav[82].startY 3026m
param *.uav[82].startZ 778m
param *.uav[83].startX 3537m
param *.uav[83].startY 965m
param *.uav[83].startZ 539m
param *.uav[84].startX 312m
param *.uav[84].startY 1262m
param *.uav[84].startZ 540m
param *.uav[85].startX 2185m
param *.uav[85].startY 3026m
param *.uav[85].startZ 778m
param *.uav[86].startX 3537m
param *.uav[86].startY 965m
param *.uav[86].startZ 539m
param *.uav[87].startX 312m
param *.uav[87].startY 1262m
param *.uav[87].startZ 540m
param *.uav[88].startX 2185m
param *.uav[88].startY 3026m
param *.uav[88].startZ 778m
param *.uav[89].startX 3537m
param *.uav[89].startY 965m
param *.uav[89].startZ 539m
param *.uav[90].startX 3537m
param *.uav[90].startY 965m
param *.uav[90].startZ 539m
param *.uav[91].startX 312m
param *.uav[91].startY 1262m
param *.uav[91].startZ 540m
param *.uav[92].startX 2185m
param *.uav[92].startY 3026m
param *.uav[92].startZ 778m
param *.uav[93].startX 3537m
param *.uav[93].startY 965m
param *.uav[93].startZ 539m
param *.uav[94].startX 312m
param *.uav[94].startY 1262m
param *.uav[94].startZ 540m
param *.uav[95].startX 2185m
param *.uav[95].startY 3026m
param *.uav[95].startZ 778m
param *.uav[96].startX 3537m
param *.uav[96].startY 965m
param *.uav[96].startZ 539m
param *.uav[97].startX 312m
param *.uav[97].startY 1262m
param *.uav[97].startZ 540m
param *.uav[98].startX 2185m
param *.uav[98].startY 3026m
param *.uav[98].startZ 778m
param *.uav[99].startX 3537m
param *.uav[99].startY 965m
param *.uav[99].startZ 539m
param *.osgEarthScene.scene "\"boston.earth\""
param *.playgroundLatitude 42.3558
param *.playgroundLongitude -71.0677
param *.playgroundWidth 400m
param *.playgroundHeight 200m
param *.channelController.connectionColor "\"#0000FF40\""
param *.channelController.showConnections false
param *.uav[*].modelURL "\"quadrocopter.small.obj.15.scale.0,0,90.rot\""
param *.uav[*].labelColor "\"#FF7C00CC\""
param *.uav[*].label2Color "\"#FF7C00EE\""
param *.uav[*].batteryCapacity 5200mAh
param *.uav[*].batteryRemaining uav[index].batteryCapacity
param *.uav[*].predictionQuantile 0.95
param *.uav[*].replacementMethod 2
param *.uav[*].weightedSumWeight 0.5
param *.cs[*].modelURL "\"chargingstation_v1.osgt.2.scale.0,0,0.rot.0,0,-15e-1.trans\""
param *.cs[*].spotsWaiting 999
param *.cs[*].spotsCharging 999
param *.cs[*].chargeEffectivenessPercentage 100
param *.cs[*].nonLinearPhaseStartPercentage 85
param *.cs[*].chargeCurrent 6.0A
param *.cs[*].prioritizeFastCharge true
param *.missionControl.replacementSearchMethod 0
param *.*.timeStep 9s

scalar OsgEarthNet.uav[0] utilizationSecMission 9683.7509154817
scalar OsgEarthNet.uav[0] utilizationSecMaintenance 6342.6868576972
scalar OsgEarthNet.uav[0] utilizationSecCharge 57394.244113332
scalar OsgEarthNet.uav[0] utilizationSecIdle 185779.31711349
scalar OsgEarthNet.uav[0] utilizationEnergyMission 46547.615329742
scalar OsgEarthNet.uav[0] utilizationEnergyMaintenance 29984.775096893
scalar OsgEarthNet.uav[0] utilizationEnergyCharge 74471.878662109
scalar OsgEarthNet.uav[0] utilizationEnergyOverdrawMission 0
scalar OsgEarthNet.uav[0] utilizationEnergyOverdrawMaintenance 0
scalar OsgEarthNet.uav[0] utilizationCountMissions 17
scalar OsgEarthNet.uav[0] utilizationCountManeuversMission 328
scalar OsgEarthNet.uav[0] utilizationCountManeuversMaintenance 34
scalar OsgEarthNet.uav[0] utilizationCountChargeState 17
scalar OsgEarthNet.uav[0] utilizationCountOverdrawnAfterMission 0
scalar OsgEarthNet.uav[0] utilizationCountIdleState 16
scalar OsgEarthNet.uav[0] utilizationFail 0
scalar OsgEarthNet.uav[0] simulationTime 259200
scalar OsgEarthNet.uav[1] utilizationSecMission 7953.1658859212
scalar OsgEarthNet.uav[1] utilizationSecMaintenance 4389.9622614079
scalar OsgEarthNet.uav[1] utilizationSecCharge 45810
scalar OsgEarthNet.uav[1] utilizationSecIdle 201046.87085267
scalar OsgEarthNet.uav[1] utilizationEnergyMission 39366.175762176
scalar OsgEarthNet.uav[1] utilizationEnergyMaintenance 20309.174232483
scalar OsgEarthNet.uav[1] utilizationEnergyCharge 59172.929199219
scalar OsgEarthNet.uav[1] utilizationEnergyOverdrawMission 0
scalar OsgEarthNet.uav[1] utilizationEnergyOverdrawMaintenance 0
scalar OsgEarthNet.uav[1] utilizationCountMissions 13
scalar OsgEarthNet.uav[1] utilizationCountManeuversMission 280
scalar OsgEarthNet.uav[1] utilizationCountManeuversMaintenance 26
scalar OsgEarthNet.uav[1] utilizationCountChargeState 13
scalar OsgEarthNet.uav[1] utilizationCountOverdrawnAfterMission 0
scalar OsgEarthNet.uav[1] utilizationCountIdleState 13
scalar OsgEarthNet.uav[1] utilizationFail 0
scalar OsgEarthNet.uav[1] simulationTime 259200
scalar OsgEarthNet.uav[2] utilizationSecMission 22448.779708236
scalar OsgEarthNet.uav[2] utilizationSecMaintenance 10453.585920953
scalar OsgEarthNet.uav[2] utilizationSecCharge 120490
scalar OsgEarthNet.uav[2] utilizationSecIdle 105807.63337081
scalar OsgEarthNet.uav[2] utilizationEnergyMission 108502.2650032
scalar OsgEarthNet.uav[2] utilizationEnergyMaintenance 48114.089103699
scalar OsgEarthNet.uav[2] utilizationEnergyCharge 156149.66552734
scalar OsgEarthNet.uav[2] utilizationEnergyOverdrawMission 0
scalar OsgEarthNet.uav[2] utilizationEnergyOverdrawMaintenance 0
scalar OsgEarthNet.uav[2] utilizationCountMissions 34
scalar OsgEarthNet.uav[2] utilizationCountManeuversMission 639
scalar OsgEarthNet.uav[2] utilizationCountManeuversMaintenance 68
scalar OsgEarthNet.uav[2] utilizationCountChargeState 34
scalar OsgEarthNet.uav[2] utilizationCountOverdrawnAfterMission 0
scalar OsgEarthNet.uav[2] utilizationCountIdleState 34
scalar OsgEarthNet.uav[2] utilizationFail 0
scalar OsgEarthNet.uav[2] simulationTime 259200
scalar OsgEarthNet.uav[3] utilizationSecMission 15495.368334472
scalar OsgEarthNet.uav[3] utilizationSecMaintenance 10534.771240454
scalar OsgEarthNet.uav[3] utilizationSecCharge 98437.858425074
scalar OsgEarthNet.uav[3] utilizationSecIdle 134732.001
scalar OsgEarthNet.uav[3] utilizationEnergyMission 74013.83624649
scalar OsgEarthNet.uav[3] utilizationEnergyMaintenance 49508.636581421
scalar OsgEarthNet.uav[3] utilizationEnergyCharge 126984.79736328
scalar OsgEarthNet.uav[3] utilizationEnergyOverdrawMission 0
scalar OsgEarthNet.uav[3] utilizationEnergyOverdrawMaintenance 0
scalar OsgEarthNet.uav[3] utilizationCountMissions 28
scalar OsgEarthNet.uav[3] utilizationCountManeuversMission 545
scalar OsgEarthNet.uav[3] utilizationCountManeuversMaintenance 56
scalar OsgEarthNet.uav[3] utilizationCountChargeState 28
scalar OsgEarthNet.uav[3] utilizationCountOverdrawnAfterMission 0
scalar OsgEarthNet.uav[3] utilizationCountIdleState 26
scalar OsgEarthNet.uav[3] utilizationFail 0
scalar OsgEarthNet.uav[3] simulationTime 259200
scalar OsgEarthNet.uav[4] utilizationSecMission 15057.177505325
scalar OsgEarthNet.uav[4] utilizationSecMaintenance 9775.00571112
scalar OsgEarthNet.uav[4] utilizationSecCharge 87691.389522331
scalar OsgEarthNet.uav[4] utilizationSecIdle 146676.42626122
scalar OsgEarthNet.uav[4] utilizationEnergyMission 74725.159481049
scalar OsgEarthNet.uav[4] utilizationEnergyMaintenance 46329.767936707
scalar OsgEarthNet.uav[4] utilizationEnergyCharge 114853.80541992
scalar OsgEarthNet.uav[4] utilizationEnergyOverdrawMission 0
scalar OsgEarthNet.uav[4] utilizationEnergyOverdrawMaintenance 0
scalar OsgEarthNet.uav[4] utilizationCountMissions 26
scalar OsgEarthNet.uav[4] utilizationCountManeuversMission 557
scalar OsgEarthNet.uav[4] utilizationCountManeuversMaintenance 52
scalar OsgEarthNet.uav[4] utilizationCountChargeState 26
scalar OsgEarthNet.uav[4] utilizationCountOverdrawnAfterMission 0
scalar OsgEarthNet.uav[4] utilizationCountIdleState 22
scalar OsgEarthNet.uav[4] utilizationFail 0
scalar OsgEarthNet.uav[4] simulationTime 259200
scalar OsgEarthNet.uav[5] utilizationSecMission 17402.742216304
scalar OsgEarthNet.uav[5] utilizationSecMaintenance 7898.6699514226
scalar OsgEarthNet.uav[5] utilizationSecCharge 89697.878775184
scalar OsgEarthNet.uav[5] utilizationSecIdle 144200.70805709
scalar OsgEarthNet.uav[5] utilizationEnergyMission 85217.973072052
scalar OsgEarthNet.uav[5] utilizationEnergyMaintenance 36301.624992371
scalar OsgEarthNet.uav[5] utilizationEnergyCharge 116325.67785645
scalar OsgEarthNet.uav[5] utilizationEnergyOverdrawMission 0
scalar OsgEarthNet.uav[5] utilizationEnergyOverdrawMaintenance 0
scalar OsgEarthNet.uav[5] utilizationCountMissions 26
scalar OsgEarthNet.uav[5] utilizationCountManeuversMission 529
scalar OsgEarthNet.uav[5] utilizationCountManeuversMaintenance 52
scalar OsgEarthNet.uav[5] utilizationCountChargeState 26
scalar OsgEarthNet.uav[5] utilizationCountOverdrawnAfterMission 0
scalar OsgEarthNet.uav[5] utilizationCountIdleState 25
scalar OsgEarthNet.uav[5] utilizationFail 0
scalar OsgEarthNet.uav[5] simulationTime 259200
scalar OsgEarthNet.uav[6] utilizationSecMission 13864.376068062
scalar OsgEarthNet.uav[6] utilizationSecMaintenance 9745.6796632378
scalar OsgEarthNet.uav[6] utilizationSecCharge 88040
scalar OsgEarthNet.uav[6] utilizationSecIdle 147549.9432687
scalar OsgEarthNet.uav[6] utilizationEnergyMission 68390.155696869
scalar OsgEarthNet.uav[6] utilizationEnergyMaintenance 45921.758221306
scalar OsgEarthNet.uav[6] utilizationEnergyCharge 113285.24902344
scalar OsgEarthNet.uav[6] utilizationEnergyOverdrawMission 0
scalar OsgEarthNet.uav[6] utilizationEnergyOverdrawMaintenance 0
scalar OsgEarthNet.uav[6] utilizationCountMissions 25
scalar OsgEarthNet.uav[6] utilizationCountManeuversMission 511
scalar OsgEarthNet.uav[6] utilizationCountManeuversMaintenance 51
scalar OsgEarthNet.uav[6] utilizationCountChargeState 25
scalar OsgEarthNet.uav[6] utilizationCountOverdrawnAfterMission 0
scalar OsgEarthNet.uav[6] utilizationCountIdleState 26
scalar OsgEarthNet.uav[6] utilizationFail 0
scalar OsgEarthNet.uav[6] simulationTime 259200
scalar OsgEarthNet.uav[7] utilizationSecMission 17840.526057725
scalar OsgEarthNet.uav[7] utilizationSecMaintenance 10583.047681051
scalar OsgEarthNet.uav[7] utilizationSecCharge 100860
scalar OsgEarthNet.uav[7] utilizationSecIdle 129916.42526122
scalar OsgEarthNet.uav[7] utilizationEnergyMission 86911.72288912
scalar OsgEarthNet.uav[7] utilizationEnergyMaintenance 49973.938747406
scalar OsgEarthNet.uav[7] utilizationEnergyCharge 133420.38134766
scalar OsgEarthNet.uav[7] utilizationEnergyOverdrawMission 0
scalar OsgEarthNet.uav[7] utilizationEnergyOverdrawMaintenance 0
scalar OsgEarthNet.uav[7] utilizationCountMissions 29
scalar OsgEarthNet.uav[7] utilizationCountManeuversMission 547
scalar OsgEarthNet.uav[7] utilizationCountManeuversMaintenance 59
scalar OsgEarthNet.uav[7] utilizationCountChargeState 29
scalar OsgEarthNet.uav[7] utilizationCountOverdrawnAfterMission 0
scalar OsgEarthNet.uav[7] utilizationCountIdleState 20
scalar OsgEarthNet.uav[7] utilizationFail 0
scalar OsgEarthNet.uav[7] simulationTime 259200
scalar OsgEarthNet.uav[8] utilizationSecMission 21580.296905736
scalar OsgEarthNet.uav[8] utilizationSecMaintenance 11787.393108089
scalar OsgEarthNet.uav[8] utilizationSecCharge 121497.59823426
scalar OsgEarthNet.uav[8] utilizationSecIdle 104334.71075191
scalar OsgEarthNet.uav[8] utilizationEnergyMission 106413.33957291
scalar OsgEarthNet.uav[8] utilizationEnergyMaintenance 56045.607852936
scalar OsgEarthNet.uav[8] utilizationEnergyCharge 160865.21704102
scalar OsgEarthNet.uav[8] utilizationEnergyOverdrawMission 0
scalar OsgEarthNet.uav[8] utilizationEnergyOverdrawMaintenance 0
scalar OsgEarthNet.uav[8] utilizationCountMissions 35
scalar OsgEarthNet.uav[8] utilizationCountManeuversMission 707
scalar OsgEarthNet.uav[8] utilizationCountManeuversMaintenance 70
scalar OsgEarthNet.uav[8] utilizationCountChargeState 35
scalar OsgEarthNet.uav[8] utilizationCountOverdrawnAfterMission 0
scalar OsgEarthNet.uav[8] utilizationCountIdleState 26
scalar OsgEarthNet.uav[8] utilizationFail 0
scalar OsgEarthNet.uav[8] simulationTime 259200
scalar OsgEarthNet.uav[9] utilizationSecMission 15021.177145375
scalar OsgEarthNet.uav[9] utilizationSecMaintenance 8376.8148546249
scalar OsgEarthNet.uav[9] utilizationSecCharge 84850
scalar OsgEarthNet.uav[9] utilizationSecIdle 150952.007
scalar OsgEarthNet.uav[9] utilizationEnergyMission 71858.646850343
scalar OsgEarthNet.uav[9] utilizationEnergyMaintenance 40093.518218994
scalar OsgEarthNet.uav[9] utilizationEnergyCharge 109254.62646484
scalar OsgEarthNet.uav[9] utilizationEnergyOverdrawMission 0
scalar OsgEarthNet.uav[9] utilizationEnergyOverdrawMaintenance 0
scalar OsgEarthNet.uav[9] utilizationCountMissions 24
scalar OsgEarthNet.uav[9] utilizationCountManeuversMission 439
scalar OsgEarthNet.uav[9] utilizationCountManeuversMaintenance 49
scalar OsgEarthNet.uav[9] utilizationCountChargeState 24
scalar OsgEarthNet.uav[9] utilizationCountOverdrawnAfterMission 0
scalar OsgEarthNet.uav[9] utilizationCountIdleState 25
scalar OsgEarthNet.uav[9] utilizationFail 0
scalar OsgEarthNet.uav[9] simulationTime 259200
scalar OsgEarthNet.uav[10] utilizationSecMission 16460.74909305
scalar OsgEarthNet.uav[10] utilizationSecMaintenance 11848.004524639
scalar OsgEarthNet.uav[10] utilizationSecCharge 102279.22338231
scalar OsgEarthNet.uav[10] utilizationSecIdle 128612.022
scalar OsgEarthNet.uav[10] utilizationEnergyMission 80101.168071747
scalar OsgEarthNet.uav[10] utilizationEnergyMaintenance 56776.023017883
scalar OsgEarthNet.uav[10] utilizationEnergyCharge 133819.07568359
scalar OsgEarthNet.uav[10] utilizationEnergyOverdrawMission 0
scalar OsgEarthNet.uav[10] utilizationEnergyOverdrawMaintenance 0
scalar OsgEarthNet.uav[10] utilizationCountMissions 30
scalar OsgEarthNet.uav[10] utilizationCountManeuversMission 581
scalar OsgEarthNet.uav[10] utilizationCountManeuversMaintenance 60
scalar OsgEarthNet.uav[10] utilizationCountChargeState 30
scalar OsgEarthNet.uav[10] utilizationCountOverdrawnAfterMission 0
scalar OsgEarthNet.uav[10] utilizationCountIdleState 23
scalar OsgEarthNet.uav[10] utilizationFail 0
scalar OsgEarthNet.uav[10] simulationTime 259200
scalar OsgEarthNet.uav[11] utilizationSecMission 10512.022113143
scalar OsgEarthNet.uav[11] utilizationSecMaintenance 6881.554625634
scalar OsgEarthNet.uav[11] utilizationSecCharge 63230
scalar OsgEarthNet.uav[11] utilizationSecIdle 178576.42226122
scalar OsgEarthNet.uav[11] utilizationEnergyMission 51210.36044477
scalar OsgEarthNet.uav[11] utilizationEnergyMaintenance 32133.961906433
scalar OsgEarthNet.uav[11] utilizationEnergyCharge 81820.964355469
scalar OsgEarthNet.uav[11] utilizationEnergyOverdrawMission 0
scalar OsgEarthNet.uav[11] utilizationEnergyOverdrawMaintenance 0
scalar OsgEarthNet.uav[11] utilizationCountMissions 18
scalar OsgEarthNet.uav[11] utilizationCountManeuversMission 322
scalar OsgEarthNet.uav[11] utilizationCountManeuversMaintenance 37
scalar OsgEarthNet.uav[11] utilizationCountChargeState 18
scalar OsgEarthNet.uav[11] utilizationCountOverdrawnAfterMission 0
scalar OsgEarthNet.uav[11] utilizationCountIdleState 18
scalar OsgEarthNet.uav[11] utilizationFail 0
scalar OsgEarthNet.uav[11] simulationTime 259200
scalar OsgEarthNet.uav[12] utilizationSecMission 16158.694142667
scalar OsgEarthNet.uav[12] utilizationSecMaintenance 7591.4680432933
scalar OsgEarthNet.uav[12] utilizationSecCharge 85880
scalar OsgEarthNet.uav[12] utilizationSecIdle 149569.83681404
scalar OsgEarthNet.uav[12] utilizationEnergyMission 78900.678894043
scalar OsgEarthNet.uav[12] utilizationEnergyMaintenance 34416.944959406
scalar OsgEarthNet.uav[12] utilizationEnergyCharge 111983.49365234
scalar OsgEarthNet.uav[12] utilizationEnergyOverdrawMission 0
scalar OsgEarthNet.uav[12] utilizationEnergyOverdrawMaintenance 0
scalar OsgEarthNet.uav[12] utilizationCountMissions 24
scalar OsgEarthNet.uav[12] utilizationCountManeuversMission 453
scalar OsgEarthNet.uav[12] utilizationCountManeuversMaintenance 49
scalar OsgEarthNet.uav[12] utilizationCountChargeState 24
scalar OsgEarthNet.uav[12] utilizationCountOverdrawnAfterMission 0
scalar OsgEarthNet.uav[12] utilizationCountIdleState 22
scalar OsgEarthNet.uav[12] utilizationFail 0
scalar OsgEarthNet.uav[12] simulationTime 259200
scalar OsgEarthNet.uav[13] utilizationSecMission 15916.322145232
scalar OsgEarthNet.uav[13] utilizationSecMaintenance 9695.3233153425
scalar OsgEarthNet.uav[13] utilizationSecCharge 92227.784115514
scalar OsgEarthNet.uav[13] utilizationSecIdle 141360.56942391
scalar OsgEarthNet.uav[13] utilizationEnergyMission 77468.684501648
scalar OsgEarthNet.uav[13] utilizationEnergyMaintenance 45948.719638824
scalar OsgEarthNet.uav[13] utilizationEnergyCharge 120055.63110352
scalar OsgEarthNet.uav[13] utilizationEnergyOverdrawMission 0
scalar OsgEarthNet.uav[13] utilizationEnergyOverdrawMaintenance 0
scalar OsgEarthNet.uav[13] utilizationCountMissions 27
scalar OsgEarthNet.uav[13] utilizationCountManeuversMission 506
scalar OsgEarthNet.uav[13] utilizationCountManeuversMaintenance 54
scalar OsgEarthNet.uav[13] utilizationCountChargeState 27
scalar OsgEarthNet.uav[13] utilizationCountOverdrawnAfterMission 0
scalar OsgEarthNet.uav[13] utilizationCountIdleState 24
scalar OsgEarthNet.uav[13] utilizationFail 0
scalar OsgEarthNet.uav[13] simulationTime 259200
scalar OsgEarthNet.uav[14] utilizationSecMission 24350.482409353
scalar OsgEarthNet.uav[14] utilizationSecMaintenance 10687.005546248
scalar OsgEarthNet.uav[14] utilizationSecCharge 128519.78952173
scalar OsgEarthNet.uav[14] utilizationSecIdle 95642.721522673
scalar OsgEarthNet.uav[14] utilizationEnergyMission 115541.73766708
scalar OsgEarthNet.uav[14] utilizationEnergyMaintenance 49549.196804047
scalar OsgEarthNet.uav[14] utilizationEnergyCharge 166857.55517578
scalar OsgEarthNet.uav[14] utilizationEnergyOverdrawMission 0
scalar OsgEarthNet.uav[14] utilizationEnergyOverdrawMaintenance 0
scalar OsgEarthNet.uav[14] utilizationCountMissions 36
scalar OsgEarthNet.uav[14] utilizationCountManeuversMission 736
scalar OsgEarthNet.uav[14] utilizationCountManeuversMaintenance 72
scalar OsgEarthNet.uav[14] utilizationCountChargeState 36
scalar OsgEarthNet.uav[14] utilizationCountOverdrawnAfterMission 0
scalar OsgEarthNet.uav[14] utilizationCountIdleState 36
scalar OsgEarthNet.uav[14] utilizationFail 0
scalar OsgEarthNet.uav[14] simulationTime 259200
scalar OsgEarthNet.uav[15] utilizationSecMission 24224.202387922
scalar OsgEarthNet.uav[15] utilizationSecMaintenance 9857.6910448903
scalar OsgEarthNet.uav[15] utilizationSecCharge 125430
scalar OsgEarthNet.uav[15] utilizationSecIdle 99688.105567187
scalar OsgEarthNet.uav[15] utilizationEnergyMission 117520.32741165
scalar OsgEarthNet.uav[15] utilizationEnergyMaintenance 45280.53767395
scalar OsgEarthNet.uav[15] utilizationEnergyCharge 162615.30078125
scalar OsgEarthNet.uav[15] utilizationEnergyOverdrawMission 0
scalar OsgEarthNet.uav[15] utilizationEnergyOverdrawMaintenance 0
scalar OsgEarthNet.uav[15] utilizationCountMissions 35
scalar OsgEarthNet.uav[15] utilizationCountManeuversMission 727
scalar OsgEarthNet.uav[15] utilizationCountManeuversMaintenance 70
scalar OsgEarthNet.uav[15] utilizationCountChargeState 35
scalar OsgEarthNet.uav[15] utilizationCountOverdrawnAfterMission 0
scalar OsgEarthNet.uav[15] utilizationCountIdleState 35
scalar OsgEarthNet.uav[15] utilizationFail 0
scalar OsgEarthNet.uav[15] simulationTime 259200
scalar OsgEarthNet.uav[16] utilizationSecMission 21446.872054186
scalar OsgEarthNet.uav[16] utilizationSecMaintenance 12891.086667868
scalar OsgEarthNet.uav[16] utilizationSecCharge 126110.04027795
scalar OsgEarthNet.uav[16] utilizationSecIdle 98752
scalar OsgEarthNet.uav[16] utilizationEnergyMission 103598.27754211
scalar OsgEarthNet.uav[16] utilizationEnergyMaintenance 61116.829940796
scalar OsgEarthNet.uav[16] utilizationEnergyCharge 163449.98681641
scalar OsgEarthNet.uav[16] utilizationEnergyOverdrawMission 0
scalar OsgEarthNet.uav[16] utilizationEnergyOverdrawMaintenance 0
scalar OsgEarthNet.uav[16] utilizationCountMissions 36
scalar OsgEarthNet.uav[16] utilizationCountManeuversMission 670
scalar OsgEarthNet.uav[16] utilizationCountManeuversMaintenance 71
scalar OsgEarthNet.uav[16] utilizationCountChargeState 36
scalar OsgEarthNet.uav[16] utilizationCountOverdrawnAfterMission 0
scalar OsgEarthNet.uav[16] utilizationCountIdleState 36
scalar OsgEarthNet.uav[16] utilizationFail 0
scalar OsgEarthNet.uav[16] simulationTime 259200
scalar OsgEarthNet.uav[17] utilizationSecMission 22995.923934234
scalar OsgEarthNet.uav[17] utilizationSecMaintenance 10923.350474205
scalar OsgEarthNet.uav[17] utilizationSecCharge 124510
scalar OsgEarthNet.uav[17] utilizationSecIdle 100770.72459156
scalar OsgEarthNet.uav[17] utilizationEnergyMission 111791.7612381
scalar OsgEarthNet.uav[17] utilizationEnergyMaintenance 50319.33322525
scalar OsgEarthNet.uav[17] utilizationEnergyCharge 160416.4519043
scalar OsgEarthNet.uav[17] utilizationEnergyOverdrawMission 0
scalar OsgEarthNet.uav[17] utilizationEnergyOverdrawMaintenance 0
scalar OsgEarthNet.uav[17] utilizationCountMissions 35
scalar OsgEarthNet.uav[17] utilizationCountManeuversMission 674
scalar OsgEarthNet.uav[17] utilizationCountManeuversMaintenance 70
scalar OsgEarthNet.uav[17] utilizationCountChargeState 35
scalar OsgEarthNet.uav[17] utilizationCountOverdrawnAfterMission 0
scalar OsgEarthNet.uav[17] utilizationCountIdleState 36
scalar OsgEarthNet.uav[17] utilizationFail 0
scalar OsgEarthNet.uav[17] simulationTime 259200
scalar OsgEarthNet.uav[18] utilizationSecMission 25332.74116298
scalar OsgEarthNet.uav[18] utilizationSecMaintenance 12601.72364102
scalar OsgEarthNet.uav[18] utilizationSecCharge 138630
scalar OsgEarthNet.uav[18] utilizationSecIdle 82635.534196
scalar OsgEarthNet.uav[18] utilizationEnergyMission 122628.52132034
scalar OsgEarthNet.uav[18] utilizationEnergyMaintenance 57809.841205597
scalar OsgEarthNet.uav[18] utilizationEnergyCharge 179053.65576172
scalar OsgEarthNet.uav[18] utilizationEnergyOverdrawMission 0
scalar OsgEarthNet.uav[18] utilizationEnergyOverdrawMaintenance 0
scalar OsgEarthNet.uav[18] utilizationCountMissions 39
scalar OsgEarthNet.uav[18] utilizationCountManeuversMission 779
scalar OsgEarthNet.uav[18] utilizationCountManeuversMaintenance 78
scalar OsgEarthNet.uav[18] utilizationCountChargeState 39
scalar OsgEarthNet.uav[18] utilizationCountOverdrawnAfterMission 0
scalar OsgEarthNet.uav[18] utilizationCountIdleState 39
scalar OsgEarthNet.uav[18] utilizationFail 0
scalar OsgEarthNet.uav[18] simulationTime 259200
scalar OsgEarthNet.uav[19] utilizationSecMission 19167.639062602
scalar OsgEarthNet.uav[19] utilizationSecMaintenance 10854.571635539
scalar OsgEarthNet.uav[19] utilizationSecCharge 110645.77730186
scalar OsgEarthNet.uav[19] utilizationSecIdle 118532.011
scalar OsgEarthNet.uav[19] utilizationEnergyMission 91731.438713074
scalar OsgEarthNet.uav[19] utilizationEnergyMaintenance 51268.431060791
scalar OsgEarthNet.uav[19] utilizationEnergyCharge 142542.76831055
scalar OsgEarthNet.uav[19] utilizationEnergyOverdrawMission 0
scalar OsgEarthNet.uav[19] utilizationEnergyOverdrawMaintenance 0
scalar OsgEarthNet.uav[19] utilizationCountMissions 32
scalar OsgEarthNet.uav[19] utilizationCountManeuversMission 573
scalar OsgEarthNet.uav[19] utilizationCountManeuversMaintenance 64
scalar OsgEarthNet.uav[19] utilizationCountChargeState 32
scalar OsgEarthNet.uav[19] utilizationCountOverdrawnAfterMission 0
scalar OsgEarthNet.uav[19] utilizationCountIdleState 32
scalar OsgEarthNet.uav[19] utilizationFail 0
scalar OsgEarthNet.uav[19] simulationTime 259200
scalar OsgEarthNet.uav[20] utilizationSecMission 16415.368334472
scalar OsgEarthNet.uav[20] utilizationSecMaintenance 11517.02207833
scalar OsgEarthNet.uav[20] utilizationSecCharge 102085.78685286
scalar OsgEarthNet.uav[20] utilizationSecIdle 129181.82173433
scalar OsgEarthNet.uav[20] utilizationEnergyMission 80076.30424118
scalar OsgEarthNet.uav[20] utilizationEnergyMaintenance 54969.170448303
scalar OsgEarthNet.uav[20] utilizationEnergyCharge 131632.44525146
scalar OsgEarthNet.uav[20] utilizationEnergyOverdrawMission 0
scalar OsgEarthNet.uav[20] utilizationEnergyOverdrawMaintenance 0
scalar OsgEarthNet.uav[20] utilizationCountMissions 30
scalar OsgEarthNet.uav[20] utilizationCountManeuversMission 591
scalar OsgEarthNet.uav[20] utilizationCountManeuversMaintenance 60
scalar OsgEarthNet.uav[20] utilizationCountChargeState 30
scalar OsgEarthNet.uav[20] utilizationCountOverdrawnAfterMission 0
scalar OsgEarthNet.uav[20] utilizationCountIdleState 29
scalar OsgEarthNet.uav[20] utilizationFail 0
scalar OsgEarthNet.uav[20] simulationTime 259200
scalar OsgEarthNet.uav[21] utilizationSecMission 21682.2598255
scalar OsgEarthNet.uav[21] utilizationSecMaintenance 9217.1037788215
scalar OsgEarthNet.uav[21] utilizationSecCharge 113980.61709123
scalar OsgEarthNet.uav[21] utilizationSecIdle 114320.01830444
scalar OsgEarthNet.uav[21] utilizationEnergyMission 103994.86270142
scalar OsgEarthNet.uav[21] utilizationEnergyMaintenance 42806.958843231
scalar OsgEarthNet.uav[21] utilizationEnergyCharge 148365.79638672
scalar OsgEarthNet.uav[21] utilizationEnergyOverdrawMission 0
scalar OsgEarthNet.uav[21] utilizationEnergyOverdrawMaintenance 0
scalar OsgEarthNet.uav[21] utilizationCountMissions 32
scalar OsgEarthNet.uav[21] utilizationCountManeuversMission 658
scalar OsgEarthNet.uav[21] utilizationCountManeuversMaintenance 64
scalar OsgEarthNet.uav[21] utilizationCountChargeState 32
scalar OsgEarthNet.uav[21] utilizationCountOverdrawnAfterMission 0
scalar OsgEarthNet.uav[21] utilizationCountIdleState 31
scalar OsgEarthNet.uav[21] utilizationFail 0
scalar OsgEarthNet.uav[21] simulationTime 259200
scalar OsgEarthNet.uav[22] utilizationSecMission 32016.316498235
scalar OsgEarthNet.uav[22] utilizationSecMaintenance 15554.507391354
scalar OsgEarthNet.uav[22] utilizationSecCharge 169650
scalar OsgEarthNet.uav[22] utilizationSecIdle 41979.175110411
scalar OsgEarthNet.uav[22] utilizationEnergyMission 154360.61957169
scalar OsgEarthNet.uav[22] utilizationEnergyMaintenance 72980.834841297
scalar OsgEarthNet.uav[22] utilizationEnergyCharge 221036.17724609
scalar OsgEarthNet.uav[22] utilizationEnergyOverdrawMission 0
scalar OsgEarthNet.uav[22] utilizationEnergyOverdrawMaintenance 0
scalar OsgEarthNet.uav[22] utilizationCountMissions 49
scalar OsgEarthNet.uav[22] utilizationCountManeuversMission 957
scalar OsgEarthNet.uav[22] utilizationCountManeuversMaintenance 98
scalar OsgEarthNet.uav[22] utilizationCountChargeState 48
scalar OsgEarthNet.uav[22] utilizationCountOverdrawnAfterMission 0
scalar OsgEarthNet.uav[22] utilizationCountIdleState 41
scalar OsgEarthNet.uav[22] utilizationFail 0
scalar OsgEarthNet.uav[22] simulationTime 259200
scalar OsgEarthNet.uav[23] utilizationSecMission 20612.168511461
scalar OsgEarthNet.uav[23] utilizationSecMaintenance 11911.399653426
scalar OsgEarthNet.uav[23] utilizationSecCharge 119930
scalar OsgEarthNet.uav[23] utilizationSecIdle 106746.43083511
scalar OsgEarthNet.uav[23] utilizationEnergyMission 98951.533340454
scalar OsgEarthNet.uav[23] utilizationEnergyMaintenance 56145.849266052
scalar OsgEarthNet.uav[23] utilizationEnergyCharge 156578.20751953
scalar OsgEarthNet.uav[23] utilizationEnergyOverdrawMission 0
scalar OsgEarthNet.uav[23] utilizationEnergyOverdrawMaintenance 0
scalar OsgEarthNet.uav[23] utilizationCountMissions 34
scalar OsgEarthNet.uav[23] utilizationCountManeuversMission 646
scalar OsgEarthNet.uav[23] utilizationCountManeuversMaintenance 68
scalar OsgEarthNet.uav[23] utilizationCountChargeState 34
scalar OsgEarthNet.uav[23] utilizationCountOverdrawnAfterMission 0
scalar OsgEarthNet.uav[23] utilizationCountIdleState 30
scalar OsgEarthNet.uav[23] utilizationFail 0
scalar OsgEarthNet.uav[23] simulationTime 259200
scalar OsgEarthNet.uav[24] utilizationSecMission 20754.812836343
scalar OsgEarthNet.uav[24] utilizationSecMaintenance 11730.740095747
scalar OsgEarthNet.uav[24] utilizationSecCharge 116748.01180669
scalar OsgEarthNet.uav[24] utilizationSecIdle 109966.43426122
scalar OsgEarthNet.uav[24] utilizationEnergyMission 101467.33628082
scalar OsgEarthNet.uav[24] utilizationEnergyMaintenance 54942.948764801
scalar OsgEarthNet.uav[24] utilizationEnergyCharge 152133.26556396
scalar OsgEarthNet.uav[24] utilizationEnergyOverdrawMission 0
scalar OsgEarthNet.uav[24] utilizationEnergyOverdrawMaintenance 0
scalar OsgEarthNet.uav[24] utilizationCountMissions 34
scalar OsgEarthNet.uav[24] utilizationCountManeuversMission 680
scalar OsgEarthNet.uav[24] utilizationCountManeuversMaintenance 68
scalar OsgEarthNet.uav[24] utilizationCountChargeState 34
scalar OsgEarthNet.uav[24] utilizationCountOverdrawnAfterMission 0
scalar OsgEarthNet.uav[24] utilizationCountIdleState 28
scalar OsgEarthNet.uav[24] utilizationFail 0
scalar OsgEarthNet.uav[24] simulationTime 259200
scalar OsgEarthNet.uav[25] utilizationSecMission 22123.880745276
scalar OsgEarthNet.uav[25] utilizationSecMaintenance 10060.709899007
scalar OsgEarthNet.uav[25] utilizationSecCharge 115763.40435572
scalar OsgEarthNet.uav[25] utilizationSecIdle 111252.004
scalar OsgEarthNet.uav[25] utilizationEnergyMission 106826.89600754
scalar OsgEarthNet.uav[25] utilizationEnergyMaintenance 45956.846752167
scalar OsgEarthNet.uav[25] utilizationEnergyCharge 151127.13623047
scalar OsgEarthNet.uav[25] utilizationEnergyOverdrawMission 0
scalar OsgEarthNet.uav[25] utilizationEnergyOverdrawMaintenance 0
scalar OsgEarthNet.uav[25] utilizationCountMissions 33
scalar OsgEarthNet.uav[25] utilizationCountManeuversMission 634
scalar OsgEarthNet.uav[25] utilizationCountManeuversMaintenance 66
scalar OsgEarthNet.uav[25] utilizationCountChargeState 33
scalar OsgEarthNet.uav[25] utilizationCountOverdrawnAfterMission 0
scalar OsgEarthNet.uav[25] utilizationCountIdleState 32
scalar OsgEarthNet.uav[25] utilizationFail 0
scalar OsgEarthNet.uav[25] simulationTime 259200
scalar OsgEarthNet.uav[26] utilizationSecMission 16266.530625259
scalar OsgEarthNet.uav[26] utilizationSecMaintenance 9422.8786733203
scalar OsgEarthNet.uav[26] utilizationSecCharge 95130
scalar OsgEarthNet.uav[26] utilizationSecIdle 138380.58970142
scalar OsgEarthNet.uav[26] utilizationEnergyMission 77653.748985291
scalar OsgEarthNet.uav[26] utilizationEnergyMaintenance 45453.887821197
scalar OsgEarthNet.uav[26] utilizationEnergyCharge 122237.68701172
scalar OsgEarthNet.uav[26] utilizationEnergyOverdrawMission 0
scalar OsgEarthNet.uav[26] utilizationEnergyOverdrawMaintenance 0
scalar OsgEarthNet.uav[26] utilizationCountMissions 27
scalar OsgEarthNet.uav[26] utilizationCountManeuversMission 456
scalar OsgEarthNet.uav[26] utilizationCountManeuversMaintenance 54
scalar OsgEarthNet.uav[26] utilizationCountChargeState 27
scalar OsgEarthNet.uav[26] utilizationCountOverdrawnAfterMission 0
scalar OsgEarthNet.uav[26] utilizationCountIdleState 28
scalar OsgEarthNet.uav[26] utilizationFail 0
scalar OsgEarthNet.uav[26] simulationTime 259200
scalar OsgEarthNet.uav[27] utilizationSecMission 27871.846317085
scalar OsgEarthNet.uav[27] utilizationSecMaintenance 11891.296334434
scalar OsgEarthNet.uav[27] utilizationSecCharge 144004.85634848
scalar OsgEarthNet.uav[27] utilizationSecIdle 75432
scalar OsgEarthNet.uav[27] utilizationEnergyMission 134443.46022415
scalar OsgEarthNet.uav[27] utilizationEnergyMaintenance 54632.046333313
scalar OsgEarthNet.uav[27] utilizationEnergyCharge 186416.28491211
scalar OsgEarthNet.uav[27] utilizationEnergyOverdrawMission 0
scalar OsgEarthNet.uav[27] utilizationEnergyOverdrawMaintenance 0
scalar OsgEarthNet.uav[27] utilizationCountMissions 41
scalar OsgEarthNet.uav[27] utilizationCountManeuversMission 797
scalar OsgEarthNet.uav[27] utilizationCountManeuversMaintenance 81
scalar OsgEarthNet.uav[27] utilizationCountChargeState 41
scalar OsgEarthNet.uav[27] utilizationCountOverdrawnAfterMission 0
scalar OsgEarthNet.uav[27] utilizationCountIdleState 41
scalar OsgEarthNet.uav[27] utilizationFail 0
scalar OsgEarthNet.uav[27] simulationTime 259200
scalar OsgEarthNet.uav[28] utilizationSecMission 27487.503644518
scalar OsgEarthNet.uav[28] utilizationSecMaintenance 14180.761199389
scalar OsgEarthNet.uav[28] utilizationSecCharge 152810
scalar OsgEarthNet.uav[28] utilizationSecIdle 64721.734156093
scalar OsgEarthNet.uav[28] utilizationEnergyMission 134259.14181519
scalar OsgEarthNet.uav[28] utilizationEnergyMaintenance 66101.095340729
scalar OsgEarthNet.uav[28] utilizationEnergyCharge 199474.71728516
scalar OsgEarthNet.uav[28] utilizationEnergyOverdrawMission 0
scalar OsgEarthNet.uav[28] utilizationEnergyOverdrawMaintenance 0
scalar OsgEarthNet.uav[28] utilizationCountMissions 43
scalar OsgEarthNet.uav[28] utilizationCountManeuversMission 783
scalar OsgEarthNet.uav[28] utilizationCountManeuversMaintenance 86
scalar OsgEarthNet.uav[28] utilizationCountChargeState 43
scalar OsgEarthNet.uav[28] utilizationCountOverdrawnAfterMission 0
scalar OsgEarthNet.uav[28] utilizationCountIdleState 39
scalar OsgEarthNet.uav[28] utilizationFail 0
scalar OsgEarthNet.uav[28] simulationTime 259200
scalar OsgEarthNet.uav[29] utilizationSecMission 16467.501830963
scalar OsgEarthNet.uav[29] utilizationSecMaintenance 9826.3100125251
scalar OsgEarthNet.uav[29] utilizationSecCharge 96414.167156511
scalar OsgEarthNet.uav[29] utilizationSecIdle 136492.02
scalar OsgEarthNet.uav[29] utilizationEnergyMission 78963.927696228
scalar OsgEarthNet.uav[29] utilizationEnergyMaintenance 47141.989730835
scalar OsgEarthNet.uav[29] utilizationEnergyCharge 124543.53833008
scalar OsgEarthNet.uav[29] utilizationEnergyOverdrawMission 0
scalar OsgEarthNet.uav[29] utilizationEnergyOverdrawMaintenance 0
scalar OsgEarthNet.uav[29] utilizationCountMissions 28
scalar OsgEarthNet.uav[29] utilizationCountManeuversMission 511
scalar OsgEarthNet.uav[29] utilizationCountManeuversMaintenance 56
scalar OsgEarthNet.uav[29] utilizationCountChargeState 28
scalar OsgEarthNet.uav[29] utilizationCountOverdrawnAfterMission 0
scalar OsgEarthNet.uav[29] utilizationCountIdleState 28
scalar OsgEarthNet.uav[29] utilizationFail 0
scalar OsgEarthNet.uav[29] simulationTime 259200
scalar OsgEarthNet.uav[30] utilizationSecMission 20153.774910732
scalar OsgEarthNet.uav[30] utilizationSecMaintenance 15038.05235368
scalar OsgEarthNet.uav[30] utilizationSecCharge 131116.15773559
scalar OsgEarthNet.uav[30] utilizationSecIdle 92892.014
scalar OsgEarthNet.uav[30] utilizationEnergyMission 99174.737991333
scalar OsgEarthNet.uav[30] utilizationEnergyMaintenance 71995.957038879
scalar OsgEarthNet.uav[30] utilizationEnergyCharge 170806.97436523
scalar OsgEarthNet.uav[30] utilizationEnergyOverdrawMission 0
scalar OsgEarthNet.uav[30] utilizationEnergyOverdrawMaintenance 0
scalar OsgEarthNet.uav[30] utilizationCountMissions 38
scalar OsgEarthNet.uav[30] utilizationCountManeuversMission 762
scalar OsgEarthNet.uav[30] utilizationCountManeuversMaintenance 76
scalar OsgEarthNet.uav[30] utilizationCountChargeState 38
scalar OsgEarthNet.uav[30] utilizationCountOverdrawnAfterMission 0
scalar OsgEarthNet.uav[30] utilizationCountIdleState 34
scalar OsgEarthNet.uav[30] utilizationFail 0
scalar OsgEarthNet.uav[30] simulationTime 259200
scalar OsgEarthNet.uav[31] utilizationSecMission 25007.067256112
scalar OsgEarthNet.uav[31] utilizationSecMaintenance 13848.482452324
scalar OsgEarthNet.uav[31] utilizationSecCharge 141080.69024784
scalar OsgEarthNet.uav[31] utilizationSecIdle 79263.759043722
scalar OsgEarthNet.uav[31] utilizationEnergyMission 119532.90507889
scalar OsgEarthNet.uav[31] utilizationEnergyMaintenance 64935.312374115
scalar OsgEarthNet.uav[31] utilizationEnergyCharge 183903.19677734
scalar OsgEarthNet.uav[31] utilizationEnergyOverdrawMission 0
scalar OsgEarthNet.uav[31] utilizationEnergyOverdrawMaintenance 0
scalar OsgEarthNet.uav[31] utilizationCountMissions 40
scalar OsgEarthNet.uav[31] utilizationCountManeuversMission 751
scalar OsgEarthNet.uav[31] utilizationCountManeuversMaintenance 80
scalar OsgEarthNet.uav[31] utilizationCountChargeState 40
scalar OsgEarthNet.uav[31] utilizationCountOverdrawnAfterMission 0
scalar OsgEarthNet.uav[31] utilizationCountIdleState 33
scalar OsgEarthNet.uav[31] utilizationFail 0
scalar OsgEarthNet.uav[31] simulationTime 259200
scalar OsgEarthNet.uav[32] utilizationSecMission 27415.462333166
scalar OsgEarthNet.uav[32] utilizationSecMaintenance 11663.188712066
scalar OsgEarthNet.uav[32] utilizationSecCharge 142350
scalar OsgEarthNet.uav[32] utilizationSecIdle 77771.347954768
scalar OsgEarthNet.uav[32] utilizationEnergyMission 132316.80112286
scalar OsgEarthNet.uav[32] utilizationEnergyMaintenance 53891.49250412
scalar OsgEarthNet.uav[32] utilizationEnergyCharge 185096.36962891
scalar OsgEarthNet.uav[32] utilizationEnergyOverdrawMission 0
scalar OsgEarthNet.uav[32] utilizationEnergyOverdrawMaintenance 0
scalar OsgEarthNet.uav[32] utilizationCountMissions 40
scalar OsgEarthNet.uav[32] utilizationCountManeuversMission 831
scalar OsgEarthNet.uav[32] utilizationCountManeuversMaintenance 79
scalar OsgEarthNet.uav[32] utilizationCountChargeState 40
scalar OsgEarthNet.uav[32] utilizationCountOverdrawnAfterMission 0
scalar OsgEarthNet.uav[32] utilizationCountIdleState 38
scalar OsgEarthNet.uav[32] utilizationFail 0
scalar OsgEarthNet.uav[32] simulationTime 259200
scalar OsgEarthNet.uav[33] utilizationSecMission 23351.445076608
scalar OsgEarthNet.uav[33] utilizationSecMaintenance 12093.264830353
scalar OsgEarthNet.uav[33] utilizationSecCharge 124711.58889307
scalar OsgEarthNet.uav[33] utilizationSecIdle 99043.70019997
scalar OsgEarthNet.uav[33] utilizationEnergyMission 109041.25958252
scalar OsgEarthNet.uav[33] utilizationEnergyMaintenance 57483.047653198
scalar OsgEarthNet.uav[33] utilizationEnergyCharge 162548.07104492
scalar OsgEarthNet.uav[33] utilizationEnergyOverdrawMission 0
scalar OsgEarthNet.uav[33] utilizationEnergyOverdrawMaintenance 0
scalar OsgEarthNet.uav[33] utilizationCountMissions 36
scalar OsgEarthNet.uav[33] utilizationCountManeuversMission 573
scalar OsgEarthNet.uav[33] utilizationCountManeuversMaintenance 72
scalar OsgEarthNet.uav[33] utilizationCountChargeState 36
scalar OsgEarthNet.uav[33] utilizationCountOverdrawnAfterMission 0
scalar OsgEarthNet.uav[33] utilizationCountIdleState 30
scalar OsgEarthNet.uav[33] utilizationFail 0
scalar OsgEarthNet.uav[33] simulationTime 259200
scalar OsgEarthNet.uav[34] utilizationSecMission 22892.865144063
scalar OsgEarthNet.uav[34] utilizationSecMaintenance 14097.653384827
scalar OsgEarthNet.uav[34] utilizationSecCharge 136764.86858159
scalar OsgEarthNet.uav[34] utilizationSecIdle 85444.611889516
scalar OsgEarthNet.uav[34] utilizationEnergyMission 112308.08566284
scalar OsgEarthNet.uav[34] utilizationEnergyMaintenance 66120.310287476
scalar OsgEarthNet.uav[34] utilizationEnergyCharge 177241.25097656
scalar OsgEarthNet.uav[34] utilizationEnergyOverdrawMission 0
scalar OsgEarthNet.uav[34] utilizationEnergyOverdrawMaintenance 0
scalar OsgEarthNet.uav[34] utilizationCountMissions 39
scalar OsgEarthNet.uav[34] utilizationCountManeuversMission 853
scalar OsgEarthNet.uav[34] utilizationCountManeuversMaintenance 78
scalar OsgEarthNet.uav[34] utilizationCountChargeState 39
scalar OsgEarthNet.uav[34] utilizationCountOverdrawnAfterMission 0
scalar OsgEarthNet.uav[34] utilizationCountIdleState 39
scalar OsgEarthNet.uav[34] utilizationFail 0
scalar OsgEarthNet.uav[34] simulationTime 259200
scalar OsgEarthNet.uav[35] utilizationSecMission 25146.082083355
scalar OsgEarthNet.uav[35] utilizationSecMaintenance 11545.885263878
scalar OsgEarthNet.uav[35] utilizationSecCharge 134940
scalar OsgEarthNet.uav[35] utilizationSecIdle 87568.031652767
scalar OsgEarthNet.uav[35] utilizationEnergyMission 122722.53147507
scalar OsgEarthNet.uav[35] utilizationEnergyMaintenance 52821.260593414
scalar OsgEarthNet.uav[35] utilizationEnergyCharge 174963.26171875
scalar OsgEarthNet.uav[35] utilizationEnergyOverdrawMission 0
scalar OsgEarthNet.uav[35] utilizationEnergyOverdrawMaintenance 0
scalar OsgEarthNet.uav[35] utilizationCountMissions 38
scalar OsgEarthNet.uav[35] utilizationCountManeuversMission 802
scalar OsgEarthNet.uav[35] utilizationCountManeuversMaintenance 76
scalar OsgEarthNet.uav[35] utilizationCountChargeState 38
scalar OsgEarthNet.uav[35] utilizationCountOverdrawnAfterMission 0
scalar OsgEarthNet.uav[35] utilizationCountIdleState 36
scalar OsgEarthNet.uav[35] utilizationFail 0
scalar OsgEarthNet.uav[35] simulationTime 259200
scalar OsgEarthNet.uav[36] utilizationSecMission 14970.921652609
scalar OsgEarthNet.uav[36] utilizationSecMaintenance 10458.027466597
scalar OsgEarthNet.uav[36] utilizationSecCharge 93889.028880793
scalar OsgEarthNet.uav[36] utilizationSecIdle 139882.021
scalar OsgEarthNet.uav[36] utilizationEnergyMission 74434.201213837
scalar OsgEarthNet.uav[36] utilizationEnergyMaintenance 49796.006168365
scalar OsgEarthNet.uav[36] utilizationEnergyCharge 121684.44873047
scalar OsgEarthNet.uav[36] utilizationEnergyOverdrawMission 0
scalar OsgEarthNet.uav[36] utilizationEnergyOverdrawMaintenance 0
scalar OsgEarthNet.uav[36] utilizationCountMissions 27
scalar OsgEarthNet.uav[36] utilizationCountManeuversMission 554
scalar OsgEarthNet.uav[36] utilizationCountManeuversMaintenance 54
scalar OsgEarthNet.uav[36] utilizationCountChargeState 27
scalar OsgEarthNet.uav[36] utilizationCountOverdrawnAfterMission 0
scalar OsgEarthNet.uav[36] utilizationCountIdleState 25
scalar OsgEarthNet.uav[36] utilizationFail 0
scalar OsgEarthNet.uav[36] simulationTime 259200
scalar OsgEarthNet.uav[37] utilizationSecMission 27081.099585544
scalar OsgEarthNet.uav[37] utilizationSecMaintenance 11550.490713743
scalar OsgEarthNet.uav[37] utilizationSecCharge 136260.05609345
scalar OsgEarthNet.uav[37] utilizationSecIdle 84308.352607263
scalar OsgEarthNet.uav[37] utilizationEnergyMission 127099.07609177
scalar OsgEarthNet.uav[37] utilizationEnergyMaintenance 52214.168273926
scalar OsgEarthNet.uav[37] utilizationEnergyCharge 175880.30136108
scalar OsgEarthNet.uav[37] utilizationEnergyOverdrawMission 0
scalar OsgEarthNet.uav[37] utilizationEnergyOverdrawMaintenance 0
scalar OsgEarthNet.uav[37] utilizationCountMissions 39
scalar OsgEarthNet.uav[37] utilizationCountManeuversMission 743
scalar OsgEarthNet.uav[37] utilizationCountManeuversMaintenance 78
scalar OsgEarthNet.uav[37] utilizationCountChargeState 39
scalar OsgEarthNet.uav[37] utilizationCountOverdrawnAfterMission 0
scalar OsgEarthNet.uav[37] utilizationCountIdleState 39
scalar OsgEarthNet.uav[37] utilizationFail 0
scalar OsgEarthNet.uav[37] simulationTime 259200
scalar OsgEarthNet.uav[38] utilizationSecMission 29586.944169158
scalar OsgEarthNet.uav[38] utilizationSecMaintenance 11516.680439576
scalar OsgEarthNet.uav[38] utilizationSecCharge 150960
scalar OsgEarthNet.uav[38] utilizationSecIdle 67136.374391266
scalar OsgEarthNet.uav[38] utilizationEnergyMission 143007.00581741
scalar OsgEarthNet.uav[38] utilizationEnergyMaintenance 52759.625679016
scalar OsgEarthNet.uav[38] utilizationEnergyCharge 195804.1171875
scalar OsgEarthNet.uav[38] utilizationEnergyOverdrawMission 0
scalar OsgEarthNet.uav[38] utilizationEnergyOverdrawMaintenance 0
scalar OsgEarthNet.uav[38] utilizationCountMissions 42
scalar OsgEarthNet.uav[38] utilizationCountManeuversMission 900
scalar OsgEarthNet.uav[38] utilizationCountManeuversMaintenance 84
scalar OsgEarthNet.uav[38] utilizationCountChargeState 42
scalar OsgEarthNet.uav[38] utilizationCountOverdrawnAfterMission 0
scalar OsgEarthNet.uav[38] utilizationCountIdleState 43
scalar OsgEarthNet.uav[38] utilizationFail 0
scalar OsgEarthNet.uav[38] simulationTime 259200
scalar OsgEarthNet.uav[39] utilizationSecMission 15674.239106316
scalar OsgEarthNet.uav[39] utilizationSecMaintenance 12224.812587431
scalar OsgEarthNet.uav[39] utilizationSecCharge 105180
scalar OsgEarthNet.uav[39] utilizationSecIdle 126120.94730625
scalar OsgEarthNet.uav[39] utilizationEnergyMission 79955.108016968
scalar OsgEarthNet.uav[39] utilizationEnergyMaintenance 58085.327674866
scalar OsgEarthNet.uav[39] utilizationEnergyCharge 136534.16308594
scalar OsgEarthNet.uav[39] utilizationEnergyOverdrawMission 0
scalar OsgEarthNet.uav[39] utilizationEnergyOverdrawMaintenance 0
scalar OsgEarthNet.uav[39] utilizationCountMissions 30
scalar OsgEarthNet.uav[39] utilizationCountManeuversMission 613
scalar OsgEarthNet.uav[39] utilizationCountManeuversMaintenance 60
scalar OsgEarthNet.uav[39] utilizationCountChargeState 30
scalar OsgEarthNet.uav[39] utilizationCountOverdrawnAfterMission 0
scalar OsgEarthNet.uav[39] utilizationCountIdleState 26
scalar OsgEarthNet.uav[39] utilizationFail 0
scalar OsgEarthNet.uav[39] simulationTime 259200
scalar OsgEarthNet.uav[40] utilizationSecMission 18099.44990942
scalar OsgEarthNet.uav[40] utilizationSecMaintenance 12085.596580187
scalar OsgEarthNet.uav[40] utilizationSecCharge 109030
scalar OsgEarthNet.uav[40] utilizationSecIdle 119984.95251039
scalar OsgEarthNet.uav[40] utilizationEnergyMission 88335.950074749
scalar OsgEarthNet.uav[40] utilizationEnergyMaintenance 57309.093036652
scalar OsgEarthNet.uav[40] utilizationEnergyCharge 140967.73876953
scalar OsgEarthNet.uav[40] utilizationEnergyOverdrawMission 0
scalar OsgEarthNet.uav[40] utilizationEnergyOverdrawMaintenance 0
scalar OsgEarthNet.uav[40] utilizationCountMissions 31
scalar OsgEarthNet.uav[40] utilizationCountManeuversMission 541
scalar OsgEarthNet.uav[40] utilizationCountManeuversMaintenance 63
scalar OsgEarthNet.uav[40] utilizationCountChargeState 31
scalar OsgEarthNet.uav[40] utilizationCountOverdrawnAfterMission 0
scalar OsgEarthNet.uav[40] utilizationCountIdleState 29
scalar OsgEarthNet.uav[40] utilizationFail 0
scalar OsgEarthNet.uav[40] simulationTime 259200
scalar OsgEarthNet.uav[41] utilizationSecMission 25210.3782711
scalar OsgEarthNet.uav[41] utilizationSecMaintenance 18448.904224951
scalar OsgEarthNet.uav[41] utilizationSecCharge 161204.03569606
scalar OsgEarthNet.uav[41] utilizationSecIdle 54336.680807888
scalar OsgEarthNet.uav[41] utilizationEnergyMission 123722.81429291
scalar OsgEarthNet.uav[41] utilizationEnergyMaintenance 87901.207771301
scalar OsgEarthNet.uav[41] utilizationEnergyCharge 211204.75341797
scalar OsgEarthNet.uav[41] utilizationEnergyOverdrawMission 0
scalar OsgEarthNet.uav[41] utilizationEnergyOverdrawMaintenance 0
scalar OsgEarthNet.uav[41] utilizationCountMissions 46
scalar OsgEarthNet.uav[41] utilizationCountManeuversMission 883
scalar OsgEarthNet.uav[41] utilizationCountManeuversMaintenance 92
scalar OsgEarthNet.uav[41] utilizationCountChargeState 46
scalar OsgEarthNet.uav[41] utilizationCountOverdrawnAfterMission 0
scalar OsgEarthNet.uav[41] utilizationCountIdleState 38
scalar OsgEarthNet.uav[41] utilizationFail 0
scalar OsgEarthNet.uav[41] simulationTime 259200
scalar OsgEarthNet.uav[42] utilizationSecMission 27252.989281447
scalar OsgEarthNet.uav[42] utilizationSecMaintenance 13891.291175972
scalar OsgEarthNet.uav[42] utilizationSecCharge 151193.71154258
scalar OsgEarthNet.uav[42] utilizationSecIdle 66862.007
scalar OsgEarthNet.uav[42] utilizationEnergyMission 131333.35471344
scalar OsgEarthNet.uav[42] utilizationEnergyMaintenance 64601.969028473
scalar OsgEarthNet.uav[42] utilizationEnergyCharge 197121.85693359
scalar OsgEarthNet.uav[42] utilizationEnergyOverdrawMission 0
scalar OsgEarthNet.uav[42] utilizationEnergyOverdrawMaintenance 0
scalar OsgEarthNet.uav[42] utilizationCountMissions 43
scalar OsgEarthNet.uav[42] utilizationCountManeuversMission 883
scalar OsgEarthNet.uav[42] utilizationCountManeuversMaintenance 86
scalar OsgEarthNet.uav[42] utilizationCountChargeState 43
scalar OsgEarthNet.uav[42] utilizationCountOverdrawnAfterMission 0
scalar OsgEarthNet.uav[42] utilizationCountIdleState 39
scalar OsgEarthNet.uav[42] utilizationFail 0
scalar OsgEarthNet.uav[42] simulationTime 259200
scalar OsgEarthNet.uav[43] utilizationSecMission 17894.433700234
scalar OsgEarthNet.uav[43] utilizationSecMaintenance 11414.082452618
scalar OsgEarthNet.uav[43] utilizationSecCharge 109580
scalar OsgEarthNet.uav[43] utilizationSecIdle 120311.48284715
scalar OsgEarthNet.uav[43] utilizationEnergyMission 88486.426151276
scalar OsgEarthNet.uav[43] utilizationEnergyMaintenance 53823.694538116
scalar OsgEarthNet.uav[43] utilizationEnergyCharge 141301.71630859
scalar OsgEarthNet.uav[43] utilizationEnergyOverdrawMission 0
scalar OsgEarthNet.uav[43] utilizationEnergyOverdrawMaintenance 0
scalar OsgEarthNet.uav[43] utilizationCountMissions 31
scalar OsgEarthNet.uav[43] utilizationCountManeuversMission 616
scalar OsgEarthNet.uav[43] utilizationCountManeuversMaintenance 62
scalar OsgEarthNet.uav[43] utilizationCountChargeState 31
scalar OsgEarthNet.uav[43] utilizationCountOverdrawnAfterMission 0
scalar OsgEarthNet.uav[43] utilizationCountIdleState 32
scalar OsgEarthNet.uav[43] utilizationFail 0
scalar OsgEarthNet.uav[43] simulationTime 259200
scalar OsgEarthNet.uav[44] utilizationSecMission 28426.579246765
scalar OsgEarthNet.uav[44] utilizationSecMaintenance 12637.804825894
scalar OsgEarthNet.uav[44] utilizationSecCharge 149420
scalar OsgEarthNet.uav[44] utilizationSecIdle 68715.614927341
scalar OsgEarthNet.uav[44] utilizationEnergyMission 134849.3054924
scalar OsgEarthNet.uav[44] utilizationEnergyMaintenance 59299.79599762
scalar OsgEarthNet.uav[44] utilizationEnergyCharge 194338.1875
scalar OsgEarthNet.uav[44] utilizationEnergyOverdrawMission 0
scalar OsgEarthNet.uav[44] utilizationEnergyOverdrawMaintenance 0
scalar OsgEarthNet.uav[44] utilizationCountMissions 42
scalar OsgEarthNet.uav[44] utilizationCountManeuversMission 745
scalar OsgEarthNet.uav[44] utilizationCountManeuversMaintenance 84
scalar OsgEarthNet.uav[44] utilizationCountChargeState 42
scalar OsgEarthNet.uav[44] utilizationCountOverdrawnAfterMission 0
scalar OsgEarthNet.uav[44] utilizationCountIdleState 38
scalar OsgEarthNet.uav[44] utilizationFail 0
scalar OsgEarthNet.uav[44] simulationTime 259200
scalar OsgEarthNet.uav[45] utilizationSecMission 26875.246051361
scalar OsgEarthNet.uav[45] utilizationSecMaintenance 11562.04635078
scalar OsgEarthNet.uav[45] utilizationSecCharge 140280
scalar OsgEarthNet.uav[45] utilizationSecIdle 80482.706597859
scalar OsgEarthNet.uav[45] utilizationEnergyMission 128211.65723801
scalar OsgEarthNet.uav[45] utilizationEnergyMaintenance 53315.768798828
scalar OsgEarthNet.uav[45] utilizationEnergyCharge 182259.90966797
scalar OsgEarthNet.uav[45] utilizationEnergyOverdrawMission 0
scalar OsgEarthNet.uav[45] utilizationEnergyOverdrawMaintenance 0
scalar OsgEarthNet.uav[45] utilizationCountMissions 39
scalar OsgEarthNet.uav[45] utilizationCountManeuversMission 814
scalar OsgEarthNet.uav[45] utilizationCountManeuversMaintenance 78
scalar OsgEarthNet.uav[45] utilizationCountChargeState 39
scalar OsgEarthNet.uav[45] utilizationCountOverdrawnAfterMission 0
scalar OsgEarthNet.uav[45] utilizationCountIdleState 39
scalar OsgEarthNet.uav[45] utilizationFail 0
scalar OsgEarthNet.uav[45] simulationTime 259200
scalar OsgEarthNet.uav[46] utilizationSecMission 22169.341576961
scalar OsgEarthNet.uav[46] utilizationSecMaintenance 12997.453772212
scalar OsgEarthNet.uav[46] utilizationSecCharge 127141.68998988
scalar OsgEarthNet.uav[46] utilizationSecIdle 96891.51366095
scalar OsgEarthNet.uav[46] utilizationEnergyMission 109387.26106644
scalar OsgEarthNet.uav[46] utilizationEnergyMaintenance 61097.84337616
scalar OsgEarthNet.uav[46] utilizationEnergyCharge 165879.72576904
scalar OsgEarthNet.uav[46] utilizationEnergyOverdrawMission 0
scalar OsgEarthNet.uav[46] utilizationEnergyOverdrawMaintenance 0
scalar OsgEarthNet.uav[46] utilizationCountMissions 37
scalar OsgEarthNet.uav[46] utilizationCountManeuversMission 730
scalar OsgEarthNet.uav[46] utilizationCountManeuversMaintenance 74
scalar OsgEarthNet.uav[46] utilizationCountChargeState 37
scalar OsgEarthNet.uav[46] utilizationCountOverdrawnAfterMission 0
scalar OsgEarthNet.uav[46] utilizationCountIdleState 32
scalar OsgEarthNet.uav[46] utilizationFail 0
scalar OsgEarthNet.uav[46] simulationTime 259200
scalar OsgEarthNet.uav[47] utilizationSecMission 25539.244686598
scalar OsgEarthNet.uav[47] utilizationSecMaintenance 15600.981563428
scalar OsgEarthNet.uav[47] utilizationSecCharge 151830
scalar OsgEarthNet.uav[47] utilizationSecIdle 66229.772749974
scalar OsgEarthNet.uav[47] utilizationEnergyMission 124873.71362686
scalar OsgEarthNet.uav[47] utilizationEnergyMaintenance 72714.072025299
scalar OsgEarthNet.uav[47] utilizationEnergyCharge 196652.25048828
scalar OsgEarthNet.uav[47] utilizationEnergyOverdrawMission 0
scalar OsgEarthNet.uav[47] utilizationEnergyOverdrawMaintenance 0
scalar OsgEarthNet.uav[47] utilizationCountMissions 43
scalar OsgEarthNet.uav[47] utilizationCountManeuversMission 870
scalar OsgEarthNet.uav[47] utilizationCountManeuversMaintenance 86
scalar OsgEarthNet.uav[47] utilizationCountChargeState 43
scalar OsgEarthNet.uav[47] utilizationCountOverdrawnAfterMission 0
scalar OsgEarthNet.uav[47] utilizationCountIdleState 39
scalar OsgEarthNet.uav[47] utilizationFail 0
scalar OsgEarthNet.uav[47] simulationTime 259200
scalar OsgEarthNet.uav[48] utilizationSecMission 26365.724951506
scalar OsgEarthNet.uav[48] utilizationSecMaintenance 11708.733865117
scalar OsgEarthNet.uav[48] utilizationSecCharge 139110
scalar OsgEarthNet.uav[48] utilizationSecIdle 82015.540183377
scalar OsgEarthNet.uav[48] utilizationEnergyMission 127523.31906128
scalar OsgEarthNet.uav[48] utilizationEnergyMaintenance 55084.786849976
scalar OsgEarthNet.uav[48] utilizationEnergyCharge 180703.71435547
scalar OsgEarthNet.uav[48] utilizationEnergyOverdrawMission 0
scalar OsgEarthNet.uav[48] utilizationEnergyOverdrawMaintenance 0
scalar OsgEarthNet.uav[48] utilizationCountMissions 39
scalar OsgEarthNet.uav[48] utilizationCountManeuversMission 776
scalar OsgEarthNet.uav[48] utilizationCountManeuversMaintenance 78
scalar OsgEarthNet.uav[48] utilizationCountChargeState 39
scalar OsgEarthNet.uav[48] utilizationCountOverdrawnAfterMission 0
scalar OsgEarthNet.uav[48] utilizationCountIdleState 37
scalar OsgEarthNet.uav[48] utilizationFail 0
scalar OsgEarthNet.uav[48] simulationTime 259200
scalar OsgEarthNet.uav[49] utilizationSecMission 19768.643061045
scalar OsgEarthNet.uav[49] utilizationSecMaintenance 12179.87574039
scalar OsgEarthNet.uav[49] utilizationSecCharge 116029.46319857
scalar OsgEarthNet.uav[49] utilizationSecIdle 111222.017
scalar OsgEarthNet.uav[49] utilizationEnergyMission 96205.832817078
scalar OsgEarthNet.uav[49] utilizationEnergyMaintenance 57234.908763885
scalar OsgEarthNet.uav[49] utilizationEnergyCharge 150611.44433594
scalar OsgEarthNet.uav[49] utilizationEnergyOverdrawMission 0
scalar OsgEarthNet.uav[49] utilizationEnergyOverdrawMaintenance 0
scalar OsgEarthNet.uav[49] utilizationCountMissions 33
scalar OsgEarthNet.uav[49] utilizationCountManeuversMission 641
scalar OsgEarthNet.uav[49] utilizationCountManeuversMaintenance 66
scalar OsgEarthNet.uav[49] utilizationCountChargeState 33
scalar OsgEarthNet.uav[49] utilizationCountOverdrawnAfterMission 0
scalar OsgEarthNet.uav[49] utilizationCountIdleState 32
scalar OsgEarthNet.uav[49] utilizationFail 0
scalar OsgEarthNet.uav[49] simulationTime 259200
scalar OsgEarthNet.uav[50] utilizationSecMission 19909.377288704
scalar OsgEarthNet.uav[50] utilizationSecMaintenance 11388.099418603
scalar OsgEarthNet.uav[50] utilizationSecCharge 114040.51429269
scalar OsgEarthNet.uav[50] utilizationSecIdle 113862.008
scalar OsgEarthNet.uav[50] utilizationEnergyMission 97053.458496094
scalar OsgEarthNet.uav[50] utilizationEnergyMaintenance 53844.858104706
scalar OsgEarthNet.uav[50] utilizationEnergyCharge 147540.45410156
scalar OsgEarthNet.uav[50] utilizationEnergyOverdrawMission 0
scalar OsgEarthNet.uav[50] utilizationEnergyOverdrawMaintenance 0
scalar OsgEarthNet.uav[50] utilizationCountMissions 33
scalar OsgEarthNet.uav[50] utilizationCountManeuversMission 605
scalar OsgEarthNet.uav[50] utilizationCountManeuversMaintenance 66
scalar OsgEarthNet.uav[50] utilizationCountChargeState 33
scalar OsgEarthNet.uav[50] utilizationCountOverdrawnAfterMission 0
scalar OsgEarthNet.uav[50] utilizationCountIdleState 33
scalar OsgEarthNet.uav[50] utilizationFail 0
scalar OsgEarthNet.uav[50] simulationTime 259200
scalar OsgEarthNet.uav[51] utilizationSecMission 25547.244716353
scalar OsgEarthNet.uav[51] utilizationSecMaintenance 12722.615907514
scalar OsgEarthNet.uav[51] utilizationSecCharge 137933.70711491
scalar OsgEarthNet.uav[51] utilizationSecIdle 82996.431261223
scalar OsgEarthNet.uav[51] utilizationEnergyMission 121629.32146835
scalar OsgEarthNet.uav[51] utilizationEnergyMaintenance 59314.645709991
scalar OsgEarthNet.uav[51] utilizationEnergyCharge 178737.67138672
scalar OsgEarthNet.uav[51] utilizationEnergyOverdrawMission 0
scalar OsgEarthNet.uav[51] utilizationEnergyOverdrawMaintenance 0
scalar OsgEarthNet.uav[51] utilizationCountMissions 39
scalar OsgEarthNet.uav[51] utilizationCountManeuversMission 736
scalar OsgEarthNet.uav[51] utilizationCountManeuversMaintenance 78
scalar OsgEarthNet.uav[51] utilizationCountChargeState 39
scalar OsgEarthNet.uav[51] utilizationCountOverdrawnAfterMission 0
scalar OsgEarthNet.uav[51] utilizationCountIdleState 39
scalar OsgEarthNet.uav[51] utilizationFail 0
scalar OsgEarthNet.uav[51] simulationTime 259200
scalar OsgEarthNet.uav[52] utilizationSecMission 26346.081751102
scalar OsgEarthNet.uav[52] utilizationSecMaintenance 10957.890261745
scalar OsgEarthNet.uav[52] utilizationSecCharge 135930
scalar OsgEarthNet.uav[52] utilizationSecIdle 85966.026987153
scalar OsgEarthNet.uav[52] utilizationEnergyMission 125856.82786942
scalar OsgEarthNet.uav[52] utilizationEnergyMaintenance 50458.005695343
scalar OsgEarthNet.uav[52] utilizationEnergyCharge 176570.32714844
scalar OsgEarthNet.uav[52] utilizationEnergyOverdrawMission 0
scalar OsgEarthNet.uav[52] utilizationEnergyOverdrawMaintenance 0
scalar OsgEarthNet.uav[52] utilizationCountMissions 38
scalar OsgEarthNet.uav[52] utilizationCountManeuversMission 746
scalar OsgEarthNet.uav[52] utilizationCountManeuversMaintenance 76
scalar OsgEarthNet.uav[52] utilizationCountChargeState 38
scalar OsgEarthNet.uav[52] utilizationCountOverdrawnAfterMission 0
scalar OsgEarthNet.uav[52] utilizationCountIdleState 37
scalar OsgEarthNet.uav[52] utilizationFail 0
scalar OsgEarthNet.uav[52] simulationTime 259200
scalar OsgEarthNet.uav[53] utilizationSecMission 23097.222932907
scalar OsgEarthNet.uav[53] utilizationSecMaintenance 14681.313772337
scalar OsgEarthNet.uav[53] utilizationSecCharge 141070
scalar OsgEarthNet.uav[53] utilizationSecIdle 80351.462294756
scalar OsgEarthNet.uav[53] utilizationEnergyMission 115061.28640366
scalar OsgEarthNet.uav[53] utilizationEnergyMaintenance 68978.438262939
scalar OsgEarthNet.uav[53] utilizationEnergyCharge 182701.57177734
scalar OsgEarthNet.uav[53] utilizationEnergyOverdrawMission 0
scalar OsgEarthNet.uav[53] utilizationEnergyOverdrawMaintenance 0
scalar OsgEarthNet.uav[53] utilizationCountMissions 40
scalar OsgEarthNet.uav[53] utilizationCountManeuversMission 827
scalar OsgEarthNet.uav[53] utilizationCountManeuversMaintenance 80
scalar OsgEarthNet.uav[53] utilizationCountChargeState 40
scalar OsgEarthNet.uav[53] utilizationCountOverdrawnAfterMission 0
scalar OsgEarthNet.uav[53] utilizationCountIdleState 38
scalar OsgEarthNet.uav[53] utilizationFail 0
scalar OsgEarthNet.uav[53] simulationTime 259200
scalar OsgEarthNet.uav[54] utilizationSecMission 25296.509247591
scalar OsgEarthNet.uav[54] utilizationSecMaintenance 16707.607212801
scalar OsgEarthNet.uav[54] utilizationSecCharge 154870
scalar OsgEarthNet.uav[54] utilizationSecIdle 62325.882539609
scalar OsgEarthNet.uav[54] utilizationEnergyMission 124675.51934814
scalar OsgEarthNet.uav[54] utilizationEnergyMaintenance 78665.419418335
scalar OsgEarthNet.uav[54] utilizationEnergyCharge 200842.51269531
scalar OsgEarthNet.uav[54] utilizationEnergyOverdrawMission 0
scalar OsgEarthNet.uav[54] utilizationEnergyOverdrawMaintenance 0
scalar OsgEarthNet.uav[54] utilizationCountMissions 44
scalar OsgEarthNet.uav[54] utilizationCountManeuversMission 891
scalar OsgEarthNet.uav[54] utilizationCountManeuversMaintenance 88
scalar OsgEarthNet.uav[54] utilizationCountChargeState 44
scalar OsgEarthNet.uav[54] utilizationCountOverdrawnAfterMission 0
scalar OsgEarthNet.uav[54] utilizationCountIdleState 39
scalar OsgEarthNet.uav[54] utilizationFail 0
scalar OsgEarthNet.uav[54] simulationTime 259200
scalar OsgEarthNet.uav[55] utilizationSecMission 29898.760597529
scalar OsgEarthNet.uav[55] utilizationSecMaintenance 10848.880371917
scalar OsgEarthNet.uav[55] utilizationSecCharge 147600
scalar OsgEarthNet.uav[55] utilizationSecIdle 70852.358030554
scalar OsgEarthNet.uav[55] utilizationEnergyMission 142708.58921734
scalar OsgEarthNet.uav[55] utilizationEnergyMaintenance 49112.980632782
scalar OsgEarthNet.uav[55] utilizationEnergyCharge 192147.01123047
scalar OsgEarthNet.uav[55] utilizationEnergyOverdrawMission 0
scalar OsgEarthNet.uav[55] utilizationEnergyOverdrawMaintenance 0
scalar OsgEarthNet.uav[55] utilizationCountMissions 41
scalar OsgEarthNet.uav[55] utilizationCountManeuversMission 750
scalar OsgEarthNet.uav[55] utilizationCountManeuversMaintenance 81
scalar OsgEarthNet.uav[55] utilizationCountChargeState 41
scalar OsgEarthNet.uav[55] utilizationCountOverdrawnAfterMission 0
scalar OsgEarthNet.uav[55] utilizationCountIdleState 39
scalar OsgEarthNet.uav[55] utilizationFail 0
scalar OsgEarthNet.uav[55] simulationTime 259200
scalar OsgEarthNet.uav[56] utilizationSecMission 18885.756968227
scalar OsgEarthNet.uav[56] utilizationSecMaintenance 13242.227031773
scalar OsgEarthNet.uav[56] utilizationSecCharge 119730
scalar OsgEarthNet.uav[56] utilizationSecIdle 107342.015
scalar OsgEarthNet.uav[56] utilizationEnergyMission 92782.832424202
scalar OsgEarthNet.uav[56] utilizationEnergyMaintenance 63264.096427917
scalar OsgEarthNet.uav[56] utilizationEnergyCharge 154516.79248047
scalar OsgEarthNet.uav[56] utilizationEnergyOverdrawMission 0
scalar OsgEarthNet.uav[56] utilizationEnergyOverdrawMaintenance 0
scalar OsgEarthNet.uav[56] utilizationCountMissions 34
scalar OsgEarthNet.uav[56] utilizationCountManeuversMission 672
scalar OsgEarthNet.uav[56] utilizationCountManeuversMaintenance 69
scalar OsgEarthNet.uav[56] utilizationCountChargeState 34
scalar OsgEarthNet.uav[56] utilizationCountOverdrawnAfterMission 0
scalar OsgEarthNet.uav[56] utilizationCountIdleState 34
scalar OsgEarthNet.uav[56] utilizationFail 0
scalar OsgEarthNet.uav[56] simulationTime 259200
scalar OsgEarthNet.uav[57] utilizationSecMission 23931.633545389
scalar OsgEarthNet.uav[57] utilizationSecMaintenance 12184.018823256
scalar OsgEarthNet.uav[57] utilizationSecCharge 134717.91637013
scalar OsgEarthNet.uav[57] utilizationSecIdle 88366.430261223
scalar OsgEarthNet.uav[57] utilizationEnergyMission 118750.80190277
scalar OsgEarthNet.uav[57] utilizationEnergyMaintenance 56913.25667572
scalar OsgEarthNet.uav[57] utilizationEnergyCharge 174458.33154297
scalar OsgEarthNet.uav[57] utilizationEnergyOverdrawMission 0
scalar OsgEarthNet.uav[57] utilizationEnergyOverdrawMaintenance 0
scalar OsgEarthNet.uav[57] utilizationCountMissions 38
scalar OsgEarthNet.uav[57] utilizationCountManeuversMission 848
scalar OsgEarthNet.uav[57] utilizationCountManeuversMaintenance 76
scalar OsgEarthNet.uav[57] utilizationCountChargeState 38
scalar OsgEarthNet.uav[57] utilizationCountOverdrawnAfterMission 0
scalar OsgEarthNet.uav[57] utilizationCountIdleState 38
scalar OsgEarthNet.uav[57] utilizationFail 0
scalar OsgEarthNet.uav[57] simulationTime 259200
scalar OsgEarthNet.uav[58] utilizationSecMission 30646.860951908
scalar OsgEarthNet.uav[58] utilizationSecMaintenance 11861.039673153
scalar OsgEarthNet.uav[58] utilizationSecCharge 149520.09737494
scalar OsgEarthNet.uav[58] utilizationSecIdle 67172.001
scalar OsgEarthNet.uav[58] utilizationEnergyMission 145489.9435997
scalar OsgEarthNet.uav[58] utilizationEnergyMaintenance 54207.363552094
scalar OsgEarthNet.uav[58] utilizationEnergyCharge 194355.61151123
scalar OsgEarthNet.uav[58] utilizationEnergyOverdrawMission 0
scalar OsgEarthNet.uav[58] utilizationEnergyOverdrawMaintenance 0
scalar OsgEarthNet.uav[58] utilizationCountMissions 43
scalar OsgEarthNet.uav[58] utilizationCountManeuversMission 791
scalar OsgEarthNet.uav[58] utilizationCountManeuversMaintenance 86
scalar OsgEarthNet.uav[58] utilizationCountChargeState 43
scalar OsgEarthNet.uav[58] utilizationCountOverdrawnAfterMission 0
scalar OsgEarthNet.uav[58] utilizationCountIdleState 41
scalar OsgEarthNet.uav[58] utilizationFail 0
scalar OsgEarthNet.uav[58] simulationTime 259200
scalar OsgEarthNet.uav[59] utilizationSecMission 20538.951002556
scalar OsgEarthNet.uav[59] utilizationSecMaintenance 10346.887589561
scalar OsgEarthNet.uav[59] utilizationSecCharge 113660
scalar OsgEarthNet.uav[59] utilizationSecIdle 114654.16040788
scalar OsgEarthNet.uav[59] utilizationEnergyMission 98376.298240662
scalar OsgEarthNet.uav[59] utilizationEnergyMaintenance 48495.962596893
scalar OsgEarthNet.uav[59] utilizationEnergyCharge 146399.59960938
scalar OsgEarthNet.uav[59] utilizationEnergyOverdrawMission 0
scalar OsgEarthNet.uav[59] utilizationEnergyOverdrawMaintenance 0
scalar OsgEarthNet.uav[59] utilizationCountMissions 32
scalar OsgEarthNet.uav[59] utilizationCountManeuversMission 611
scalar OsgEarthNet.uav[59] utilizationCountManeuversMaintenance 64
scalar OsgEarthNet.uav[59] utilizationCountChargeState 32
scalar OsgEarthNet.uav[59] utilizationCountOverdrawnAfterMission 0
scalar OsgEarthNet.uav[59] utilizationCountIdleState 33
scalar OsgEarthNet.uav[59] utilizationFail 0
scalar OsgEarthNet.uav[59] simulationTime 259200
scalar OsgEarthNet.uav[60] utilizationSecMission 18803.384712159
scalar OsgEarthNet.uav[60] utilizationSecMaintenance 12227.701476967
scalar OsgEarthNet.uav[60] utilizationSecCharge 112866.89481087
scalar OsgEarthNet.uav[60] utilizationSecIdle 115302.018
scalar OsgEarthNet.uav[60] utilizationEnergyMission 92399.694980621
scalar OsgEarthNet.uav[60] utilizationEnergyMaintenance 57483.266704559
scalar OsgEarthNet.uav[60] utilizationEnergyCharge 145254.83276367
scalar OsgEarthNet.uav[60] utilizationEnergyOverdrawMission 0
scalar OsgEarthNet.uav[60] utilizationEnergyOverdrawMaintenance 0
scalar OsgEarthNet.uav[60] utilizationCountMissions 33
scalar OsgEarthNet.uav[60] utilizationCountManeuversMission 621
scalar OsgEarthNet.uav[60] utilizationCountManeuversMaintenance 66
scalar OsgEarthNet.uav[60] utilizationCountChargeState 33
scalar OsgEarthNet.uav[60] utilizationCountOverdrawnAfterMission 0
scalar OsgEarthNet.uav[60] utilizationCountIdleState 33
scalar OsgEarthNet.uav[60] utilizationFail 0
scalar OsgEarthNet.uav[60] simulationTime 259200
scalar OsgEarthNet.uav[61] utilizationSecMission 27248.659358009
scalar OsgEarthNet.uav[61] utilizationSecMaintenance 11867.272909583
scalar OsgEarthNet.uav[61] utilizationSecCharge 143310
scalar OsgEarthNet.uav[61] utilizationSecIdle 76774.066732408
scalar OsgEarthNet.uav[61] utilizationEnergyMission 128835.40872955
scalar OsgEarthNet.uav[61] utilizationEnergyMaintenance 55092.264450073
scalar OsgEarthNet.uav[61] utilizationEnergyCharge 184892.17529297
scalar OsgEarthNet.uav[61] utilizationEnergyOverdrawMission 0
scalar OsgEarthNet.uav[61] utilizationEnergyOverdrawMaintenance 0
scalar OsgEarthNet.uav[61] utilizationCountMissions 40
scalar OsgEarthNet.uav[61] utilizationCountManeuversMission 710
scalar OsgEarthNet.uav[61] utilizationCountManeuversMaintenance 80
scalar OsgEarthNet.uav[61] utilizationCountChargeState 40
scalar OsgEarthNet.uav[61] utilizationCountOverdrawnAfterMission 0
scalar OsgEarthNet.uav[61] utilizationCountIdleState 41
scalar OsgEarthNet.uav[61] utilizationFail 0
scalar OsgEarthNet.uav[61] simulationTime 259200
scalar OsgEarthNet.uav[62] utilizationSecMission 29256.525990576
scalar OsgEarthNet.uav[62] utilizationSecMaintenance 11260.593931501
scalar OsgEarthNet.uav[62] utilizationSecCharge 145704.03091813
scalar OsgEarthNet.uav[62] utilizationSecIdle 72978.848159794
scalar OsgEarthNet.uav[62] utilizationEnergyMission 140077.85014343
scalar OsgEarthNet.uav[62] utilizationEnergyMaintenance 51677.602165222
scalar OsgEarthNet.uav[62] utilizationEnergyCharge 189206.36816406
scalar OsgEarthNet.uav[62] utilizationEnergyOverdrawMission 0
scalar OsgEarthNet.uav[62] utilizationEnergyOverdrawMaintenance 0
scalar OsgEarthNet.uav[62] utilizationCountMissions 41
scalar OsgEarthNet.uav[62] utilizationCountManeuversMission 794
scalar OsgEarthNet.uav[62] utilizationCountManeuversMaintenance 82
scalar OsgEarthNet.uav[62] utilizationCountChargeState 41
scalar OsgEarthNet.uav[62] utilizationCountOverdrawnAfterMission 0
scalar OsgEarthNet.uav[62] utilizationCountIdleState 40
scalar OsgEarthNet.uav[62] utilizationFail 0
scalar OsgEarthNet.uav[62] simulationTime 259200
scalar OsgEarthNet.uav[63] utilizationSecMission 18758.212661581
scalar OsgEarthNet.uav[63] utilizationSecMaintenance 11286.6609666
scalar OsgEarthNet.uav[63] utilizationSecCharge 108280.79901664
scalar OsgEarthNet.uav[63] utilizationSecIdle 120874.32635518
scalar OsgEarthNet.uav[63] utilizationEnergyMission 89531.347099304
scalar OsgEarthNet.uav[63] utilizationEnergyMaintenance 52843.559864044
scalar OsgEarthNet.uav[63] utilizationEnergyCharge 141145.109375
scalar OsgEarthNet.uav[63] utilizationEnergyOverdrawMission 0
scalar OsgEarthNet.uav[63] utilizationEnergyOverdrawMaintenance 0
scalar OsgEarthNet.uav[63] utilizationCountMissions 31
scalar OsgEarthNet.uav[63] utilizationCountManeuversMission 506
scalar OsgEarthNet.uav[63] utilizationCountManeuversMaintenance 62
scalar OsgEarthNet.uav[63] utilizationCountChargeState 31
scalar OsgEarthNet.uav[63] utilizationCountOverdrawnAfterMission 0
scalar OsgEarthNet.uav[63] utilizationCountIdleState 28
scalar OsgEarthNet.uav[63] utilizationFail 0
scalar OsgEarthNet.uav[63] simulationTime 259200
scalar OsgEarthNet.uav[64] utilizationSecMission 23969.657091566
scalar OsgEarthNet.uav[64] utilizationSecMaintenance 13424.278480196
scalar OsgEarthNet.uav[64] utilizationSecCharge 138990
scalar OsgEarthNet.uav[64] utilizationSecIdle 82816.063428238
scalar OsgEarthNet.uav[64] utilizationEnergyMission 116055.1866188
scalar OsgEarthNet.uav[64] utilizationEnergyMaintenance 62632.529254913
scalar OsgEarthNet.uav[64] utilizationEnergyCharge 180112.29736328
scalar OsgEarthNet.uav[64] utilizationEnergyOverdrawMission 0
scalar OsgEarthNet.uav[64] utilizationEnergyOverdrawMaintenance 0
scalar OsgEarthNet.uav[64] utilizationCountMissions 39
scalar OsgEarthNet.uav[64] utilizationCountManeuversMission 803
scalar OsgEarthNet.uav[64] utilizationCountManeuversMaintenance 78
scalar OsgEarthNet.uav[64] utilizationCountChargeState 39
scalar OsgEarthNet.uav[64] utilizationCountOverdrawnAfterMission 0
scalar OsgEarthNet.uav[64] utilizationCountIdleState 38
scalar OsgEarthNet.uav[64] utilizationFail 0
scalar OsgEarthNet.uav[64] simulationTime 259200
scalar OsgEarthNet.uav[65] utilizationSecMission 29341.906465835
scalar OsgEarthNet.uav[65] utilizationSecMaintenance 13826.090534165
scalar OsgEarthNet.uav[65] utilizationSecCharge 157500
scalar OsgEarthNet.uav[65] utilizationSecIdle 58532.002
[...]
scalar OsgEarthNet.uav[81] utilizationCountMissions 45
scalar OsgEarthNet.uav[81] utilizationCountManeuversMission 950
scalar OsgEarthNet.uav[81] utilizationCountManeuversMaintenance 90
scalar OsgEarthNet.uav[81] utilizationCountChargeState 45
scalar OsgEarthNet.uav[81] utilizationCountOverdrawnAfterMission 0
scalar OsgEarthNet.uav[81] utilizationCountIdleState 42
scalar OsgEarthNet.uav[81] utilizationFail 0
scalar OsgEarthNet.uav[81] simulationTime 259200
scalar OsgEarthNet.uav[82] utilizationSecMission 29406.811486527
scalar OsgEarthNet.uav[82] utilizationSecMaintenance 19016.632082533
scalar OsgEarthNet.uav[82] utilizationSecCharge 177490
scalar OsgEarthNet.uav[82] utilizationSecIdle 33286.55543094
scalar OsgEarthNet.uav[82] utilizationEnergyMission 145609.9726181
scalar OsgEarthNet.uav[82] utilizationEnergyMaintenance 89263.173084259
scalar OsgEarthNet.uav[82] utilizationEnergyCharge 233725.42529297
scalar OsgEarthNet.uav[82] utilizationEnergyOverdrawMission 0
scalar OsgEarthNet.uav[82] utilizationEnergyOverdrawMaintenance 0
scalar OsgEarthNet.uav[82] utilizationCountMissions 51
scalar OsgEarthNet.uav[82] utilizationCountManeuversMission 1045
scalar OsgEarthNet.uav[82] utilizationCountManeuversMaintenance 102
scalar OsgEarthNet.uav[82] utilizationCountChargeState 51
scalar OsgEarthNet.uav[82] utilizationCountOverdrawnAfterMission 0
scalar OsgEarthNet.uav[82] utilizationCountIdleState 35
scalar OsgEarthNet.uav[82] utilizationFail 0
scalar OsgEarthNet.uav[82] simulationTime 259200
scalar OsgEarthNet.uav[83] utilizationSecMission 27174.559390671
scalar OsgEarthNet.uav[83] utilizationSecMaintenance 15372.196460055
scalar OsgEarthNet.uav[83] utilizationSecCharge 155180
scalar OsgEarthNet.uav[83] utilizationSecIdle 61473.243149274
scalar OsgEarthNet.uav[83] utilizationEnergyMission 131649.10947447
scalar OsgEarthNet.uav[83] utilizationEnergyMaintenance 70236.035610199
scalar OsgEarthNet.uav[83] utilizationEnergyCharge 200672.69238281
scalar OsgEarthNet.uav[83] utilizationEnergyOverdrawMission 0
scalar OsgEarthNet.uav[83] utilizationEnergyOverdrawMaintenance 0
scalar OsgEarthNet.uav[83] utilizationCountMissions 44
scalar OsgEarthNet.uav[83] utilizationCountManeuversMission 953
scalar OsgEarthNet.uav[83] utilizationCountManeuversMaintenance 89
scalar OsgEarthNet.uav[83] utilizationCountChargeState 44
scalar OsgEarthNet.uav[83] utilizationCountOverdrawnAfterMission 0
scalar OsgEarthNet.uav[83] utilizationCountIdleState 38
scalar OsgEarthNet.uav[83] utilizationFail 0
scalar OsgEarthNet.uav[83] simulationTime 259200
scalar OsgEarthNet.uav[84] utilizationSecMission 26365.847298262
scalar OsgEarthNet.uav[84] utilizationSecMaintenance 13605.614971522
scalar OsgEarthNet.uav[84] utilizationSecCharge 149820
scalar OsgEarthNet.uav[84] utilizationSecIdle 69408.536730216
scalar OsgEarthNet.uav[84] utilizationEnergyMission 128797.65275192
scalar OsgEarthNet.uav[84] utilizationEnergyMaintenance 62099.645378113
scalar OsgEarthNet.uav[84] utilizationEnergyCharge 193048.16748047
scalar OsgEarthNet.uav[84] utilizationEnergyOverdrawMission 0
scalar OsgEarthNet.uav[84] utilizationEnergyOverdrawMaintenance 0
scalar OsgEarthNet.uav[84] utilizationCountMissions 42
scalar OsgEarthNet.uav[84] utilizationCountManeuversMission 934
scalar OsgEarthNet.uav[84] utilizationCountManeuversMaintenance 84
scalar OsgEarthNet.uav[84] utilizationCountChargeState 42
scalar OsgEarthNet.uav[84] utilizationCountOverdrawnAfterMission 0
scalar OsgEarthNet.uav[84] utilizationCountIdleState 43
scalar OsgEarthNet.uav[84] utilizationFail 0
scalar OsgEarthNet.uav[84] simulationTime 259200
scalar OsgEarthNet.uav[85] utilizationSecMission 31870.36283282
scalar OsgEarthNet.uav[85] utilizationSecMaintenance 18946.288193749
scalar OsgEarthNet.uav[85] utilizationSecCharge 184791.67492184
scalar OsgEarthNet.uav[85] utilizationSecIdle 23591.673051586
scalar OsgEarthNet.uav[85] utilizationEnergyMission 154856.52338791
scalar OsgEarthNet.uav[85] utilizationEnergyMaintenance 89012.922950745
scalar OsgEarthNet.uav[85] utilizationEnergyCharge 243588.22216797
scalar OsgEarthNet.uav[85] utilizationEnergyOverdrawMission 0
scalar OsgEarthNet.uav[85] utilizationEnergyOverdrawMaintenance 0
scalar OsgEarthNet.uav[85] utilizationCountMissions 53
scalar OsgEarthNet.uav[85] utilizationCountManeuversMission 1025
scalar OsgEarthNet.uav[85] utilizationCountManeuversMaintenance 106
scalar OsgEarthNet.uav[85] utilizationCountChargeState 53
scalar OsgEarthNet.uav[85] utilizationCountOverdrawnAfterMission 0
scalar OsgEarthNet.uav[85] utilizationCountIdleState 39
scalar OsgEarthNet.uav[85] utilizationFail 0
scalar OsgEarthNet.uav[85] simulationTime 259200
scalar OsgEarthNet.uav[86] utilizationSecMission 20531.859340713
scalar OsgEarthNet.uav[86] utilizationSecMaintenance 12552.134992165
scalar OsgEarthNet.uav[86] utilizationSecCharge 124080
scalar OsgEarthNet.uav[86] utilizationSecIdle 102036.00466712
scalar OsgEarthNet.uav[86] utilizationEnergyMission 100289.77026367
scalar OsgEarthNet.uav[86] utilizationEnergyMaintenance 59601.395999908
scalar OsgEarthNet.uav[86] utilizationEnergyCharge 160002.9921875
scalar OsgEarthNet.uav[86] utilizationEnergyOverdrawMission 0
scalar OsgEarthNet.uav[86] utilizationEnergyOverdrawMaintenance 0
scalar OsgEarthNet.uav[86] utilizationCountMissions 35
scalar OsgEarthNet.uav[86] utilizationCountManeuversMission 648
scalar OsgEarthNet.uav[86] utilizationCountManeuversMaintenance 70
scalar OsgEarthNet.uav[86] utilizationCountChargeState 35
scalar OsgEarthNet.uav[86] utilizationCountOverdrawnAfterMission 0
scalar OsgEarthNet.uav[86] utilizationCountIdleState 35
scalar OsgEarthNet.uav[86] utilizationFail 0
scalar OsgEarthNet.uav[86] simulationTime 259200
scalar OsgEarthNet.uav[87] utilizationSecMission 28799.731806492
scalar OsgEarthNet.uav[87] utilizationSecMaintenance 10720.743708913
scalar OsgEarthNet.uav[87] utilizationSecCharge 144030
scalar OsgEarthNet.uav[87] utilizationSecIdle 75649.523484594
scalar OsgEarthNet.uav[87] utilizationEnergyMission 135612.67288589
scalar OsgEarthNet.uav[87] utilizationEnergyMaintenance 49367.311386108
scalar OsgEarthNet.uav[87] utilizationEnergyCharge 186146.82324219
scalar OsgEarthNet.uav[87] utilizationEnergyOverdrawMission 0
scalar OsgEarthNet.uav[87] utilizationEnergyOverdrawMaintenance 0
scalar OsgEarthNet.uav[87] utilizationCountMissions 40
scalar OsgEarthNet.uav[87] utilizationCountManeuversMission 695
scalar OsgEarthNet.uav[87] utilizationCountManeuversMaintenance 80
scalar OsgEarthNet.uav[87] utilizationCountChargeState 40
scalar OsgEarthNet.uav[87] utilizationCountOverdrawnAfterMission 0
scalar OsgEarthNet.uav[87] utilizationCountIdleState 41
scalar OsgEarthNet.uav[87] utilizationFail 0
scalar OsgEarthNet.uav[87] simulationTime 259200
scalar OsgEarthNet.uav[88] utilizationSecMission 30189.216568816
scalar OsgEarthNet.uav[88] utilizationSecMaintenance 11849.127913096
scalar OsgEarthNet.uav[88] utilizationSecCharge 151441.61197067
scalar OsgEarthNet.uav[88] utilizationSecIdle 65720.042547415
scalar OsgEarthNet.uav[88] utilizationEnergyMission 145636.41481781
scalar OsgEarthNet.uav[88] utilizationEnergyMaintenance 53902.459026337
scalar OsgEarthNet.uav[88] utilizationEnergyCharge 196483.07470703
scalar OsgEarthNet.uav[88] utilizationEnergyOverdrawMission 0
scalar OsgEarthNet.uav[88] utilizationEnergyOverdrawMaintenance 0
scalar OsgEarthNet.uav[88] utilizationCountMissions 43
scalar OsgEarthNet.uav[88] utilizationCountManeuversMission 844
scalar OsgEarthNet.uav[88] utilizationCountManeuversMaintenance 86
scalar OsgEarthNet.uav[88] utilizationCountChargeState 43
scalar OsgEarthNet.uav[88] utilizationCountOverdrawnAfterMission 0
scalar OsgEarthNet.uav[88] utilizationCountIdleState 42
scalar OsgEarthNet.uav[88] utilizationFail 0
scalar OsgEarthNet.uav[88] simulationTime 259200
scalar OsgEarthNet.uav[89] utilizationSecMission 22198.870704755
scalar OsgEarthNet.uav[89] utilizationSecMaintenance 13638.096776896
scalar OsgEarthNet.uav[89] utilizationSecCharge 134030.5836288
scalar OsgEarthNet.uav[89] utilizationSecIdle 89332.447889546
scalar OsgEarthNet.uav[89] utilizationEnergyMission 109162.90531158
scalar OsgEarthNet.uav[89] utilizationEnergyMaintenance 64513.730079651
scalar OsgEarthNet.uav[89] utilizationEnergyCharge 172983.96240234
scalar OsgEarthNet.uav[89] utilizationEnergyOverdrawMission 0
scalar OsgEarthNet.uav[89] utilizationEnergyOverdrawMaintenance 0
scalar OsgEarthNet.uav[89] utilizationCountMissions 38
scalar OsgEarthNet.uav[89] utilizationCountManeuversMission 685
scalar OsgEarthNet.uav[89] utilizationCountManeuversMaintenance 76
scalar OsgEarthNet.uav[89] utilizationCountChargeState 38
scalar OsgEarthNet.uav[89] utilizationCountOverdrawnAfterMission 0
scalar OsgEarthNet.uav[89] utilizationCountIdleState 38
scalar OsgEarthNet.uav[89] utilizationFail 0
scalar OsgEarthNet.uav[89] simulationTime 259200
scalar OsgEarthNet.uav[90] utilizationSecMission 23347.435964264
scalar OsgEarthNet.uav[90] utilizationSecMaintenance 14593.767325894
scalar OsgEarthNet.uav[90] utilizationSecCharge 140440
scalar OsgEarthNet.uav[90] utilizationSecIdle 80818.795709842
scalar OsgEarthNet.uav[90] utilizationEnergyMission 113593.22891235
scalar OsgEarthNet.uav[90] utilizationEnergyMaintenance 69767.658660889
scalar OsgEarthNet.uav[90] utilizationEnergyCharge 183132.65625
scalar OsgEarthNet.uav[90] utilizationEnergyOverdrawMission 0
scalar OsgEarthNet.uav[90] utilizationEnergyOverdrawMaintenance 0
scalar OsgEarthNet.uav[90] utilizationCountMissions 40
scalar OsgEarthNet.uav[90] utilizationCountManeuversMission 802
scalar OsgEarthNet.uav[90] utilizationCountManeuversMaintenance 80
scalar OsgEarthNet.uav[90] utilizationCountChargeState 40
scalar OsgEarthNet.uav[90] utilizationCountOverdrawnAfterMission 0
scalar OsgEarthNet.uav[90] utilizationCountIdleState 32
scalar OsgEarthNet.uav[90] utilizationFail 0
scalar OsgEarthNet.uav[90] simulationTime 259200
scalar OsgEarthNet.uav[91] utilizationSecMission 28940.492844701
scalar OsgEarthNet.uav[91] utilizationSecMaintenance 12873.043893348
scalar OsgEarthNet.uav[91] utilizationSecCharge 150540
scalar OsgEarthNet.uav[91] utilizationSecIdle 66846.462261951
scalar OsgEarthNet.uav[91] utilizationEnergyMission 137813.77614155
scalar OsgEarthNet.uav[91] utilizationEnergyMaintenance 59116.150772095
scalar OsgEarthNet.uav[91] utilizationEnergyCharge 194330.76269531
scalar OsgEarthNet.uav[91] utilizationEnergyOverdrawMission 0
scalar OsgEarthNet.uav[91] utilizationEnergyOverdrawMaintenance 0
scalar OsgEarthNet.uav[91] utilizationCountMissions 42
scalar OsgEarthNet.uav[91] utilizationCountManeuversMission 764
scalar OsgEarthNet.uav[91] utilizationCountManeuversMaintenance 85
scalar OsgEarthNet.uav[91] utilizationCountChargeState 42
scalar OsgEarthNet.uav[91] utilizationCountOverdrawnAfterMission 0
scalar OsgEarthNet.uav[91] utilizationCountIdleState 43
scalar OsgEarthNet.uav[91] utilizationFail 0
scalar OsgEarthNet.uav[91] simulationTime 259200
scalar OsgEarthNet.uav[92] utilizationSecMission 29142.967530482
scalar OsgEarthNet.uav[92] utilizationSecMaintenance 11413.515923152
scalar OsgEarthNet.uav[92] utilizationSecCharge 145271.51554637
scalar OsgEarthNet.uav[92] utilizationSecIdle 73372
scalar OsgEarthNet.uav[92] utilizationEnergyMission 138502.66749573
scalar OsgEarthNet.uav[92] utilizationEnergyMaintenance 52707.677639008
scalar OsgEarthNet.uav[92] utilizationEnergyCharge 189063.17749023
scalar OsgEarthNet.uav[92] utilizationEnergyOverdrawMission 0
scalar OsgEarthNet.uav[92] utilizationEnergyOverdrawMaintenance 0
scalar OsgEarthNet.uav[92] utilizationCountMissions 41
scalar OsgEarthNet.uav[92] utilizationCountManeuversMission 737
scalar OsgEarthNet.uav[92] utilizationCountManeuversMaintenance 82
scalar OsgEarthNet.uav[92] utilizationCountChargeState 41
scalar OsgEarthNet.uav[92] utilizationCountOverdrawnAfterMission 0
scalar OsgEarthNet.uav[92] utilizationCountIdleState 40
scalar OsgEarthNet.uav[92] utilizationFail 0
scalar OsgEarthNet.uav[92] simulationTime 259200
scalar OsgEarthNet.uav[93] utilizationSecMission 21020.897379926
scalar OsgEarthNet.uav[93] utilizationSecMaintenance 10691.972556376
scalar OsgEarthNet.uav[93] utilizationSecCharge 115415.1240637
scalar OsgEarthNet.uav[93] utilizationSecIdle 112072.005
scalar OsgEarthNet.uav[93] utilizationEnergyMission 101198.65001297
scalar OsgEarthNet.uav[93] utilizationEnergyMaintenance 50110.89535141
scalar OsgEarthNet.uav[93] utilizationEnergyCharge 149596.21386719
scalar OsgEarthNet.uav[93] utilizationEnergyOverdrawMission 0
scalar OsgEarthNet.uav[93] utilizationEnergyOverdrawMaintenance 0
scalar OsgEarthNet.uav[93] utilizationCountMissions 33
scalar OsgEarthNet.uav[93] utilizationCountManeuversMission 618
scalar OsgEarthNet.uav[93] utilizationCountManeuversMaintenance 66
scalar OsgEarthNet.uav[93] utilizationCountChargeState 33
scalar OsgEarthNet.uav[93] utilizationCountOverdrawnAfterMission 0
scalar OsgEarthNet.uav[93] utilizationCountIdleState 33
scalar OsgEarthNet.uav[93] utilizationFail 0
scalar OsgEarthNet.uav[93] simulationTime 259200
scalar OsgEarthNet.uav[94] utilizationSecMission 27340.197945783
scalar OsgEarthNet.uav[94] utilizationSecMaintenance 15903.766054954
scalar OsgEarthNet.uav[94] utilizationSecCharge 158839.60173804
scalar OsgEarthNet.uav[94] utilizationSecIdle 57116.433261223
scalar OsgEarthNet.uav[94] utilizationEnergyMission 133937.98373032
scalar OsgEarthNet.uav[94] utilizationEnergyMaintenance 74146.505306244
scalar OsgEarthNet.uav[94] utilizationEnergyCharge 206277.86572266
scalar OsgEarthNet.uav[94] utilizationEnergyOverdrawMission 0
scalar OsgEarthNet.uav[94] utilizationEnergyOverdrawMaintenance 0
scalar OsgEarthNet.uav[94] utilizationCountMissions 45
scalar OsgEarthNet.uav[94] utilizationCountManeuversMission 958
scalar OsgEarthNet.uav[94] utilizationCountManeuversMaintenance 90
scalar OsgEarthNet.uav[94] utilizationCountChargeState 45
scalar OsgEarthNet.uav[94] utilizationCountOverdrawnAfterMission 0
scalar OsgEarthNet.uav[94] utilizationCountIdleState 41
scalar OsgEarthNet.uav[94] utilizationFail 0
scalar OsgEarthNet.uav[94] simulationTime 259200
scalar OsgEarthNet.uav[95] utilizationSecMission 25534.954288217
scalar OsgEarthNet.uav[95] utilizationSecMaintenance 11929.332696932
scalar OsgEarthNet.uav[95] utilizationSecCharge 138000
scalar OsgEarthNet.uav[95] utilizationSecIdle 83735.712014851
scalar OsgEarthNet.uav[95] utilizationEnergyMission 123817.84518814
scalar OsgEarthNet.uav[95] utilizationEnergyMaintenance 55123.072376251
scalar OsgEarthNet.uav[95] utilizationEnergyCharge 178773.27685547
scalar OsgEarthNet.uav[95] utilizationEnergyOverdrawMission 0
scalar OsgEarthNet.uav[95] utilizationEnergyOverdrawMaintenance 0
scalar OsgEarthNet.uav[95] utilizationCountMissions 39
scalar OsgEarthNet.uav[95] utilizationCountManeuversMission 835
scalar OsgEarthNet.uav[95] utilizationCountManeuversMaintenance 78
scalar OsgEarthNet.uav[95] utilizationCountChargeState 39
scalar OsgEarthNet.uav[95] utilizationCountOverdrawnAfterMission 0
scalar OsgEarthNet.uav[95] utilizationCountIdleState 37
scalar OsgEarthNet.uav[95] utilizationFail 0
scalar OsgEarthNet.uav[95] simulationTime 259200
scalar OsgEarthNet.uav[96] utilizationSecMission 23240.885632615
scalar OsgEarthNet.uav[96] utilizationSecMaintenance 13443.739424547
scalar OsgEarthNet.uav[96] utilizationSecCharge 133743.35494284
scalar OsgEarthNet.uav[96] utilizationSecIdle 88772.019
scalar OsgEarthNet.uav[96] utilizationEnergyMission 112645.00716782
scalar OsgEarthNet.uav[96] utilizationEnergyMaintenance 64124.236499786
scalar OsgEarthNet.uav[96] utilizationEnergyCharge 172230.62109375
scalar OsgEarthNet.uav[96] utilizationEnergyOverdrawMission 0
scalar OsgEarthNet.uav[96] utilizationEnergyOverdrawMaintenance 0
scalar OsgEarthNet.uav[96] utilizationCountMissions 39
scalar OsgEarthNet.uav[96] utilizationCountManeuversMission 715
scalar OsgEarthNet.uav[96] utilizationCountManeuversMaintenance 78
scalar OsgEarthNet.uav[96] utilizationCountChargeState 39
scalar OsgEarthNet.uav[96] utilizationCountOverdrawnAfterMission 0
scalar OsgEarthNet.uav[96] utilizationCountIdleState 37
scalar OsgEarthNet.uav[96] utilizationFail 0
scalar OsgEarthNet.uav[96] simulationTime 259200
scalar OsgEarthNet.uav[97] utilizationSecMission 28351.74658869
scalar OsgEarthNet.uav[97] utilizationSecMaintenance 12783.702376835
scalar OsgEarthNet.uav[97] utilizationSecCharge 151468.12877325
scalar OsgEarthNet.uav[97] utilizationSecIdle 66596.421261223
scalar OsgEarthNet.uav[97] utilizationEnergyMission 137720.36194611
scalar OsgEarthNet.uav[97] utilizationEnergyMaintenance 59419.852176666
scalar OsgEarthNet.uav[97] utilizationEnergyCharge 196237.1640625
scalar OsgEarthNet.uav[97] utilizationEnergyOverdrawMission 0
scalar OsgEarthNet.uav[97] utilizationEnergyOverdrawMaintenance 0
scalar OsgEarthNet.uav[97] utilizationCountMissions 43
scalar OsgEarthNet.uav[97] utilizationCountManeuversMission 938
scalar OsgEarthNet.uav[97] utilizationCountManeuversMaintenance 86
scalar OsgEarthNet.uav[97] utilizationCountChargeState 43
scalar OsgEarthNet.uav[97] utilizationCountOverdrawnAfterMission 0
scalar OsgEarthNet.uav[97] utilizationCountIdleState 43
scalar OsgEarthNet.uav[97] utilizationFail 0
scalar OsgEarthNet.uav[97] simulationTime 259200
scalar OsgEarthNet.uav[98] utilizationSecMission 32640.474116402
scalar OsgEarthNet.uav[98] utilizationSecMaintenance 20047.973262401
scalar OsgEarthNet.uav[98] utilizationSecCharge 189269.5486212
scalar OsgEarthNet.uav[98] utilizationSecIdle 17242.003
scalar OsgEarthNet.uav[98] utilizationEnergyMission 159561.54407883
scalar OsgEarthNet.uav[98] utilizationEnergyMaintenance 93819.369567871
scalar OsgEarthNet.uav[98] utilizationEnergyCharge 250765.02905273
scalar OsgEarthNet.uav[98] utilizationEnergyOverdrawMission 0
scalar OsgEarthNet.uav[98] utilizationEnergyOverdrawMaintenance 0
scalar OsgEarthNet.uav[98] utilizationCountMissions 55
scalar OsgEarthNet.uav[98] utilizationCountManeuversMission 1110
scalar OsgEarthNet.uav[98] utilizationCountManeuversMaintenance 110
scalar OsgEarthNet.uav[98] utilizationCountChargeState 55
scalar OsgEarthNet.uav[98] utilizationCountOverdrawnAfterMission 0
scalar OsgEarthNet.uav[98] utilizationCountIdleState 37
scalar OsgEarthNet.uav[98] utilizationFail 0
scalar OsgEarthNet.uav[98] simulationTime 259200
scalar OsgEarthNet.uav[99] utilizationSecMission 19650.002441285
scalar OsgEarthNet.uav[99] utilizationSecMaintenance 10686.442237247
scalar OsgEarthNet.uav[99] utilizationSecCharge 112302.35874234
scalar OsgEarthNet.uav[99] utilizationSecIdle 116561.19557912
scalar OsgEarthNet.uav[99] utilizationEnergyMission 95361.320960999
scalar OsgEarthNet.uav[99] utilizationEnergyMaintenance 50684.066650391
scalar OsgEarthNet.uav[99] utilizationEnergyCharge 144408.40722656
scalar OsgEarthNet.uav[99] utilizationEnergyOverdrawMission 0
scalar OsgEarthNet.uav[99] utilizationEnergyOverdrawMaintenance 0
scalar OsgEarthNet.uav[99] utilizationCountMissions 32
scalar OsgEarthNet.uav[99] utilizationCountManeuversMission 566
scalar OsgEarthNet.uav[99] utilizationCountManeuversMaintenance 64
scalar OsgEarthNet.uav[99] utilizationCountChargeState 32
scalar OsgEarthNet.uav[99] utilizationCountOverdrawnAfterMission 0
scalar OsgEarthNet.uav[99] utilizationCountIdleState 32
scalar OsgEarthNet.uav[99] utilizationFail 0
scalar OsgEarthNet.uav[99] simulationTime 259200
scalar OsgEarthNet.cs[0] usedPower 4031412.3732023
scalar OsgEarthNet.cs[0] chargedPower 4031412.3732023
scalar OsgEarthNet.cs[0] chargedMobileNodes 870
scalar OsgEarthNet.cs[0] reservations 895
scalar OsgEarthNet.cs[1] usedPower 3866441.1082289
scalar OsgEarthNet.cs[1] chargedPower 3866441.1082289
scalar OsgEarthNet.cs[1] chargedMobileNodes 601
scalar OsgEarthNet.cs[1] reservations 846
scalar OsgEarthNet.cs[2] usedPower 8916344.0932481
scalar OsgEarthNet.cs[2] chargedPower 8916344.0932481
scalar OsgEarthNet.cs[2] chargedMobileNodes 1862
scalar OsgEarthNet.cs[2] reservations 1943

