version 2
run Szenario_Hotel_Gabelbach-9-20180706-23:32:17-532
attr configname Szenario_Hotel_Gabelbach
attr datetime 20180706-23:32:17
attr experiment Szenario_Hotel_Gabelbach
attr inifile omnetpp.ini
attr iterationvars $replM=0
attr iterationvarsf replM=0-
attr measurement $replM=0
attr network OsgEarthNet
attr processid 532
attr repetition 9
attr replication #9
attr resultdir results
attr runnumber 9
attr seedset 9
itervar replM 0
param *.osgEarthScene.scene "\"Szenario_Hotel_Gabelbach.earth\""
param *.playgroundLatitude 50.6830269
param *.playgroundLongitude 10.8538055
param *.playgroundWidth 3500m
param *.playgroundHeight 3500m
param *.numCSs 3
param *.numUAVs 100
param *.cs[0].posX 3537m
param *.cs[0].posY 965m
param *.cs[0].posZ 538m
param *.cs[1].posX 312m
param *.cs[1].posY 1262m
param *.cs[1].posZ 539m
param *.cs[2].posX 2185m
param *.cs[2].posY 3026m
param *.cs[2].posZ 777m
param *.uav[*].replacementMethod 0
param *.*.timeStep 10s
param *.uav[*].commandPreviewCommandCount 20
param *.missionControl.missionFiles "\"missions\\\\Szenario_WB_Hotel_Gabelbach_Mission_Hotel.waypoints,missions\\\\Szenario_WB_Hotel_Gabelbach_Mission_Kickelhahn.waypoints,missions\\\\Szenario_WB_Hotel_Gabelbach_Mission_Ilmenau_Sportplatz.waypoints,missions\\\\Szenario_WB_Hotel_Gabelbach_Mission_Manebach_Mitte.waypoints,missions\\\\Szenario_WB_Hotel_Gabelbach_Mission_Manebach_Sued.waypoints,missions\\\\Szenario_WB_Hotel_Gabelbach_Hover_HoheSchlaufe.waypoints,missions\\\\Szenario_WB_Hotel_Gabelbach_Hover_Kickelhahn.waypoints,missions\\\\Szenario_WB_Hotel_Gabelbach_Hover_Gabelbachskopf.waypoints,missions\\\\Szenario_WB_Hotel_Gabelbach_Hover_Dachskopf.waypoints\""
param *.uav[0].startX 3537m
param *.uav[0].startY 965m
param *.uav[0].startZ 539m
param *.uav[1].startX 312m
param *.uav[1].startY 1262m
param *.uav[1].startZ 540m
param *.uav[2].startX 2185m
param *.uav[2].startY 3026m
param *.uav[2].startZ 778m
param *.uav[3].startX 3537m
param *.uav[3].startY 965m
param *.uav[3].startZ 539m
param *.uav[4].startX 312m
param *.uav[4].startY 1262m
param *.uav[4].startZ 540m
param *.uav[5].startX 2185m
param *.uav[5].startY 3026m
param *.uav[5].startZ 778m
param *.uav[6].startX 3537m
param *.uav[6].startY 965m
param *.uav[6].startZ 539m
param *.uav[7].startX 312m
param *.uav[7].startY 1262m
param *.uav[7].startZ 540m
param *.uav[8].startX 2185m
param *.uav[8].startY 3026m
param *.uav[8].startZ 778m
param *.uav[9].startX 3537m
param *.uav[9].startY 965m
param *.uav[9].startZ 539m
param *.uav[10].startX 3537m
param *.uav[10].startY 965m
param *.uav[10].startZ 539m
param *.uav[11].startX 312m
param *.uav[11].startY 1262m
param *.uav[11].startZ 540m
param *.uav[12].startX 2185m
param *.uav[12].startY 3026m
param *.uav[12].startZ 778m
param *.uav[13].startX 3537m
param *.uav[13].startY 965m
param *.uav[13].startZ 539m
param *.uav[14].startX 312m
param *.uav[14].startY 1262m
param *.uav[14].startZ 540m
param *.uav[15].startX 2185m
param *.uav[15].startY 3026m
param *.uav[15].startZ 778m
param *.uav[16].startX 3537m
param *.uav[16].startY 965m
param *.uav[16].startZ 539m
param *.uav[17].startX 312m
param *.uav[17].startY 1262m
param *.uav[17].startZ 540m
param *.uav[18].startX 2185m
param *.uav[18].startY 3026m
param *.uav[18].startZ 778m
param *.uav[19].startX 3537m
param *.uav[19].startY 965m
param *.uav[19].startZ 539m
param *.uav[20].startX 3537m
param *.uav[20].startY 965m
param *.uav[20].startZ 539m
param *.uav[21].startX 312m
param *.uav[21].startY 1262m
param *.uav[21].startZ 540m
param *.uav[22].startX 2185m
param *.uav[22].startY 3026m
param *.uav[22].startZ 778m
param *.uav[23].startX 3537m
param *.uav[23].startY 965m
param *.uav[23].startZ 539m
param *.uav[24].startX 312m
param *.uav[24].startY 1262m
param *.uav[24].startZ 540m
param *.uav[25].startX 2185m
param *.uav[25].startY 3026m
param *.uav[25].startZ 778m
param *.uav[26].startX 3537m
param *.uav[26].startY 965m
param *.uav[26].startZ 539m
param *.uav[27].startX 312m
param *.uav[27].startY 1262m
param *.uav[27].startZ 540m
param *.uav[28].startX 2185m
param *.uav[28].startY 3026m
param *.uav[28].startZ 778m
param *.uav[29].startX 3537m
param *.uav[29].startY 965m
param *.uav[29].startZ 539m
param *.uav[30].startX 3537m
param *.uav[30].startY 965m
param *.uav[30].startZ 539m
param *.uav[31].startX 312m
param *.uav[31].startY 1262m
param *.uav[31].startZ 540m
param *.uav[32].startX 2185m
param *.uav[32].startY 3026m
param *.uav[32].startZ 778m
param *.uav[33].startX 3537m
param *.uav[33].startY 965m
param *.uav[33].startZ 539m
param *.uav[34].startX 312m
param *.uav[34].startY 1262m
param *.uav[34].startZ 540m
param *.uav[35].startX 2185m
param *.uav[35].startY 3026m
param *.uav[35].startZ 778m
param *.uav[36].startX 3537m
param *.uav[36].startY 965m
param *.uav[36].startZ 539m
param *.uav[37].startX 312m
param *.uav[37].startY 1262m
param *.uav[37].startZ 540m
param *.uav[38].startX 2185m
param *.uav[38].startY 3026m
param *.uav[38].startZ 778m
param *.uav[39].startX 3537m
param *.uav[39].startY 965m
param *.uav[39].startZ 539m
param *.uav[40].startX 3537m
param *.uav[40].startY 965m
param *.uav[40].startZ 539m
param *.uav[41].startX 312m
param *.uav[41].startY 1262m
param *.uav[41].startZ 540m
param *.uav[42].startX 2185m
param *.uav[42].startY 3026m
param *.uav[42].startZ 778m
param *.uav[43].startX 3537m
param *.uav[43].startY 965m
param *.uav[43].startZ 539m
param *.uav[44].startX 312m
param *.uav[44].startY 1262m
param *.uav[44].startZ 540m
param *.uav[45].startX 2185m
param *.uav[45].startY 3026m
param *.uav[45].startZ 778m
param *.uav[46].startX 3537m
param *.uav[46].startY 965m
param *.uav[46].startZ 539m
param *.uav[47].startX 312m
param *.uav[47].startY 1262m
param *.uav[47].startZ 540m
param *.uav[48].startX 2185m
param *.uav[48].startY 3026m
param *.uav[48].startZ 778m
param *.uav[49].startX 3537m
param *.uav[49].startY 965m
param *.uav[49].startZ 539m
param *.uav[50].startX 3537m
param *.uav[50].startY 965m
param *.uav[50].startZ 539m
param *.uav[51].startX 312m
param *.uav[51].startY 1262m
param *.uav[51].startZ 540m
param *.uav[52].startX 2185m
param *.uav[52].startY 3026m
param *.uav[52].startZ 778m
param *.uav[53].startX 3537m
param *.uav[53].startY 965m
param *.uav[53].startZ 539m
param *.uav[54].startX 312m
param *.uav[54].startY 1262m
param *.uav[54].startZ 540m
param *.uav[55].startX 2185m
param *.uav[55].startY 3026m
param *.uav[55].startZ 778m
param *.uav[56].startX 3537m
param *.uav[56].startY 965m
param *.uav[56].startZ 539m
param *.uav[57].startX 312m
param *.uav[57].startY 1262m
param *.uav[57].startZ 540m
param *.uav[58].startX 2185m
param *.uav[58].startY 3026m
param *.uav[58].startZ 778m
param *.uav[59].startX 3537m
param *.uav[59].startY 965m
param *.uav[59].startZ 539m
param *.uav[60].startX 3537m
param *.uav[60].startY 965m
param *.uav[60].startZ 539m
param *.uav[61].startX 312m
param *.uav[61].startY 1262m
param *.uav[61].startZ 540m
param *.uav[62].startX 2185m
param *.uav[62].startY 3026m
param *.uav[62].startZ 778m
param *.uav[63].startX 3537m
param *.uav[63].startY 965m
param *.uav[63].startZ 539m
param *.uav[64].startX 312m
param *.uav[64].startY 1262m
param *.uav[64].startZ 540m
param *.uav[65].startX 2185m
param *.uav[65].startY 3026m
param *.uav[65].startZ 778m
param *.uav[66].startX 3537m
param *.uav[66].startY 965m
param *.uav[66].startZ 539m
param *.uav[67].startX 312m
param *.uav[67].startY 1262m
param *.uav[67].startZ 540m
param *.uav[68].startX 2185m
param *.uav[68].startY 3026m
param *.uav[68].startZ 778m
param *.uav[69].startX 3537m
param *.uav[69].startY 965m
param *.uav[69].startZ 539m
param *.uav[70].startX 3537m
param *.uav[70].startY 965m
param *.uav[70].startZ 539m
param *.uav[71].startX 312m
param *.uav[71].startY 1262m
param *.uav[71].startZ 540m
param *.uav[72].startX 2185m
param *.uav[72].startY 3026m
param *.uav[72].startZ 778m
param *.uav[73].startX 3537m
param *.uav[73].startY 965m
param *.uav[73].startZ 539m
param *.uav[74].startX 312m
param *.uav[74].startY 1262m
param *.uav[74].startZ 540m
param *.uav[75].startX 2185m
param *.uav[75].startY 3026m
param *.uav[75].startZ 778m
param *.uav[76].startX 3537m
param *.uav[76].startY 965m
param *.uav[76].startZ 539m
param *.uav[77].startX 312m
param *.uav[77].startY 1262m
param *.uav[77].startZ 540m
param *.uav[78].startX 2185m
param *.uav[78].startY 3026m
param *.uav[78].startZ 778m
param *.uav[79].startX 3537m
param *.uav[79].startY 965m
param *.uav[79].startZ 539m
param *.uav[80].startX 3537m
param *.uav[80].startY 965m
param *.uav[80].startZ 539m
param *.uav[81].startX 312m
param *.uav[81].startY 1262m
param *.uav[81].startZ 540m
param *.uav[82].startX 2185m
param *.uav[82].startY 3026m
param *.uav[82].startZ 778m
param *.uav[83].startX 3537m
param *.uav[83].startY 965m
param *.uav[83].startZ 539m
param *.uav[84].startX 312m
param *.uav[84].startY 1262m
param *.uav[84].startZ 540m
param *.uav[85].startX 2185m
param *.uav[85].startY 3026m
param *.uav[85].startZ 778m
param *.uav[86].startX 3537m
param *.uav[86].startY 965m
param *.uav[86].startZ 539m
param *.uav[87].startX 312m
param *.uav[87].startY 1262m
param *.uav[87].startZ 540m
param *.uav[88].startX 2185m
param *.uav[88].startY 3026m
param *.uav[88].startZ 778m
param *.uav[89].startX 3537m
param *.uav[89].startY 965m
param *.uav[89].startZ 539m
param *.uav[90].startX 3537m
param *.uav[90].startY 965m
param *.uav[90].startZ 539m
param *.uav[91].startX 312m
param *.uav[91].startY 1262m
param *.uav[91].startZ 540m
param *.uav[92].startX 2185m
param *.uav[92].startY 3026m
param *.uav[92].startZ 778m
param *.uav[93].startX 3537m
param *.uav[93].startY 965m
param *.uav[93].startZ 539m
param *.uav[94].startX 312m
param *.uav[94].startY 1262m
param *.uav[94].startZ 540m
param *.uav[95].startX 2185m
param *.uav[95].startY 3026m
param *.uav[95].startZ 778m
param *.uav[96].startX 3537m
param *.uav[96].startY 965m
param *.uav[96].startZ 539m
param *.uav[97].startX 312m
param *.uav[97].startY 1262m
param *.uav[97].startZ 540m
param *.uav[98].startX 2185m
param *.uav[98].startY 3026m
param *.uav[98].startZ 778m
param *.uav[99].startX 3537m
param *.uav[99].startY 965m
param *.uav[99].startZ 539m
param *.osgEarthScene.scene "\"boston.earth\""
param *.playgroundLatitude 42.3558
param *.playgroundLongitude -71.0677
param *.playgroundWidth 400m
param *.playgroundHeight 200m
param *.channelController.connectionColor "\"#0000FF40\""
param *.channelController.showConnections false
param *.uav[*].modelURL "\"quadrocopter.small.obj.15.scale.0,0,90.rot\""
param *.uav[*].labelColor "\"#FF7C00CC\""
param *.uav[*].label2Color "\"#FF7C00EE\""
param *.uav[*].batteryCapacity 5200mAh
param *.uav[*].batteryRemaining uav[index].batteryCapacity
param *.uav[*].predictionQuantile 0.95
param *.uav[*].replacementMethod 2
param *.uav[*].weightedSumWeight 0.5
param *.cs[*].modelURL "\"chargingstation_v1.osgt.1.scale.0,0,0.rot.0,0,-15e-1.trans\""
param *.cs[*].spotsWaiting 999
param *.cs[*].spotsCharging 999
param *.cs[*].chargeEffectivenessPercentage 100
param *.cs[*].nonLinearPhaseStartPercentage 85
param *.cs[*].chargeCurrent 6.0A
param *.cs[*].prioritizeFastCharge true
param *.missionControl.replacementSearchMethod 0
param *.*.timeStep 9s

scalar OsgEarthNet.uav[0] utilizationSecMission 17259.296554055
scalar OsgEarthNet.uav[0] utilizationSecMaintenance 19637.522724552
scalar OsgEarthNet.uav[0] utilizationSecCharge 131725.08182392
scalar OsgEarthNet.uav[0] utilizationSecIdle 90578.097897473
scalar OsgEarthNet.uav[0] utilizationEnergyMission 83166.380756378
scalar OsgEarthNet.uav[0] utilizationEnergyMaintenance 91967.468647003
scalar OsgEarthNet.uav[0] utilizationEnergyCharge 173636.36816406
scalar OsgEarthNet.uav[0] utilizationEnergyOverdrawMission 0
scalar OsgEarthNet.uav[0] utilizationEnergyOverdrawMaintenance 277.78497314453
scalar OsgEarthNet.uav[0] utilizationCountMissions 39
scalar OsgEarthNet.uav[0] utilizationCountManeuversMission 535
scalar OsgEarthNet.uav[0] utilizationCountManeuversMaintenance 78
scalar OsgEarthNet.uav[0] utilizationCountChargeState 39
scalar OsgEarthNet.uav[0] utilizationCountOverdrawnAfterMission 1
scalar OsgEarthNet.uav[0] utilizationCountIdleState 39
scalar OsgEarthNet.uav[0] utilizationFail 0
scalar OsgEarthNet.uav[1] utilizationSecMission 9973.2177361291
scalar OsgEarthNet.uav[1] utilizationSecMaintenance 9741.8255650643
scalar OsgEarthNet.uav[1] utilizationSecCharge 71600
scalar OsgEarthNet.uav[1] utilizationSecIdle 167884.95569881
scalar OsgEarthNet.uav[1] utilizationEnergyMission 48833.959037781
scalar OsgEarthNet.uav[1] utilizationEnergyMaintenance 45091.961719513
scalar OsgEarthNet.uav[1] utilizationEnergyCharge 94004.237304688
scalar OsgEarthNet.uav[1] utilizationEnergyOverdrawMission 0
scalar OsgEarthNet.uav[1] utilizationEnergyOverdrawMaintenance 284.24774169922
scalar OsgEarthNet.uav[1] utilizationCountMissions 21
scalar OsgEarthNet.uav[1] utilizationCountManeuversMission 332
scalar OsgEarthNet.uav[1] utilizationCountManeuversMaintenance 42
scalar OsgEarthNet.uav[1] utilizationCountChargeState 21
scalar OsgEarthNet.uav[1] utilizationCountOverdrawnAfterMission 1
scalar OsgEarthNet.uav[1] utilizationCountIdleState 22
scalar OsgEarthNet.uav[1] utilizationFail 0
scalar OsgEarthNet.uav[2] utilizationSecMission 27645.144770356
scalar OsgEarthNet.uav[2] utilizationSecMaintenance 24082.854229644
scalar OsgEarthNet.uav[2] utilizationSecCharge 186460
scalar OsgEarthNet.uav[2] utilizationSecIdle 21012
scalar OsgEarthNet.uav[2] utilizationEnergyMission 134415.22876734
scalar OsgEarthNet.uav[2] utilizationEnergyMaintenance 111711.3775444
scalar OsgEarthNet.uav[2] utilizationEnergyCharge 243892.828125
scalar OsgEarthNet.uav[2] utilizationEnergyOverdrawMission 0
scalar OsgEarthNet.uav[2] utilizationEnergyOverdrawMaintenance 0
scalar OsgEarthNet.uav[2] utilizationCountMissions 55
scalar OsgEarthNet.uav[2] utilizationCountManeuversMission 882
scalar OsgEarthNet.uav[2] utilizationCountManeuversMaintenance 111
scalar OsgEarthNet.uav[2] utilizationCountChargeState 55
scalar OsgEarthNet.uav[2] utilizationCountOverdrawnAfterMission 0
scalar OsgEarthNet.uav[2] utilizationCountIdleState 56
scalar OsgEarthNet.uav[2] utilizationFail 0
scalar OsgEarthNet.uav[3] utilizationSecMission 26455.270229064
scalar OsgEarthNet.uav[3] utilizationSecMaintenance 25142.728770936
scalar OsgEarthNet.uav[3] utilizationSecCharge 185750
scalar OsgEarthNet.uav[3] utilizationSecIdle 21852
scalar OsgEarthNet.uav[3] utilizationEnergyMission 128983.28227389
scalar OsgEarthNet.uav[3] utilizationEnergyMaintenance 116891.23526382
scalar OsgEarthNet.uav[3] utilizationEnergyCharge 242402.65478516
scalar OsgEarthNet.uav[3] utilizationEnergyOverdrawMission 0
scalar OsgEarthNet.uav[3] utilizationEnergyOverdrawMaintenance 0
scalar OsgEarthNet.uav[3] utilizationCountMissions 55
scalar OsgEarthNet.uav[3] utilizationCountManeuversMission 801
scalar OsgEarthNet.uav[3] utilizationCountManeuversMaintenance 110
scalar OsgEarthNet.uav[3] utilizationCountChargeState 55
scalar OsgEarthNet.uav[3] utilizationCountOverdrawnAfterMission 0
scalar OsgEarthNet.uav[3] utilizationCountIdleState 56
scalar OsgEarthNet.uav[3] utilizationFail 0
scalar OsgEarthNet.uav[4] utilizationSecMission 26251.779082534
scalar OsgEarthNet.uav[4] utilizationSecMaintenance 24286.952774905
scalar OsgEarthNet.uav[4] utilizationSecCharge 181954.84188134
scalar OsgEarthNet.uav[4] utilizationSecIdle 26706.425261223
scalar OsgEarthNet.uav[4] utilizationEnergyMission 128407.28871155
scalar OsgEarthNet.uav[4] utilizationEnergyMaintenance 112948.65949249
scalar OsgEarthNet.uav[4] utilizationEnergyCharge 237508.91461182
scalar OsgEarthNet.uav[4] utilizationEnergyOverdrawMission 0
scalar OsgEarthNet.uav[4] utilizationEnergyOverdrawMaintenance 0
scalar OsgEarthNet.uav[4] utilizationCountMissions 55
scalar OsgEarthNet.uav[4] utilizationCountManeuversMission 885
scalar OsgEarthNet.uav[4] utilizationCountManeuversMaintenance 110
scalar OsgEarthNet.uav[4] utilizationCountChargeState 55
scalar OsgEarthNet.uav[4] utilizationCountOverdrawnAfterMission 0
scalar OsgEarthNet.uav[4] utilizationCountIdleState 55
scalar OsgEarthNet.uav[4] utilizationFail 0
scalar OsgEarthNet.uav[5] utilizationSecMission 23844.643757952
scalar OsgEarthNet.uav[5] utilizationSecMaintenance 22884.211212444
scalar OsgEarthNet.uav[5] utilizationSecCharge 168619.1410296
scalar OsgEarthNet.uav[5] utilizationSecIdle 43852.003
scalar OsgEarthNet.uav[5] utilizationEnergyMission 116843.1555481
scalar OsgEarthNet.uav[5] utilizationEnergyMaintenance 104525.7802124
scalar OsgEarthNet.uav[5] utilizationEnergyCharge 221984.66088867
scalar OsgEarthNet.uav[5] utilizationEnergyOverdrawMission 0
scalar OsgEarthNet.uav[5] utilizationEnergyOverdrawMaintenance 0
scalar OsgEarthNet.uav[5] utilizationCountMissions 50
scalar OsgEarthNet.uav[5] utilizationCountManeuversMission 806
scalar OsgEarthNet.uav[5] utilizationCountManeuversMaintenance 100
scalar OsgEarthNet.uav[5] utilizationCountChargeState 50
scalar OsgEarthNet.uav[5] utilizationCountOverdrawnAfterMission 0
scalar OsgEarthNet.uav[5] utilizationCountIdleState 50
scalar OsgEarthNet.uav[5] utilizationFail 0
scalar OsgEarthNet.uav[6] utilizationSecMission 460
scalar OsgEarthNet.uav[6] utilizationSecMaintenance 363.8841636065
scalar OsgEarthNet.uav[6] utilizationSecCharge 3360
scalar OsgEarthNet.uav[6] utilizationSecIdle 255016.11483639
scalar OsgEarthNet.uav[6] utilizationEnergyMission 2371.4796600342
scalar OsgEarthNet.uav[6] utilizationEnergyMaintenance 1793.2032585144
scalar OsgEarthNet.uav[6] utilizationEnergyCharge 4349.888671875
scalar OsgEarthNet.uav[6] utilizationEnergyOverdrawMission 0
scalar OsgEarthNet.uav[6] utilizationEnergyOverdrawMaintenance 0
scalar OsgEarthNet.uav[6] utilizationCountMissions 1
scalar OsgEarthNet.uav[6] utilizationCountManeuversMission 23
scalar OsgEarthNet.uav[6] utilizationCountManeuversMaintenance 2
scalar OsgEarthNet.uav[6] utilizationCountChargeState 1
scalar OsgEarthNet.uav[6] utilizationCountOverdrawnAfterMission 0
scalar OsgEarthNet.uav[6] utilizationCountIdleState 2
scalar OsgEarthNet.uav[6] utilizationFail 0
scalar OsgEarthNet.uav[7] utilizationSecMission 26076.762117943
scalar OsgEarthNet.uav[7] utilizationSecMaintenance 22856.810620834
scalar OsgEarthNet.uav[7] utilizationSecCharge 176730
scalar OsgEarthNet.uav[7] utilizationSecIdle 33536.426261223
scalar OsgEarthNet.uav[7] utilizationEnergyMission 126842.80226135
scalar OsgEarthNet.uav[7] utilizationEnergyMaintenance 107031.56081326
scalar OsgEarthNet.uav[7] utilizationEnergyCharge 231421.46142578
scalar OsgEarthNet.uav[7] utilizationEnergyOverdrawMission 0
scalar OsgEarthNet.uav[7] utilizationEnergyOverdrawMaintenance 216.02177429199
scalar OsgEarthNet.uav[7] utilizationCountMissions 52
scalar OsgEarthNet.uav[7] utilizationCountManeuversMission 809
scalar OsgEarthNet.uav[7] utilizationCountManeuversMaintenance 105
scalar OsgEarthNet.uav[7] utilizationCountChargeState 52
scalar OsgEarthNet.uav[7] utilizationCountOverdrawnAfterMission 1
scalar OsgEarthNet.uav[7] utilizationCountIdleState 53
scalar OsgEarthNet.uav[7] utilizationFail 0
scalar OsgEarthNet.uav[8] utilizationSecMission 17762.420048969
scalar OsgEarthNet.uav[8] utilizationSecMaintenance 16210.815275438
scalar OsgEarthNet.uav[8] utilizationSecCharge 120674.75767559
scalar OsgEarthNet.uav[8] utilizationSecIdle 104552.006
scalar OsgEarthNet.uav[8] utilizationEnergyMission 85741.178287506
scalar OsgEarthNet.uav[8] utilizationEnergyMaintenance 75705.204402924
scalar OsgEarthNet.uav[8] utilizationEnergyCharge 158516.62524414
scalar OsgEarthNet.uav[8] utilizationEnergyOverdrawMission 0
scalar OsgEarthNet.uav[8] utilizationEnergyOverdrawMaintenance 0
scalar OsgEarthNet.uav[8] utilizationCountMissions 36
scalar OsgEarthNet.uav[8] utilizationCountManeuversMission 517
scalar OsgEarthNet.uav[8] utilizationCountManeuversMaintenance 72
scalar OsgEarthNet.uav[8] utilizationCountChargeState 36
scalar OsgEarthNet.uav[8] utilizationCountOverdrawnAfterMission 0
scalar OsgEarthNet.uav[8] utilizationCountIdleState 36
scalar OsgEarthNet.uav[8] utilizationFail 0
scalar OsgEarthNet.uav[9] utilizationSecMission 1308.1936691689
scalar OsgEarthNet.uav[9] utilizationSecMaintenance 510.99712122621
scalar OsgEarthNet.uav[9] utilizationSecCharge 6720
scalar OsgEarthNet.uav[9] utilizationSecIdle 250660.8082096
scalar OsgEarthNet.uav[9] utilizationEnergyMission 6601.7508277893
scalar OsgEarthNet.uav[9] utilizationEnergyMaintenance 2317.2591781616
scalar OsgEarthNet.uav[9] utilizationEnergyCharge 8768.9135742188
scalar OsgEarthNet.uav[9] utilizationEnergyOverdrawMission 0
scalar OsgEarthNet.uav[9] utilizationEnergyOverdrawMaintenance 0
scalar OsgEarthNet.uav[9] utilizationCountMissions 2
scalar OsgEarthNet.uav[9] utilizationCountManeuversMission 37
scalar OsgEarthNet.uav[9] utilizationCountManeuversMaintenance 4
scalar OsgEarthNet.uav[9] utilizationCountChargeState 2
scalar OsgEarthNet.uav[9] utilizationCountOverdrawnAfterMission 0
scalar OsgEarthNet.uav[9] utilizationCountIdleState 3
scalar OsgEarthNet.uav[9] utilizationFail 0
scalar OsgEarthNet.uav[10] utilizationSecMission 25583.913610993
scalar OsgEarthNet.uav[10] utilizationSecMaintenance 23913.517601303
scalar OsgEarthNet.uav[10] utilizationSecCharge 178870.5637877
scalar OsgEarthNet.uav[10] utilizationSecIdle 30832.004
scalar OsgEarthNet.uav[10] utilizationEnergyMission 125184.0908165
scalar OsgEarthNet.uav[10] utilizationEnergyMaintenance 111249.5550766
scalar OsgEarthNet.uav[10] utilizationEnergyCharge 233838.48852539
scalar OsgEarthNet.uav[10] utilizationEnergyOverdrawMission 0
scalar OsgEarthNet.uav[10] utilizationEnergyOverdrawMaintenance 0
scalar OsgEarthNet.uav[10] utilizationCountMissions 54
scalar OsgEarthNet.uav[10] utilizationCountManeuversMission 907
scalar OsgEarthNet.uav[10] utilizationCountManeuversMaintenance 108
scalar OsgEarthNet.uav[10] utilizationCountChargeState 54
scalar OsgEarthNet.uav[10] utilizationCountOverdrawnAfterMission 0
scalar OsgEarthNet.uav[10] utilizationCountIdleState 54
scalar OsgEarthNet.uav[10] utilizationFail 0
scalar OsgEarthNet.uav[11] utilizationSecMission 23449.643625724
scalar OsgEarthNet.uav[11] utilizationSecMaintenance 19439.530908056
scalar OsgEarthNet.uav[11] utilizationSecCharge 154240
scalar OsgEarthNet.uav[11] utilizationSecIdle 62070.82446622
scalar OsgEarthNet.uav[11] utilizationEnergyMission 113674.48024368
scalar OsgEarthNet.uav[11] utilizationEnergyMaintenance 89502.987762451
scalar OsgEarthNet.uav[11] utilizationEnergyCharge 202907.63647461
scalar OsgEarthNet.uav[11] utilizationEnergyOverdrawMission 0
scalar OsgEarthNet.uav[11] utilizationEnergyOverdrawMaintenance 0
scalar OsgEarthNet.uav[11] utilizationCountMissions 45
scalar OsgEarthNet.uav[11] utilizationCountManeuversMission 711
scalar OsgEarthNet.uav[11] utilizationCountManeuversMaintenance 90
scalar OsgEarthNet.uav[11] utilizationCountChargeState 45
scalar OsgEarthNet.uav[11] utilizationCountOverdrawnAfterMission 0
scalar OsgEarthNet.uav[11] utilizationCountIdleState 46
scalar OsgEarthNet.uav[11] utilizationFail 0
scalar OsgEarthNet.uav[12] utilizationSecMission 4986.2344850781
scalar OsgEarthNet.uav[12] utilizationSecMaintenance 3818.8080550141
scalar OsgEarthNet.uav[12] utilizationSecCharge 31330
scalar OsgEarthNet.uav[12] utilizationSecIdle 219064.95645991
scalar OsgEarthNet.uav[12] utilizationEnergyMission 23760.816303253
scalar OsgEarthNet.uav[12] utilizationEnergyMaintenance 17547.158439636
scalar OsgEarthNet.uav[12] utilizationEnergyCharge 41279.34375
scalar OsgEarthNet.uav[12] utilizationEnergyOverdrawMission 0
scalar OsgEarthNet.uav[12] utilizationEnergyOverdrawMaintenance 0
scalar OsgEarthNet.uav[12] utilizationCountMissions 9
scalar OsgEarthNet.uav[12] utilizationCountManeuversMission 130
scalar OsgEarthNet.uav[12] utilizationCountManeuversMaintenance 18
scalar OsgEarthNet.uav[12] utilizationCountChargeState 9
scalar OsgEarthNet.uav[12] utilizationCountOverdrawnAfterMission 0
scalar OsgEarthNet.uav[12] utilizationCountIdleState 10
scalar OsgEarthNet.uav[12] utilizationFail 0
scalar OsgEarthNet.uav[13] utilizationSecMission 27086.212661986
scalar OsgEarthNet.uav[13] utilizationSecMaintenance 23700.159147232
scalar OsgEarthNet.uav[13] utilizationSecCharge 183306.38235523
scalar OsgEarthNet.uav[13] utilizationSecIdle 25107.24483555
scalar OsgEarthNet.uav[13] utilizationEnergyMission 130709.80017471
scalar OsgEarthNet.uav[13] utilizationEnergyMaintenance 109338.88734817
scalar OsgEarthNet.uav[13] utilizationEnergyCharge 240079.4987793
scalar OsgEarthNet.uav[13] utilizationEnergyOverdrawMission 0
scalar OsgEarthNet.uav[13] utilizationEnergyOverdrawMaintenance 0
scalar OsgEarthNet.uav[13] utilizationCountMissions 54
scalar OsgEarthNet.uav[13] utilizationCountManeuversMission 835
scalar OsgEarthNet.uav[13] utilizationCountManeuversMaintenance 108
scalar OsgEarthNet.uav[13] utilizationCountChargeState 54
scalar OsgEarthNet.uav[13] utilizationCountOverdrawnAfterMission 0
scalar OsgEarthNet.uav[13] utilizationCountIdleState 54
scalar OsgEarthNet.uav[13] utilizationFail 0
scalar OsgEarthNet.uav[14] utilizationSecMission 25664.466963449
scalar OsgEarthNet.uav[14] utilizationSecMaintenance 23282.780881072
scalar OsgEarthNet.uav[14] utilizationSecCharge 172966.27634369
scalar OsgEarthNet.uav[14] utilizationSecIdle 37286.474811791
scalar OsgEarthNet.uav[14] utilizationEnergyMission 122805.89219284
scalar OsgEarthNet.uav[14] utilizationEnergyMaintenance 108839.3250618
scalar OsgEarthNet.uav[14] utilizationEnergyCharge 227852.76098633
scalar OsgEarthNet.uav[14] utilizationEnergyOverdrawMission 0
scalar OsgEarthNet.uav[14] utilizationEnergyOverdrawMaintenance 0
scalar OsgEarthNet.uav[14] utilizationCountMissions 51
scalar OsgEarthNet.uav[14] utilizationCountManeuversMission 710
scalar OsgEarthNet.uav[14] utilizationCountManeuversMaintenance 102
scalar OsgEarthNet.uav[14] utilizationCountChargeState 51
scalar OsgEarthNet.uav[14] utilizationCountOverdrawnAfterMission 0
scalar OsgEarthNet.uav[14] utilizationCountIdleState 51
scalar OsgEarthNet.uav[14] utilizationFail 0
scalar OsgEarthNet.uav[15] utilizationSecMission 27272.756514956
scalar OsgEarthNet.uav[15] utilizationSecMaintenance 23450.849106741
scalar OsgEarthNet.uav[15] utilizationSecCharge 182664.3923783
scalar OsgEarthNet.uav[15] utilizationSecIdle 25812.001
scalar OsgEarthNet.uav[15] utilizationEnergyMission 133000.70023346
scalar OsgEarthNet.uav[15] utilizationEnergyMaintenance 108315.69697571
scalar OsgEarthNet.uav[15] utilizationEnergyCharge 240407.76269531
scalar OsgEarthNet.uav[15] utilizationEnergyOverdrawMission 0
scalar OsgEarthNet.uav[15] utilizationEnergyOverdrawMaintenance 99.512344360352
scalar OsgEarthNet.uav[15] utilizationCountMissions 54
scalar OsgEarthNet.uav[15] utilizationCountManeuversMission 884
scalar OsgEarthNet.uav[15] utilizationCountManeuversMaintenance 108
scalar OsgEarthNet.uav[15] utilizationCountChargeState 54
scalar OsgEarthNet.uav[15] utilizationCountOverdrawnAfterMission 1
scalar OsgEarthNet.uav[15] utilizationCountIdleState 54
scalar OsgEarthNet.uav[15] utilizationFail 0
scalar OsgEarthNet.uav[16] utilizationSecMission 24059.419950691
scalar OsgEarthNet.uav[16] utilizationSecMaintenance 22991.677198383
scalar OsgEarthNet.uav[16] utilizationSecCharge 166843.63025905
scalar OsgEarthNet.uav[16] utilizationSecIdle 45305.271591872
scalar OsgEarthNet.uav[16] utilizationEnergyMission 117177.29562378
scalar OsgEarthNet.uav[16] utilizationEnergyMaintenance 106884.06916046
scalar OsgEarthNet.uav[16] utilizationEnergyCharge 218609.16131592
scalar OsgEarthNet.uav[16] utilizationEnergyOverdrawMission 0
scalar OsgEarthNet.uav[16] utilizationEnergyOverdrawMaintenance 236.0460357666
scalar OsgEarthNet.uav[16] utilizationCountMissions 50
scalar OsgEarthNet.uav[16] utilizationCountManeuversMission 807
scalar OsgEarthNet.uav[16] utilizationCountManeuversMaintenance 100
scalar OsgEarthNet.uav[16] utilizationCountChargeState 50
scalar OsgEarthNet.uav[16] utilizationCountOverdrawnAfterMission 1
scalar OsgEarthNet.uav[16] utilizationCountIdleState 50
scalar OsgEarthNet.uav[16] utilizationFail 0
scalar OsgEarthNet.uav[17] utilizationSecMission 24472.745791402
scalar OsgEarthNet.uav[17] utilizationSecMaintenance 24180.824947375
scalar OsgEarthNet.uav[17] utilizationSecCharge 174940
scalar OsgEarthNet.uav[17] utilizationSecIdle 35606.428261223
scalar OsgEarthNet.uav[17] utilizationEnergyMission 117410.12377041
scalar OsgEarthNet.uav[17] utilizationEnergyMaintenance 112582.69167328
scalar OsgEarthNet.uav[17] utilizationEnergyCharge 229259.09716797
scalar OsgEarthNet.uav[17] utilizationEnergyOverdrawMission 0
scalar OsgEarthNet.uav[17] utilizationEnergyOverdrawMaintenance 0
scalar OsgEarthNet.uav[17] utilizationCountMissions 51
scalar OsgEarthNet.uav[17] utilizationCountManeuversMission 786
scalar OsgEarthNet.uav[17] utilizationCountManeuversMaintenance 103
scalar OsgEarthNet.uav[17] utilizationCountChargeState 51
scalar OsgEarthNet.uav[17] utilizationCountOverdrawnAfterMission 0
scalar OsgEarthNet.uav[17] utilizationCountIdleState 52
scalar OsgEarthNet.uav[17] utilizationFail 0
scalar OsgEarthNet.uav[18] utilizationSecMission 27199.252467306
scalar OsgEarthNet.uav[18] utilizationSecMaintenance 21987.869255176
scalar OsgEarthNet.uav[18] utilizationSecCharge 176230.87427752
scalar OsgEarthNet.uav[18] utilizationSecIdle 33782.003
scalar OsgEarthNet.uav[18] utilizationEnergyMission 132069.05738449
scalar OsgEarthNet.uav[18] utilizationEnergyMaintenance 103264.48508835
scalar OsgEarthNet.uav[18] utilizationEnergyCharge 230907.96582031
scalar OsgEarthNet.uav[18] utilizationEnergyOverdrawMission 0
scalar OsgEarthNet.uav[18] utilizationEnergyOverdrawMaintenance 0
scalar OsgEarthNet.uav[18] utilizationCountMissions 53
scalar OsgEarthNet.uav[18] utilizationCountManeuversMission 850
scalar OsgEarthNet.uav[18] utilizationCountManeuversMaintenance 106
scalar OsgEarthNet.uav[18] utilizationCountChargeState 53
scalar OsgEarthNet.uav[18] utilizationCountOverdrawnAfterMission 0
scalar OsgEarthNet.uav[18] utilizationCountIdleState 53
scalar OsgEarthNet.uav[18] utilizationFail 0
scalar OsgEarthNet.uav[19] utilizationSecMission 24449.888018782
scalar OsgEarthNet.uav[19] utilizationSecMaintenance 22882.207562696
scalar OsgEarthNet.uav[19] utilizationSecCharge 166695.89141852
scalar OsgEarthNet.uav[19] utilizationSecIdle 45172.012
scalar OsgEarthNet.uav[19] utilizationEnergyMission 118334.12832642
scalar OsgEarthNet.uav[19] utilizationEnergyMaintenance 105630.11077881
scalar OsgEarthNet.uav[19] utilizationEnergyCharge 218629.07702637
scalar OsgEarthNet.uav[19] utilizationEnergyOverdrawMission 0
scalar OsgEarthNet.uav[19] utilizationEnergyOverdrawMaintenance 0
scalar OsgEarthNet.uav[19] utilizationCountMissions 50
scalar OsgEarthNet.uav[19] utilizationCountManeuversMission 771
scalar OsgEarthNet.uav[19] utilizationCountManeuversMaintenance 100
scalar OsgEarthNet.uav[19] utilizationCountChargeState 50
scalar OsgEarthNet.uav[19] utilizationCountOverdrawnAfterMission 0
scalar OsgEarthNet.uav[19] utilizationCountIdleState 50
scalar OsgEarthNet.uav[19] utilizationFail 0
scalar OsgEarthNet.uav[20] utilizationSecMission 500
scalar OsgEarthNet.uav[20] utilizationSecMaintenance 363.8841636065
scalar OsgEarthNet.uav[20] utilizationSecCharge 3300
scalar OsgEarthNet.uav[20] utilizationSecIdle 255036.11483639
scalar OsgEarthNet.uav[20] utilizationEnergyMission 2248.5241203308
scalar OsgEarthNet.uav[20] utilizationEnergyMaintenance 1742.9013175964
scalar OsgEarthNet.uav[20] utilizationEnergyCharge 4280.681640625
scalar OsgEarthNet.uav[20] utilizationEnergyOverdrawMission 0
scalar OsgEarthNet.uav[20] utilizationEnergyOverdrawMaintenance 0
scalar OsgEarthNet.uav[20] utilizationCountMissions 1
scalar OsgEarthNet.uav[20] utilizationCountManeuversMission 25
scalar OsgEarthNet.uav[20] utilizationCountManeuversMaintenance 2
scalar OsgEarthNet.uav[20] utilizationCountChargeState 1
scalar OsgEarthNet.uav[20] utilizationCountOverdrawnAfterMission 0
scalar OsgEarthNet.uav[20] utilizationCountIdleState 2
scalar OsgEarthNet.uav[20] utilizationFail 0
scalar OsgEarthNet.uav[21] utilizationSecMission 23088.723717163
scalar OsgEarthNet.uav[21] utilizationSecMaintenance 21449.95389088
scalar OsgEarthNet.uav[21] utilizationSecCharge 159085.4142964
scalar OsgEarthNet.uav[21] utilizationSecIdle 55575.907095553
scalar OsgEarthNet.uav[21] utilizationEnergyMission 113437.54631424
scalar OsgEarthNet.uav[21] utilizationEnergyMaintenance 99726.112319946
scalar OsgEarthNet.uav[21] utilizationEnergyCharge 207995.89001465
scalar OsgEarthNet.uav[21] utilizationEnergyOverdrawMission 0
scalar OsgEarthNet.uav[21] utilizationEnergyOverdrawMaintenance 0
scalar OsgEarthNet.uav[21] utilizationCountMissions 48
scalar OsgEarthNet.uav[21] utilizationCountManeuversMission 710
scalar OsgEarthNet.uav[21] utilizationCountManeuversMaintenance 96
scalar OsgEarthNet.uav[21] utilizationCountChargeState 48
scalar OsgEarthNet.uav[21] utilizationCountOverdrawnAfterMission 0
scalar OsgEarthNet.uav[21] utilizationCountIdleState 48
scalar OsgEarthNet.uav[21] utilizationFail 0
scalar OsgEarthNet.uav[22] utilizationSecMission 23531.115363153
scalar OsgEarthNet.uav[22] utilizationSecMaintenance 16563.677693026
scalar OsgEarthNet.uav[22] utilizationSecCharge 145819.75029042
scalar OsgEarthNet.uav[22] utilizationSecIdle 73285.455653403
scalar OsgEarthNet.uav[22] utilizationEnergyMission 115076.51482391
scalar OsgEarthNet.uav[22] utilizationEnergyMaintenance 76969.457946777
scalar OsgEarthNet.uav[22] utilizationEnergyCharge 191406.10620117
scalar OsgEarthNet.uav[22] utilizationEnergyOverdrawMission 0
scalar OsgEarthNet.uav[22] utilizationEnergyOverdrawMaintenance 0
scalar OsgEarthNet.uav[22] utilizationCountMissions 43
scalar OsgEarthNet.uav[22] utilizationCountManeuversMission 744
scalar OsgEarthNet.uav[22] utilizationCountManeuversMaintenance 86
scalar OsgEarthNet.uav[22] utilizationCountChargeState 43
scalar OsgEarthNet.uav[22] utilizationCountOverdrawnAfterMission 0
scalar OsgEarthNet.uav[22] utilizationCountIdleState 43
scalar OsgEarthNet.uav[22] utilizationFail 0
scalar OsgEarthNet.uav[23] utilizationSecMission 26942.227003419
scalar OsgEarthNet.uav[23] utilizationSecMaintenance 22504.056118201
scalar OsgEarthNet.uav[23] utilizationSecCharge 178789.09479622
scalar OsgEarthNet.uav[23] utilizationSecIdle 30964.621082158
scalar OsgEarthNet.uav[23] utilizationEnergyMission 129572.54520416
scalar OsgEarthNet.uav[23] utilizationEnergyMaintenance 104340.22389984
scalar OsgEarthNet.uav[23] utilizationEnergyCharge 233440.5390625
scalar OsgEarthNet.uav[23] utilizationEnergyOverdrawMission 0
scalar OsgEarthNet.uav[23] utilizationEnergyOverdrawMaintenance 0
scalar OsgEarthNet.uav[23] utilizationCountMissions 53
scalar OsgEarthNet.uav[23] utilizationCountManeuversMission 845
scalar OsgEarthNet.uav[23] utilizationCountManeuversMaintenance 106
scalar OsgEarthNet.uav[23] utilizationCountChargeState 53
scalar OsgEarthNet.uav[23] utilizationCountOverdrawnAfterMission 0
scalar OsgEarthNet.uav[23] utilizationCountIdleState 53
scalar OsgEarthNet.uav[23] utilizationFail 0
scalar OsgEarthNet.uav[24] utilizationSecMission 583.81443570057
scalar OsgEarthNet.uav[24] utilizationSecMaintenance 461.61457045686
scalar OsgEarthNet.uav[24] utilizationSecCharge 3500
scalar OsgEarthNet.uav[24] utilizationSecIdle 254654.56999384
scalar OsgEarthNet.uav[24] utilizationEnergyMission 2612.5910186768
scalar OsgEarthNet.uav[24] utilizationEnergyMaintenance 2082.0994682312
scalar OsgEarthNet.uav[24] utilizationEnergyCharge 4581.2109375
scalar OsgEarthNet.uav[24] utilizationEnergyOverdrawMission 0
scalar OsgEarthNet.uav[24] utilizationEnergyOverdrawMaintenance 0
scalar OsgEarthNet.uav[24] utilizationCountMissions 1
scalar OsgEarthNet.uav[24] utilizationCountManeuversMission 9
scalar OsgEarthNet.uav[24] utilizationCountManeuversMaintenance 2
scalar OsgEarthNet.uav[24] utilizationCountChargeState 1
scalar OsgEarthNet.uav[24] utilizationCountOverdrawnAfterMission 0
scalar OsgEarthNet.uav[24] utilizationCountIdleState 2
scalar OsgEarthNet.uav[24] utilizationFail 0
scalar OsgEarthNet.uav[25] utilizationSecMission 25350.900136086
scalar OsgEarthNet.uav[25] utilizationSecMaintenance 24123.03463167
scalar OsgEarthNet.uav[25] utilizationSecCharge 178664.61127353
scalar OsgEarthNet.uav[25] utilizationSecIdle 31061.452958717
scalar OsgEarthNet.uav[25] utilizationEnergyMission 122363.66724014
scalar OsgEarthNet.uav[25] utilizationEnergyMaintenance 112524.95570374
scalar OsgEarthNet.uav[25] utilizationEnergyCharge 234856.85595703
scalar OsgEarthNet.uav[25] utilizationEnergyOverdrawMission 0
scalar OsgEarthNet.uav[25] utilizationEnergyOverdrawMaintenance 0
scalar OsgEarthNet.uav[25] utilizationCountMissions 53
scalar OsgEarthNet.uav[25] utilizationCountManeuversMission 780
scalar OsgEarthNet.uav[25] utilizationCountManeuversMaintenance 106
scalar OsgEarthNet.uav[25] utilizationCountChargeState 53
scalar OsgEarthNet.uav[25] utilizationCountOverdrawnAfterMission 0
scalar OsgEarthNet.uav[25] utilizationCountIdleState 53
scalar OsgEarthNet.uav[25] utilizationFail 0
scalar OsgEarthNet.uav[26] utilizationSecMission 2117.5095112153
scalar OsgEarthNet.uav[26] utilizationSecMaintenance 1573.752470124
scalar OsgEarthNet.uav[26] utilizationSecCharge 13350
scalar OsgEarthNet.uav[26] utilizationSecIdle 242158.73701866
scalar OsgEarthNet.uav[26] utilizationEnergyMission 10524.653251648
scalar OsgEarthNet.uav[26] utilizationEnergyMaintenance 7391.3502464294
scalar OsgEarthNet.uav[26] utilizationEnergyCharge 17274.351074219
scalar OsgEarthNet.uav[26] utilizationEnergyOverdrawMission 0
scalar OsgEarthNet.uav[26] utilizationEnergyOverdrawMaintenance 0
scalar OsgEarthNet.uav[26] utilizationCountMissions 4
scalar OsgEarthNet.uav[26] utilizationCountManeuversMission 59
scalar OsgEarthNet.uav[26] utilizationCountManeuversMaintenance 8
scalar OsgEarthNet.uav[26] utilizationCountChargeState 4
scalar OsgEarthNet.uav[26] utilizationCountOverdrawnAfterMission 0
scalar OsgEarthNet.uav[26] utilizationCountIdleState 5
scalar OsgEarthNet.uav[26] utilizationFail 0
scalar OsgEarthNet.uav[27] utilizationSecMission 8039.2030823639
scalar OsgEarthNet.uav[27] utilizationSecMaintenance 5416.4684514041
scalar OsgEarthNet.uav[27] utilizationSecCharge 48640
scalar OsgEarthNet.uav[27] utilizationSecIdle 197104.32746623
scalar OsgEarthNet.uav[27] utilizationEnergyMission 38732.523303986
scalar OsgEarthNet.uav[27] utilizationEnergyMaintenance 25709.712593079
scalar OsgEarthNet.uav[27] utilizationEnergyCharge 64438.393554688
scalar OsgEarthNet.uav[27] utilizationEnergyOverdrawMission 0
scalar OsgEarthNet.uav[27] utilizationEnergyOverdrawMaintenance 0
scalar OsgEarthNet.uav[27] utilizationCountMissions 14
scalar OsgEarthNet.uav[27] utilizationCountManeuversMission 220
scalar OsgEarthNet.uav[27] utilizationCountManeuversMaintenance 28
scalar OsgEarthNet.uav[27] utilizationCountChargeState 14
scalar OsgEarthNet.uav[27] utilizationCountOverdrawnAfterMission 0
scalar OsgEarthNet.uav[27] utilizationCountIdleState 15
scalar OsgEarthNet.uav[27] utilizationFail 0
scalar OsgEarthNet.uav[28] utilizationSecMission 23403.063452775
scalar OsgEarthNet.uav[28] utilizationSecMaintenance 17450.022882322
scalar OsgEarthNet.uav[28] utilizationSecCharge 146527.45431681
scalar OsgEarthNet.uav[28] utilizationSecIdle 71819.458348089
scalar OsgEarthNet.uav[28] utilizationEnergyMission 112388.43543243
scalar OsgEarthNet.uav[28] utilizationEnergyMaintenance 81892.14881897
scalar OsgEarthNet.uav[28] utilizationEnergyCharge 193425.50292969
scalar OsgEarthNet.uav[28] utilizationEnergyOverdrawMission 0
scalar OsgEarthNet.uav[28] utilizationEnergyOverdrawMaintenance 0
scalar OsgEarthNet.uav[28] utilizationCountMissions 43
scalar OsgEarthNet.uav[28] utilizationCountManeuversMission 702
scalar OsgEarthNet.uav[28] utilizationCountManeuversMaintenance 86
scalar OsgEarthNet.uav[28] utilizationCountChargeState 43
scalar OsgEarthNet.uav[28] utilizationCountOverdrawnAfterMission 0
scalar OsgEarthNet.uav[28] utilizationCountIdleState 43
scalar OsgEarthNet.uav[28] utilizationFail 0
scalar OsgEarthNet.uav[29] utilizationSecMission 23786.954067156
scalar OsgEarthNet.uav[29] utilizationSecMaintenance 23712.557926532
scalar OsgEarthNet.uav[29] utilizationSecCharge 170708.66426931
scalar OsgEarthNet.uav[29] utilizationSecIdle 40991.822737005
scalar OsgEarthNet.uav[29] utilizationEnergyMission 114755.86766052
scalar OsgEarthNet.uav[29] utilizationEnergyMaintenance 109564.61506653
scalar OsgEarthNet.uav[29] utilizationEnergyCharge 223454.58203125
scalar OsgEarthNet.uav[29] utilizationEnergyOverdrawMission 0
scalar OsgEarthNet.uav[29] utilizationEnergyOverdrawMaintenance 0
scalar OsgEarthNet.uav[29] utilizationCountMissions 51
scalar OsgEarthNet.uav[29] utilizationCountManeuversMission 737
scalar OsgEarthNet.uav[29] utilizationCountManeuversMaintenance 102
scalar OsgEarthNet.uav[29] utilizationCountChargeState 51
scalar OsgEarthNet.uav[29] utilizationCountOverdrawnAfterMission 0
scalar OsgEarthNet.uav[29] utilizationCountIdleState 51
scalar OsgEarthNet.uav[29] utilizationFail 0
scalar OsgEarthNet.uav[30] utilizationSecMission 28150.384357651
scalar OsgEarthNet.uav[30] utilizationSecMaintenance 23416.889214917
scalar OsgEarthNet.uav[30] utilizationSecCharge 183780.72342743
scalar OsgEarthNet.uav[30] utilizationSecIdle 23852.002
scalar OsgEarthNet.uav[30] utilizationEnergyMission 136006.52370834
scalar OsgEarthNet.uav[30] utilizationEnergyMaintenance 108475.239254
scalar OsgEarthNet.uav[30] utilizationEnergyCharge 240537.44995117
scalar OsgEarthNet.uav[30] utilizationEnergyOverdrawMission 0
scalar OsgEarthNet.uav[30] utilizationEnergyOverdrawMaintenance 0
scalar OsgEarthNet.uav[30] utilizationCountMissions 55
scalar OsgEarthNet.uav[30] utilizationCountManeuversMission 827
scalar OsgEarthNet.uav[30] utilizationCountManeuversMaintenance 110
scalar OsgEarthNet.uav[30] utilizationCountChargeState 55
scalar OsgEarthNet.uav[30] utilizationCountOverdrawnAfterMission 0
scalar OsgEarthNet.uav[30] utilizationCountIdleState 55
scalar OsgEarthNet.uav[30] utilizationFail 0
scalar OsgEarthNet.uav[31] utilizationSecMission 26328.70950802
scalar OsgEarthNet.uav[31] utilizationSecMaintenance 24483.386495577
scalar OsgEarthNet.uav[31] utilizationSecCharge 185440
scalar OsgEarthNet.uav[31] utilizationSecIdle 22947.902996402
scalar OsgEarthNet.uav[31] utilizationEnergyMission 129699.90756607
scalar OsgEarthNet.uav[31] utilizationEnergyMaintenance 114438.30980301
scalar OsgEarthNet.uav[31] utilizationEnergyCharge 241687.39428711
scalar OsgEarthNet.uav[31] utilizationEnergyOverdrawMission 0
scalar OsgEarthNet.uav[31] utilizationEnergyOverdrawMaintenance 0
scalar OsgEarthNet.uav[31] utilizationCountMissions 55
scalar OsgEarthNet.uav[31] utilizationCountManeuversMission 882
scalar OsgEarthNet.uav[31] utilizationCountManeuversMaintenance 110
scalar OsgEarthNet.uav[31] utilizationCountChargeState 55
scalar OsgEarthNet.uav[31] utilizationCountOverdrawnAfterMission 0
scalar OsgEarthNet.uav[31] utilizationCountIdleState 56
scalar OsgEarthNet.uav[31] utilizationFail 0
scalar OsgEarthNet.uav[32] utilizationSecMission 13526.512717812
scalar OsgEarthNet.uav[32] utilizationSecMaintenance 12797.022639679
scalar OsgEarthNet.uav[32] utilizationSecCharge 94620
scalar OsgEarthNet.uav[32] utilizationSecIdle 138256.46364251
scalar OsgEarthNet.uav[32] utilizationEnergyMission 64579.367706299
scalar OsgEarthNet.uav[32] utilizationEnergyMaintenance 58803.299575806
scalar OsgEarthNet.uav[32] utilizationEnergyCharge 123812.80395508
scalar OsgEarthNet.uav[32] utilizationEnergyOverdrawMission 0
scalar OsgEarthNet.uav[32] utilizationEnergyOverdrawMaintenance 0
scalar OsgEarthNet.uav[32] utilizationCountMissions 28
scalar OsgEarthNet.uav[32] utilizationCountManeuversMission 382
scalar OsgEarthNet.uav[32] utilizationCountManeuversMaintenance 56
scalar OsgEarthNet.uav[32] utilizationCountChargeState 28
scalar OsgEarthNet.uav[32] utilizationCountOverdrawnAfterMission 0
scalar OsgEarthNet.uav[32] utilizationCountIdleState 29
scalar OsgEarthNet.uav[32] utilizationFail 0
scalar OsgEarthNet.uav[33] utilizationSecMission 536.06111026321
scalar OsgEarthNet.uav[33] utilizationSecMaintenance 387.76056727994
scalar OsgEarthNet.uav[33] utilizationSecCharge 3310
scalar OsgEarthNet.uav[33] utilizationSecIdle 254966.17732246
scalar OsgEarthNet.uav[33] utilizationEnergyMission 2340.1411743164
scalar OsgEarthNet.uav[33] utilizationEnergyMaintenance 1963.5400619507
scalar OsgEarthNet.uav[33] utilizationEnergyCharge 4303.6826171875
scalar OsgEarthNet.uav[33] utilizationEnergyOverdrawMission 0
scalar OsgEarthNet.uav[33] utilizationEnergyOverdrawMaintenance 0
scalar OsgEarthNet.uav[33] utilizationCountMissions 1
scalar OsgEarthNet.uav[33] utilizationCountManeuversMission 8
scalar OsgEarthNet.uav[33] utilizationCountManeuversMaintenance 2
scalar OsgEarthNet.uav[33] utilizationCountChargeState 1
scalar OsgEarthNet.uav[33] utilizationCountOverdrawnAfterMission 0
scalar OsgEarthNet.uav[33] utilizationCountIdleState 2
scalar OsgEarthNet.uav[33] utilizationFail 0
scalar OsgEarthNet.uav[34] utilizationSecMission 22298.950601023
scalar OsgEarthNet.uav[34] utilizationSecMaintenance 23529.853736865
scalar OsgEarthNet.uav[34] utilizationSecCharge 165030
scalar OsgEarthNet.uav[34] utilizationSecIdle 48341.194662112
scalar OsgEarthNet.uav[34] utilizationEnergyMission 107578.55219269
scalar OsgEarthNet.uav[34] utilizationEnergyMaintenance 109013.59051895
scalar OsgEarthNet.uav[34] utilizationEnergyCharge 217250.16088867
scalar OsgEarthNet.uav[34] utilizationEnergyOverdrawMission 0
scalar OsgEarthNet.uav[34] utilizationEnergyOverdrawMaintenance 54.906311035156
scalar OsgEarthNet.uav[34] utilizationCountMissions 48
scalar OsgEarthNet.uav[34] utilizationCountManeuversMission 677
scalar OsgEarthNet.uav[34] utilizationCountManeuversMaintenance 96
scalar OsgEarthNet.uav[34] utilizationCountChargeState 48
scalar OsgEarthNet.uav[34] utilizationCountOverdrawnAfterMission 1
scalar OsgEarthNet.uav[34] utilizationCountIdleState 49
scalar OsgEarthNet.uav[34] utilizationFail 0
scalar OsgEarthNet.uav[35] utilizationSecMission 26807.076227991
scalar OsgEarthNet.uav[35] utilizationSecMaintenance 22597.093000299
scalar OsgEarthNet.uav[35] utilizationSecCharge 176386.6546613
scalar OsgEarthNet.uav[35] utilizationSecIdle 33409.175110411
scalar OsgEarthNet.uav[35] utilizationEnergyMission 128243.22297668
scalar OsgEarthNet.uav[35] utilizationEnergyMaintenance 104480.6973381
scalar OsgEarthNet.uav[35] utilizationEnergyCharge 232419.66210938
scalar OsgEarthNet.uav[35] utilizationEnergyOverdrawMission 0
scalar OsgEarthNet.uav[35] utilizationEnergyOverdrawMaintenance 0
scalar OsgEarthNet.uav[35] utilizationCountMissions 52
scalar OsgEarthNet.uav[35] utilizationCountManeuversMission 792
scalar OsgEarthNet.uav[35] utilizationCountManeuversMaintenance 104
scalar OsgEarthNet.uav[35] utilizationCountChargeState 52
scalar OsgEarthNet.uav[35] utilizationCountOverdrawnAfterMission 0
scalar OsgEarthNet.uav[35] utilizationCountIdleState 52
scalar OsgEarthNet.uav[35] utilizationFail 0
scalar OsgEarthNet.uav[36] utilizationSecMission 23648.364796333
scalar OsgEarthNet.uav[36] utilizationSecMaintenance 21975.7364596
scalar OsgEarthNet.uav[36] utilizationSecCharge 162340
scalar OsgEarthNet.uav[36] utilizationSecIdle 51235.897744067
scalar OsgEarthNet.uav[36] utilizationEnergyMission 114239.90469295
scalar OsgEarthNet.uav[36] utilizationEnergyMaintenance 102048.40852737
scalar OsgEarthNet.uav[36] utilizationEnergyCharge 212727.39892578
scalar OsgEarthNet.uav[36] utilizationEnergyOverdrawMission 0
scalar OsgEarthNet.uav[36] utilizationEnergyOverdrawMaintenance 0
scalar OsgEarthNet.uav[36] utilizationCountMissions 48
scalar OsgEarthNet.uav[36] utilizationCountManeuversMission 714
scalar OsgEarthNet.uav[36] utilizationCountManeuversMaintenance 97
scalar OsgEarthNet.uav[36] utilizationCountChargeState 48
scalar OsgEarthNet.uav[36] utilizationCountOverdrawnAfterMission 0
scalar OsgEarthNet.uav[36] utilizationCountIdleState 49
scalar OsgEarthNet.uav[36] utilizationFail 0
scalar OsgEarthNet.uav[37] utilizationSecMission 22011.903795265
scalar OsgEarthNet.uav[37] utilizationSecMaintenance 17263.312631563
scalar OsgEarthNet.uav[37] utilizationSecCharge 142160
scalar OsgEarthNet.uav[37] utilizationSecIdle 77764.782573172
scalar OsgEarthNet.uav[37] utilizationEnergyMission 106302.97355652
scalar OsgEarthNet.uav[37] utilizationEnergyMaintenance 80391.1525383
scalar OsgEarthNet.uav[37] utilizationEnergyCharge 186273.50488281
scalar OsgEarthNet.uav[37] utilizationEnergyOverdrawMission 0
scalar OsgEarthNet.uav[37] utilizationEnergyOverdrawMaintenance 0
scalar OsgEarthNet.uav[37] utilizationCountMissions 42
scalar OsgEarthNet.uav[37] utilizationCountManeuversMission 686
scalar OsgEarthNet.uav[37] utilizationCountManeuversMaintenance 84
scalar OsgEarthNet.uav[37] utilizationCountChargeState 42
scalar OsgEarthNet.uav[37] utilizationCountOverdrawnAfterMission 0
scalar OsgEarthNet.uav[37] utilizationCountIdleState 43
scalar OsgEarthNet.uav[37] utilizationFail 0
scalar OsgEarthNet.uav[38] utilizationSecMission 25146.735093373
scalar OsgEarthNet.uav[38] utilizationSecMaintenance 24393.568949063
scalar OsgEarthNet.uav[38] utilizationSecCharge 176210.26961027
scalar OsgEarthNet.uav[38] utilizationSecIdle 33449.42534729
scalar OsgEarthNet.uav[38] utilizationEnergyMission 120565.04687881
scalar OsgEarthNet.uav[38] utilizationEnergyMaintenance 112922.72808838
scalar OsgEarthNet.uav[38] utilizationEnergyCharge 230210.42382812
scalar OsgEarthNet.uav[38] utilizationEnergyOverdrawMission 0
scalar OsgEarthNet.uav[38] utilizationEnergyOverdrawMaintenance 0
scalar OsgEarthNet.uav[38] utilizationCountMissions 53
scalar OsgEarthNet.uav[38] utilizationCountManeuversMission 824
scalar OsgEarthNet.uav[38] utilizationCountManeuversMaintenance 106
scalar OsgEarthNet.uav[38] utilizationCountChargeState 53
scalar OsgEarthNet.uav[38] utilizationCountOverdrawnAfterMission 0
scalar OsgEarthNet.uav[38] utilizationCountIdleState 53
scalar OsgEarthNet.uav[38] utilizationFail 0
scalar OsgEarthNet.uav[39] utilizationSecMission 545.05972348896
scalar OsgEarthNet.uav[39] utilizationSecMaintenance 427.36308650536
scalar OsgEarthNet.uav[39] utilizationSecCharge 3420
scalar OsgEarthNet.uav[39] utilizationSecIdle 254807.57619001
scalar OsgEarthNet.uav[39] utilizationEnergyMission 2585.9161071777
scalar OsgEarthNet.uav[39] utilizationEnergyMaintenance 1925.1335067749
scalar OsgEarthNet.uav[39] utilizationEnergyCharge 4435.7309570312
scalar OsgEarthNet.uav[39] utilizationEnergyOverdrawMission 0
scalar OsgEarthNet.uav[39] utilizationEnergyOverdrawMaintenance 0
scalar OsgEarthNet.uav[39] utilizationCountMissions 1
scalar OsgEarthNet.uav[39] utilizationCountManeuversMission 9
scalar OsgEarthNet.uav[39] utilizationCountManeuversMaintenance 2
scalar OsgEarthNet.uav[39] utilizationCountChargeState 1
scalar OsgEarthNet.uav[39] utilizationCountOverdrawnAfterMission 0
scalar OsgEarthNet.uav[39] utilizationCountIdleState 2
scalar OsgEarthNet.uav[39] utilizationFail 0
scalar OsgEarthNet.uav[40] utilizationSecMission 343.68863208153
scalar OsgEarthNet.uav[40] utilizationSecMaintenance 589.36831023416
scalar OsgEarthNet.uav[40] utilizationSecCharge 3270
scalar OsgEarthNet.uav[40] utilizationSecIdle 254996.94205768
scalar OsgEarthNet.uav[40] utilizationEnergyMission 1617.5386886597
scalar OsgEarthNet.uav[40] utilizationEnergyMaintenance 2549.4582023621
scalar OsgEarthNet.uav[40] utilizationEnergyCharge 4166.9946289062
scalar OsgEarthNet.uav[40] utilizationEnergyOverdrawMission 0
scalar OsgEarthNet.uav[40] utilizationEnergyOverdrawMaintenance 0
scalar OsgEarthNet.uav[40] utilizationCountMissions 1
scalar OsgEarthNet.uav[40] utilizationCountManeuversMission 7
scalar OsgEarthNet.uav[40] utilizationCountManeuversMaintenance 2
scalar OsgEarthNet.uav[40] utilizationCountChargeState 1
scalar OsgEarthNet.uav[40] utilizationCountOverdrawnAfterMission 0
scalar OsgEarthNet.uav[40] utilizationCountIdleState 2
scalar OsgEarthNet.uav[40] utilizationFail 0
scalar OsgEarthNet.uav[41] utilizationSecMission 26483.323460089
scalar OsgEarthNet.uav[41] utilizationSecMaintenance 24068.588327656
scalar OsgEarthNet.uav[41] utilizationSecCharge 180861.66395103
scalar OsgEarthNet.uav[41] utilizationSecIdle 27786.423261223
scalar OsgEarthNet.uav[41] utilizationEnergyMission 127301.26621246
scalar OsgEarthNet.uav[41] utilizationEnergyMaintenance 112008.06869507
scalar OsgEarthNet.uav[41] utilizationEnergyCharge 237438.8605957
scalar OsgEarthNet.uav[41] utilizationEnergyOverdrawMission 0
scalar OsgEarthNet.uav[41] utilizationEnergyOverdrawMaintenance 0
scalar OsgEarthNet.uav[41] utilizationCountMissions 54
scalar OsgEarthNet.uav[41] utilizationCountManeuversMission 789
scalar OsgEarthNet.uav[41] utilizationCountManeuversMaintenance 108
scalar OsgEarthNet.uav[41] utilizationCountChargeState 54
scalar OsgEarthNet.uav[41] utilizationCountOverdrawnAfterMission 0
scalar OsgEarthNet.uav[41] utilizationCountIdleState 54
scalar OsgEarthNet.uav[41] utilizationFail 0
scalar OsgEarthNet.uav[42] utilizationSecMission 25740.865457246
scalar OsgEarthNet.uav[42] utilizationSecMaintenance 18555.194530847
scalar OsgEarthNet.uav[42] utilizationSecCharge 162520
scalar OsgEarthNet.uav[42] utilizationSecIdle 52383.939011907
scalar OsgEarthNet.uav[42] utilizationEnergyMission 124451.07045364
scalar OsgEarthNet.uav[42] utilizationEnergyMaintenance 87060.417480469
scalar OsgEarthNet.uav[42] utilizationEnergyCharge 212307.30712891
scalar OsgEarthNet.uav[42] utilizationEnergyOverdrawMission 0
scalar OsgEarthNet.uav[42] utilizationEnergyOverdrawMaintenance 0
scalar OsgEarthNet.uav[42] utilizationCountMissions 48
scalar OsgEarthNet.uav[42] utilizationCountManeuversMission 852
scalar OsgEarthNet.uav[42] utilizationCountManeuversMaintenance 96
scalar OsgEarthNet.uav[42] utilizationCountChargeState 48
scalar OsgEarthNet.uav[42] utilizationCountOverdrawnAfterMission 0
scalar OsgEarthNet.uav[42] utilizationCountIdleState 49
scalar OsgEarthNet.uav[42] utilizationFail 0
scalar OsgEarthNet.uav[43] utilizationSecMission 28062.310601348
scalar OsgEarthNet.uav[43] utilizationSecMaintenance 22596.279505743
scalar OsgEarthNet.uav[43] utilizationSecCharge 181789.40589291
scalar OsgEarthNet.uav[43] utilizationSecIdle 26752.003
scalar OsgEarthNet.uav[43] utilizationEnergyMission 139181.94675446
scalar OsgEarthNet.uav[43] utilizationEnergyMaintenance 104747.13697052
scalar OsgEarthNet.uav[43] utilizationEnergyCharge 239176.87475586
scalar OsgEarthNet.uav[43] utilizationEnergyOverdrawMission 0
scalar OsgEarthNet.uav[43] utilizationEnergyOverdrawMaintenance 0
scalar OsgEarthNet.uav[43] utilizationCountMissions 54
scalar OsgEarthNet.uav[43] utilizationCountManeuversMission 1003
scalar OsgEarthNet.uav[43] utilizationCountManeuversMaintenance 108
scalar OsgEarthNet.uav[43] utilizationCountChargeState 54
scalar OsgEarthNet.uav[43] utilizationCountOverdrawnAfterMission 0
scalar OsgEarthNet.uav[43] utilizationCountIdleState 54
scalar OsgEarthNet.uav[43] utilizationFail 0
scalar OsgEarthNet.uav[44] utilizationSecMission 26246.631718621
scalar OsgEarthNet.uav[44] utilizationSecMaintenance 19759.608297974
scalar OsgEarthNet.uav[44] utilizationSecCharge 164770
scalar OsgEarthNet.uav[44] utilizationSecIdle 48423.758983405
scalar OsgEarthNet.uav[44] utilizationEnergyMission 126050.72500809
scalar OsgEarthNet.uav[44] utilizationEnergyMaintenance 92121.434158325
scalar OsgEarthNet.uav[44] utilizationEnergyCharge 215535.38989258
scalar OsgEarthNet.uav[44] utilizationEnergyOverdrawMission 0
scalar OsgEarthNet.uav[44] utilizationEnergyOverdrawMaintenance 0
scalar OsgEarthNet.uav[44] utilizationCountMissions 49
scalar OsgEarthNet.uav[44] utilizationCountManeuversMission 746
scalar OsgEarthNet.uav[44] utilizationCountManeuversMaintenance 99
scalar OsgEarthNet.uav[44] utilizationCountChargeState 49
scalar OsgEarthNet.uav[44] utilizationCountOverdrawnAfterMission 0
scalar OsgEarthNet.uav[44] utilizationCountIdleState 49
scalar OsgEarthNet.uav[44] utilizationFail 0
scalar OsgEarthNet.uav[45] utilizationSecMission 18820.680325469
scalar OsgEarthNet.uav[45] utilizationSecMaintenance 14869.16544728
scalar OsgEarthNet.uav[45] utilizationSecCharge 121738.14822725
scalar OsgEarthNet.uav[45] utilizationSecIdle 103772.005
scalar OsgEarthNet.uav[45] utilizationEnergyMission 92764.523445129
scalar OsgEarthNet.uav[45] utilizationEnergyMaintenance 69356.233188629
scalar OsgEarthNet.uav[45] utilizationEnergyCharge 161006.35449219
scalar OsgEarthNet.uav[45] utilizationEnergyOverdrawMission 0
scalar OsgEarthNet.uav[45] utilizationEnergyOverdrawMaintenance 0
scalar OsgEarthNet.uav[45] utilizationCountMissions 36
scalar OsgEarthNet.uav[45] utilizationCountManeuversMission 663
scalar OsgEarthNet.uav[45] utilizationCountManeuversMaintenance 72
scalar OsgEarthNet.uav[45] utilizationCountChargeState 36
scalar OsgEarthNet.uav[45] utilizationCountOverdrawnAfterMission 0
scalar OsgEarthNet.uav[45] utilizationCountIdleState 36
scalar OsgEarthNet.uav[45] utilizationFail 0
scalar OsgEarthNet.uav[46] utilizationSecMission 23246.581856434
scalar OsgEarthNet.uav[46] utilizationSecMaintenance 24959.397936879
scalar OsgEarthNet.uav[46] utilizationSecCharge 176012.01020669
scalar OsgEarthNet.uav[46] utilizationSecIdle 34982.009
scalar OsgEarthNet.uav[46] utilizationEnergyMission 114333.74799347
scalar OsgEarthNet.uav[46] utilizationEnergyMaintenance 117024.59352493
scalar OsgEarthNet.uav[46] utilizationEnergyCharge 231173.16381836
scalar OsgEarthNet.uav[46] utilizationEnergyOverdrawMission 0
scalar OsgEarthNet.uav[46] utilizationEnergyOverdrawMaintenance 247.86534118652
scalar OsgEarthNet.uav[46] utilizationCountMissions 52
scalar OsgEarthNet.uav[46] utilizationCountManeuversMission 856
scalar OsgEarthNet.uav[46] utilizationCountManeuversMaintenance 104
scalar OsgEarthNet.uav[46] utilizationCountChargeState 52
scalar OsgEarthNet.uav[46] utilizationCountOverdrawnAfterMission 1
scalar OsgEarthNet.uav[46] utilizationCountIdleState 52
scalar OsgEarthNet.uav[46] utilizationFail 0
scalar OsgEarthNet.uav[47] utilizationSecMission 25748.102817386
scalar OsgEarthNet.uav[47] utilizationSecMaintenance 24810.5534051
scalar OsgEarthNet.uav[47] utilizationSecCharge 182389.33977751
scalar OsgEarthNet.uav[47] utilizationSecIdle 26252.003
scalar OsgEarthNet.uav[47] utilizationEnergyMission 125381.66320038
scalar OsgEarthNet.uav[47] utilizationEnergyMaintenance 115518.85324478
scalar OsgEarthNet.uav[47] utilizationEnergyCharge 237844.24487305
scalar OsgEarthNet.uav[47] utilizationEnergyOverdrawMission 0
scalar OsgEarthNet.uav[47] utilizationEnergyOverdrawMaintenance 0
scalar OsgEarthNet.uav[47] utilizationCountMissions 55
scalar OsgEarthNet.uav[47] utilizationCountManeuversMission 830
scalar OsgEarthNet.uav[47] utilizationCountManeuversMaintenance 110
scalar OsgEarthNet.uav[47] utilizationCountChargeState 55
scalar OsgEarthNet.uav[47] utilizationCountOverdrawnAfterMission 0
scalar OsgEarthNet.uav[47] utilizationCountIdleState 55
scalar OsgEarthNet.uav[47] utilizationFail 0
scalar OsgEarthNet.uav[48] utilizationSecMission 24843.452024575
scalar OsgEarthNet.uav[48] utilizationSecMaintenance 20688.870036598
scalar OsgEarthNet.uav[48] utilizationSecCharge 165115.67293883
scalar OsgEarthNet.uav[48] utilizationSecIdle 48552.004
scalar OsgEarthNet.uav[48] utilizationEnergyMission 122965.88041687
scalar OsgEarthNet.uav[48] utilizationEnergyMaintenance 95123.712841034
scalar OsgEarthNet.uav[48] utilizationEnergyCharge 216972.61206055
scalar OsgEarthNet.uav[48] utilizationEnergyOverdrawMission 0
scalar OsgEarthNet.uav[48] utilizationEnergyOverdrawMaintenance 0
scalar OsgEarthNet.uav[48] utilizationCountMissions 49
scalar OsgEarthNet.uav[48] utilizationCountManeuversMission 799
scalar OsgEarthNet.uav[48] utilizationCountManeuversMaintenance 98
scalar OsgEarthNet.uav[48] utilizationCountChargeState 49
scalar OsgEarthNet.uav[48] utilizationCountOverdrawnAfterMission 0
scalar OsgEarthNet.uav[48] utilizationCountIdleState 49
scalar OsgEarthNet.uav[48] utilizationFail 0
scalar OsgEarthNet.uav[49] utilizationSecMission 6414.0641524469
scalar OsgEarthNet.uav[49] utilizationSecMaintenance 6214.8351267738
scalar OsgEarthNet.uav[49] utilizationSecCharge 45310
scalar OsgEarthNet.uav[49] utilizationSecIdle 201261.09972078
scalar OsgEarthNet.uav[49] utilizationEnergyMission 31384.327430725
scalar OsgEarthNet.uav[49] utilizationEnergyMaintenance 28639.853927612
scalar OsgEarthNet.uav[49] utilizationEnergyCharge 60240.192871094
scalar OsgEarthNet.uav[49] utilizationEnergyOverdrawMission 0
scalar OsgEarthNet.uav[49] utilizationEnergyOverdrawMaintenance 0
scalar OsgEarthNet.uav[49] utilizationCountMissions 13
scalar OsgEarthNet.uav[49] utilizationCountManeuversMission 195
scalar OsgEarthNet.uav[49] utilizationCountManeuversMaintenance 26
scalar OsgEarthNet.uav[49] utilizationCountChargeState 13
scalar OsgEarthNet.uav[49] utilizationCountOverdrawnAfterMission 0
scalar OsgEarthNet.uav[49] utilizationCountIdleState 13
scalar OsgEarthNet.uav[49] utilizationFail 0
scalar OsgEarthNet.uav[50] utilizationSecMission 27280.895075539
scalar OsgEarthNet.uav[50] utilizationSecMaintenance 22155.187636202
scalar OsgEarthNet.uav[50] utilizationSecCharge 177551.91028826
scalar OsgEarthNet.uav[50] utilizationSecIdle 32212.006
scalar OsgEarthNet.uav[50] utilizationEnergyMission 131620.95858002
scalar OsgEarthNet.uav[50] utilizationEnergyMaintenance 103833.68875885
scalar OsgEarthNet.uav[50] utilizationEnergyCharge 234146.07714844
scalar OsgEarthNet.uav[50] utilizationEnergyOverdrawMission 0
scalar OsgEarthNet.uav[50] utilizationEnergyOverdrawMaintenance 0
scalar OsgEarthNet.uav[50] utilizationCountMissions 52
scalar OsgEarthNet.uav[50] utilizationCountManeuversMission 789
scalar OsgEarthNet.uav[50] utilizationCountManeuversMaintenance 104
scalar OsgEarthNet.uav[50] utilizationCountChargeState 52
scalar OsgEarthNet.uav[50] utilizationCountOverdrawnAfterMission 0
scalar OsgEarthNet.uav[50] utilizationCountIdleState 51
scalar OsgEarthNet.uav[50] utilizationFail 0
scalar OsgEarthNet.uav[51] utilizationSecMission 25542.334160791
scalar OsgEarthNet.uav[51] utilizationSecMaintenance 22524.640285048
scalar OsgEarthNet.uav[51] utilizationSecCharge 173276.59729294
scalar OsgEarthNet.uav[51] utilizationSecIdle 37856.427261223
scalar OsgEarthNet.uav[51] utilizationEnergyMission 124977.80639267
scalar OsgEarthNet.uav[51] utilizationEnergyMaintenance 104448.42101288
scalar OsgEarthNet.uav[51] utilizationEnergyCharge 227071.85717773
scalar OsgEarthNet.uav[51] utilizationEnergyOverdrawMission 0
scalar OsgEarthNet.uav[51] utilizationEnergyOverdrawMaintenance 0
scalar OsgEarthNet.uav[51] utilizationCountMissions 51
scalar OsgEarthNet.uav[51] utilizationCountManeuversMission 737
scalar OsgEarthNet.uav[51] utilizationCountManeuversMaintenance 102
scalar OsgEarthNet.uav[51] utilizationCountChargeState 51
scalar OsgEarthNet.uav[51] utilizationCountOverdrawnAfterMission 0
scalar OsgEarthNet.uav[51] utilizationCountIdleState 51
scalar OsgEarthNet.uav[51] utilizationFail 0
scalar OsgEarthNet.uav[52] utilizationSecMission 20380.160883849
scalar OsgEarthNet.uav[52] utilizationSecMaintenance 17289.065957114
scalar OsgEarthNet.uav[52] utilizationSecCharge 135780
scalar OsgEarthNet.uav[52] utilizationSecIdle 85750.772159037
scalar OsgEarthNet.uav[52] utilizationEnergyMission 98895.784172058
scalar OsgEarthNet.uav[52] utilizationEnergyMaintenance 80119.793956757
scalar OsgEarthNet.uav[52] utilizationEnergyCharge 177988.24487305
scalar OsgEarthNet.uav[52] utilizationEnergyOverdrawMission 0
scalar OsgEarthNet.uav[52] utilizationEnergyOverdrawMaintenance 138.58615112305
scalar OsgEarthNet.uav[52] utilizationCountMissions 40
scalar OsgEarthNet.uav[52] utilizationCountManeuversMission 661
scalar OsgEarthNet.uav[52] utilizationCountManeuversMaintenance 80
scalar OsgEarthNet.uav[52] utilizationCountChargeState 40
scalar OsgEarthNet.uav[52] utilizationCountOverdrawnAfterMission 1
scalar OsgEarthNet.uav[52] utilizationCountIdleState 41
scalar OsgEarthNet.uav[52] utilizationFail 0
scalar OsgEarthNet.uav[53] utilizationSecMission 19847.508145028
scalar OsgEarthNet.uav[53] utilizationSecMaintenance 17794.313033416
scalar OsgEarthNet.uav[53] utilizationSecCharge 135250
scalar OsgEarthNet.uav[53] utilizationSecIdle 86308.177821556
scalar OsgEarthNet.uav[53] utilizationEnergyMission 95828.6040802
scalar OsgEarthNet.uav[53] utilizationEnergyMaintenance 82332.18012619
scalar OsgEarthNet.uav[53] utilizationEnergyCharge 177378.24780273
scalar OsgEarthNet.uav[53] utilizationEnergyOverdrawMission 0
scalar OsgEarthNet.uav[53] utilizationEnergyOverdrawMaintenance 0
scalar OsgEarthNet.uav[53] utilizationCountMissions 40
scalar OsgEarthNet.uav[53] utilizationCountManeuversMission 578
scalar OsgEarthNet.uav[53] utilizationCountManeuversMaintenance 80
scalar OsgEarthNet.uav[53] utilizationCountChargeState 40
scalar OsgEarthNet.uav[53] utilizationCountOverdrawnAfterMission 0
scalar OsgEarthNet.uav[53] utilizationCountIdleState 38
scalar OsgEarthNet.uav[53] utilizationFail 0
scalar OsgEarthNet.uav[54] utilizationSecMission 22420.952079768
scalar OsgEarthNet.uav[54] utilizationSecMaintenance 19220.470248363
scalar OsgEarthNet.uav[54] utilizationSecCharge 148875.37276411
scalar OsgEarthNet.uav[54] utilizationSecIdle 68683.20390776
scalar OsgEarthNet.uav[54] utilizationEnergyMission 108094.37735748
scalar OsgEarthNet.uav[54] utilizationEnergyMaintenance 89112.554924011
scalar OsgEarthNet.uav[54] utilizationEnergyCharge 195559.28173828
scalar OsgEarthNet.uav[54] utilizationEnergyOverdrawMission 0
scalar OsgEarthNet.uav[54] utilizationEnergyOverdrawMaintenance 104.91873931885
scalar OsgEarthNet.uav[54] utilizationCountMissions 44
scalar OsgEarthNet.uav[54] utilizationCountManeuversMission 626
scalar OsgEarthNet.uav[54] utilizationCountManeuversMaintenance 88
scalar OsgEarthNet.uav[54] utilizationCountChargeState 44
scalar OsgEarthNet.uav[54] utilizationCountOverdrawnAfterMission 1
scalar OsgEarthNet.uav[54] utilizationCountIdleState 43
scalar OsgEarthNet.uav[54] utilizationFail 0
scalar OsgEarthNet.uav[55] utilizationSecMission 15154.495054269
scalar OsgEarthNet.uav[55] utilizationSecMaintenance 12363.498945731
scalar OsgEarthNet.uav[55] utilizationSecCharge 97420
scalar OsgEarthNet.uav[55] utilizationSecIdle 134262.005
scalar OsgEarthNet.uav[55] utilizationEnergyMission 73482.544979095
scalar OsgEarthNet.uav[55] utilizationEnergyMaintenance 56955.520026967
scalar OsgEarthNet.uav[55] utilizationEnergyCharge 128631.87036133
scalar OsgEarthNet.uav[55] utilizationEnergyOverdrawMission 0
scalar OsgEarthNet.uav[55] utilizationEnergyOverdrawMaintenance 0
scalar OsgEarthNet.uav[55] utilizationCountMissions 29
scalar OsgEarthNet.uav[55] utilizationCountManeuversMission 431
scalar OsgEarthNet.uav[55] utilizationCountManeuversMaintenance 59
scalar OsgEarthNet.uav[55] utilizationCountChargeState 29
scalar OsgEarthNet.uav[55] utilizationCountOverdrawnAfterMission 0
scalar OsgEarthNet.uav[55] utilizationCountIdleState 26
scalar OsgEarthNet.uav[55] utilizationFail 0
scalar OsgEarthNet.uav[56] utilizationSecMission 15972.287110603
scalar OsgEarthNet.uav[56] utilizationSecMaintenance 17835.361416074
scalar OsgEarthNet.uav[56] utilizationSecCharge 121280
scalar OsgEarthNet.uav[56] utilizationSecIdle 104112.35047332
scalar OsgEarthNet.uav[56] utilizationEnergyMission 77030.409633637
scalar OsgEarthNet.uav[56] utilizationEnergyMaintenance 82589.92368982
scalar OsgEarthNet.uav[56] utilizationEnergyCharge 160152.25854492
scalar OsgEarthNet.uav[56] utilizationEnergyOverdrawMission 0
scalar OsgEarthNet.uav[56] utilizationEnergyOverdrawMaintenance 0
scalar OsgEarthNet.uav[56] utilizationCountMissions 36
scalar OsgEarthNet.uav[56] utilizationCountManeuversMission 554
scalar OsgEarthNet.uav[56] utilizationCountManeuversMaintenance 73
scalar OsgEarthNet.uav[56] utilizationCountChargeState 36
scalar OsgEarthNet.uav[56] utilizationCountOverdrawnAfterMission 0
scalar OsgEarthNet.uav[56] utilizationCountIdleState 33
scalar OsgEarthNet.uav[56] utilizationFail 0
scalar OsgEarthNet.uav[57] utilizationSecMission 27103.727180925
scalar OsgEarthNet.uav[57] utilizationSecMaintenance 23469.847557852
scalar OsgEarthNet.uav[57] utilizationSecCharge 181260
scalar OsgEarthNet.uav[57] utilizationSecIdle 27366.424261223
scalar OsgEarthNet.uav[57] utilizationEnergyMission 130229.09506989
scalar OsgEarthNet.uav[57] utilizationEnergyMaintenance 109787.12824397
scalar OsgEarthNet.uav[57] utilizationEnergyCharge 238230.58618164
scalar OsgEarthNet.uav[57] utilizationEnergyOverdrawMission 0
scalar OsgEarthNet.uav[57] utilizationEnergyOverdrawMaintenance 0
scalar OsgEarthNet.uav[57] utilizationCountMissions 53
scalar OsgEarthNet.uav[57] utilizationCountManeuversMission 777
scalar OsgEarthNet.uav[57] utilizationCountManeuversMaintenance 107
scalar OsgEarthNet.uav[57] utilizationCountChargeState 53
scalar OsgEarthNet.uav[57] utilizationCountOverdrawnAfterMission 0
scalar OsgEarthNet.uav[57] utilizationCountIdleState 52
scalar OsgEarthNet.uav[57] utilizationFail 0
scalar OsgEarthNet.uav[58] utilizationSecMission 24312.456161036
scalar OsgEarthNet.uav[58] utilizationSecMaintenance 22742.477397576
scalar OsgEarthNet.uav[58] utilizationSecCharge 166295.84582747
scalar OsgEarthNet.uav[58] utilizationSecIdle 45849.219613916
scalar OsgEarthNet.uav[58] utilizationEnergyMission 118240.07337952
scalar OsgEarthNet.uav[58] utilizationEnergyMaintenance 104390.74220276
scalar OsgEarthNet.uav[58] utilizationEnergyCharge 217597.69799805
scalar OsgEarthNet.uav[58] utilizationEnergyOverdrawMission 0
scalar OsgEarthNet.uav[58] utilizationEnergyOverdrawMaintenance 0
scalar OsgEarthNet.uav[58] utilizationCountMissions 50
scalar OsgEarthNet.uav[58] utilizationCountManeuversMission 725
scalar OsgEarthNet.uav[58] utilizationCountManeuversMaintenance 100
scalar OsgEarthNet.uav[58] utilizationCountChargeState 50
scalar OsgEarthNet.uav[58] utilizationCountOverdrawnAfterMission 0
scalar OsgEarthNet.uav[58] utilizationCountIdleState 46
scalar OsgEarthNet.uav[58] utilizationFail 0
scalar OsgEarthNet.uav[59] utilizationSecMission 21317.568758434
scalar OsgEarthNet.uav[59] utilizationSecMaintenance 19206.33563133
scalar OsgEarthNet.uav[59] utilizationSecCharge 143064.09461024
scalar OsgEarthNet.uav[59] utilizationSecIdle 75612
scalar OsgEarthNet.uav[59] utilizationEnergyMission 104633.87299347
scalar OsgEarthNet.uav[59] utilizationEnergyMaintenance 89817.903659821
scalar OsgEarthNet.uav[59] utilizationEnergyCharge 188759.87286377
scalar OsgEarthNet.uav[59] utilizationEnergyOverdrawMission 0
scalar OsgEarthNet.uav[59] utilizationEnergyOverdrawMaintenance 0
scalar OsgEarthNet.uav[59] utilizationCountMissions 43
scalar OsgEarthNet.uav[59] utilizationCountManeuversMission 657
scalar OsgEarthNet.uav[59] utilizationCountManeuversMaintenance 86
scalar OsgEarthNet.uav[59] utilizationCountChargeState 43
scalar OsgEarthNet.uav[59] utilizationCountOverdrawnAfterMission 0
scalar OsgEarthNet.uav[59] utilizationCountIdleState 37
scalar OsgEarthNet.uav[59] utilizationFail 0
scalar OsgEarthNet.uav[60] utilizationSecMission 22659.607512438
scalar OsgEarthNet.uav[60] utilizationSecMaintenance 19902.20215652
scalar OsgEarthNet.uav[60] utilizationSecCharge 149806.18133104
scalar OsgEarthNet.uav[60] utilizationSecIdle 66832.008
scalar OsgEarthNet.uav[60] utilizationEnergyMission 108907.5899353
scalar OsgEarthNet.uav[60] utilizationEnergyMaintenance 92446.422451019
scalar OsgEarthNet.uav[60] utilizationEnergyCharge 198545.92016602
scalar OsgEarthNet.uav[60] utilizationEnergyOverdrawMission 0
scalar OsgEarthNet.uav[60] utilizationEnergyOverdrawMaintenance 0
scalar OsgEarthNet.uav[60] utilizationCountMissions 45
scalar OsgEarthNet.uav[60] utilizationCountManeuversMission 659
scalar OsgEarthNet.uav[60] utilizationCountManeuversMaintenance 90
scalar OsgEarthNet.uav[60] utilizationCountChargeState 45
scalar OsgEarthNet.uav[60] utilizationCountOverdrawnAfterMission 0
scalar OsgEarthNet.uav[60] utilizationCountIdleState 37
scalar OsgEarthNet.uav[60] utilizationFail 0
scalar OsgEarthNet.uav[61] utilizationSecMission 23518.261004926
scalar OsgEarthNet.uav[61] utilizationSecMaintenance 23633.030096642
scalar OsgEarthNet.uav[61] utilizationSecCharge 165737.65211173
scalar OsgEarthNet.uav[61] utilizationSecIdle 46311.055786707
scalar OsgEarthNet.uav[61] utilizationEnergyMission 113834.70018387
scalar OsgEarthNet.uav[61] utilizationEnergyMaintenance 110747.35141754
scalar OsgEarthNet.uav[61] utilizationEnergyCharge 220513.11083984
scalar OsgEarthNet.uav[61] utilizationEnergyOverdrawMission 0
scalar OsgEarthNet.uav[61] utilizationEnergyOverdrawMaintenance 634.51336669922
scalar OsgEarthNet.uav[61] utilizationCountMissions 49
scalar OsgEarthNet.uav[61] utilizationCountManeuversMission 657
scalar OsgEarthNet.uav[61] utilizationCountManeuversMaintenance 98
scalar OsgEarthNet.uav[61] utilizationCountChargeState 49
scalar OsgEarthNet.uav[61] utilizationCountOverdrawnAfterMission 1
scalar OsgEarthNet.uav[61] utilizationCountIdleState 40
scalar OsgEarthNet.uav[61] utilizationFail 0
scalar OsgEarthNet.uav[62] utilizationSecMission 23852.743982662
scalar OsgEarthNet.uav[62] utilizationSecMaintenance 23474.819480321
scalar OsgEarthNet.uav[62] utilizationSecCharge 170000.91171323
scalar OsgEarthNet.uav[62] utilizationSecIdle 41871.523823783
scalar OsgEarthNet.uav[62] utilizationEnergyMission 114745.4967804
scalar OsgEarthNet.uav[62] utilizationEnergyMaintenance 110337.47734833
scalar OsgEarthNet.uav[62] utilizationEnergyCharge 223270.2668457
scalar OsgEarthNet.uav[62] utilizationEnergyOverdrawMission 0
scalar OsgEarthNet.uav[62] utilizationEnergyOverdrawMaintenance 0
scalar OsgEarthNet.uav[62] utilizationCountMissions 51
scalar OsgEarthNet.uav[62] utilizationCountManeuversMission 828
scalar OsgEarthNet.uav[62] utilizationCountManeuversMaintenance 102
scalar OsgEarthNet.uav[62] utilizationCountChargeState 51
scalar OsgEarthNet.uav[62] utilizationCountOverdrawnAfterMission 0
scalar OsgEarthNet.uav[62] utilizationCountIdleState 47
scalar OsgEarthNet.uav[62] utilizationFail 0
scalar OsgEarthNet.uav[63] utilizationSecMission 25594.174533357
scalar OsgEarthNet.uav[63] utilizationSecMaintenance 22770.2284359
scalar OsgEarthNet.uav[63] utilizationSecCharge 172065.02560416
scalar OsgEarthNet.uav[63] utilizationSecIdle 38770.570426582
scalar OsgEarthNet.uav[63] utilizationEnergyMission 121858.14455032
scalar OsgEarthNet.uav[63] utilizationEnergyMaintenance 106274.53650284
scalar OsgEarthNet.uav[63] utilizationEnergyCharge 228563.48925781
scalar OsgEarthNet.uav[63] utilizationEnergyOverdrawMission 0
scalar OsgEarthNet.uav[63] utilizationEnergyOverdrawMaintenance 0
scalar OsgEarthNet.uav[63] utilizationCountMissions 51
scalar OsgEarthNet.uav[63] utilizationCountManeuversMission 726
scalar OsgEarthNet.uav[63] utilizationCountManeuversMaintenance 102
scalar OsgEarthNet.uav[63] utilizationCountChargeState 51
scalar OsgEarthNet.uav[63] utilizationCountOverdrawnAfterMission 0
scalar OsgEarthNet.uav[63] utilizationCountIdleState 42
scalar OsgEarthNet.uav[63] utilizationFail 0
scalar OsgEarthNet.uav[64] utilizationSecMission 25125.936815782
scalar OsgEarthNet.uav[64] utilizationSecMaintenance 22707.73211554
scalar OsgEarthNet.uav[64] utilizationSecCharge 171151.62688089
scalar OsgEarthNet.uav[64] utilizationSecIdle 40214.703187793
scalar OsgEarthNet.uav[64] utilizationEnergyMission 123847.2082901
scalar OsgEarthNet.uav[64] utilizationEnergyMaintenance 105787.87372971
scalar OsgEarthNet.uav[64] utilizationEnergyCharge 227691.89038086
scalar OsgEarthNet.uav[64] utilizationEnergyOverdrawMission 0
scalar OsgEarthNet.uav[64] utilizationEnergyOverdrawMaintenance 0
scalar OsgEarthNet.uav[64] utilizationCountMissions 51
scalar OsgEarthNet.uav[64] utilizationCountManeuversMission 739
scalar OsgEarthNet.uav[64] utilizationCountManeuversMaintenance 102
scalar OsgEarthNet.uav[64] utilizationCountChargeState 51
scalar OsgEarthNet.uav[64] utilizationCountOverdrawnAfterMission 0
scalar OsgEarthNet.uav[64] utilizationCountIdleState 40
scalar OsgEarthNet.uav[64] utilizationFail 0
scalar OsgEarthNet.uav[65] utilizationSecMission 26926.649000138
scalar OsgEarthNet.uav[65] utilizationSecMaintenance 22286.055766059
scalar OsgEarthNet.uav[65] utilizationSecCharge 175965.2942338
scalar OsgEarthNet.uav[65] utilizationSecIdle 34022
scalar OsgEarthNet.uav[65] utilizationEnergyMission 129499.88006145
scalar OsgEarthNet.uav[65] utilizationEnergyMaintenance 104638.93624496
scalar OsgEarthNet.uav[65] utilizationEnergyCharge 233324.29321289
scalar OsgEarthNet.uav[65] utilizationEnergyOverdrawMission 0
scalar OsgEarthNet.uav[65] utilizationEnergyOverdrawMaintenance 0
scalar OsgEarthNet.uav[65] utilizationCountMissions 52
scalar OsgEarthNet.uav[65] utilizationCountManeuversMission 774
scalar OsgEarthNet.uav[65] utilizationCountManeuversMaintenance 103
scalar OsgEarthNet.uav[65] utilizationCountChargeState 52
scalar OsgEarthNet.uav[65] utilizationCountOverdrawnAfterMission 0
scalar OsgEarthNet.uav[65] utilizationCountIdleState 43
scalar OsgEarthNet.uav[65] utilizationFail 0
scalar OsgEarthNet.uav[66] utilizationSecMission 24132.497483758
scalar OsgEarthNet.uav[66] utilizationSecMaintenance 25983.071527983
scalar OsgEarthNet.uav[66] utilizationSecCharge 179022.41898826
scalar OsgEarthNet.uav[66] utilizationSecIdle 30062.011
scalar OsgEarthNet.uav[66] utilizationEnergyMission 119547.33013916
scalar OsgEarthNet.uav[66] utilizationEnergyMaintenance 121749.4602623
scalar OsgEarthNet.uav[66] utilizationEnergyCharge 238166.19262695
scalar OsgEarthNet.uav[66] utilizationEnergyOverdrawMission 0
scalar OsgEarthNet.uav[66] utilizationEnergyOverdrawMaintenance 0
scalar OsgEarthNet.uav[66] utilizationCountMissions 54
scalar OsgEarthNet.uav[66] utilizationCountManeuversMission 845
scalar OsgEarthNet.uav[66] utilizationCountManeuversMaintenance 108
scalar OsgEarthNet.uav[66] utilizationCountChargeState 54
scalar OsgEarthNet.uav[66] utilizationCountOverdrawnAfterMission 0
scalar OsgEarthNet.uav[66] utilizationCountIdleState 39
scalar OsgEarthNet.uav[66] utilizationFail 0
scalar OsgEarthNet.uav[67] utilizationSecMission 25828.043028218
scalar OsgEarthNet.uav[67] utilizationSecMaintenance 24124.792582021
scalar OsgEarthNet.uav[67] utilizationSecCharge 180841.71730107
scalar OsgEarthNet.uav[67] utilizationSecIdle 28405.446088691
scalar OsgEarthNet.uav[67] utilizationEnergyMission 124683.75045776
scalar OsgEarthNet.uav[67] utilizationEnergyMaintenance 113202.03364563
scalar OsgEarthNet.uav[67] utilizationEnergyCharge 238776.06616211
scalar OsgEarthNet.uav[67] utilizationEnergyOverdrawMission 0
scalar OsgEarthNet.uav[67] utilizationEnergyOverdrawMaintenance 26.130857467651
scalar OsgEarthNet.uav[67] utilizationCountMissions 54
scalar OsgEarthNet.uav[67] utilizationCountManeuversMission 810
scalar OsgEarthNet.uav[67] utilizationCountManeuversMaintenance 108
scalar OsgEarthNet.uav[67] utilizationCountChargeState 54
scalar OsgEarthNet.uav[67] utilizationCountOverdrawnAfterMission 1
scalar OsgEarthNet.uav[67] utilizationCountIdleState 46
scalar OsgEarthNet.uav[67] utilizationFail 0
scalar OsgEarthNet.uav[68] utilizationSecMission 28213.601792458
scalar OsgEarthNet.uav[68] utilizationSecMaintenance 22444.397207543
scalar OsgEarthNet.uav[68] utilizationSecCharge 181570
scalar OsgEarthNet.uav[68] utilizationSecIdle 26972
scalar OsgEarthNet.uav[68] utilizationEnergyMission 137529.91633982
scalar OsgEarthNet.uav[68] utilizationEnergyMaintenance 104502.26029205
scalar OsgEarthNet.uav[68] utilizationEnergyCharge 239552.50195312
scalar OsgEarthNet.uav[68] utilizationEnergyOverdrawMission 0
scalar OsgEarthNet.uav[68] utilizationEnergyOverdrawMaintenance 0
scalar OsgEarthNet.uav[68] utilizationCountMissions 54
scalar OsgEarthNet.uav[68] utilizationCountManeuversMission 940
scalar OsgEarthNet.uav[68] utilizationCountManeuversMaintenance 108
scalar OsgEarthNet.uav[68] utilizationCountChargeState 54
[...]
scalar OsgEarthNet.uav[80] utilizationCountManeuversMission 775
scalar OsgEarthNet.uav[80] utilizationCountManeuversMaintenance 116
scalar OsgEarthNet.uav[80] utilizationCountChargeState 58
scalar OsgEarthNet.uav[80] utilizationCountOverdrawnAfterMission 0
scalar OsgEarthNet.uav[80] utilizationCountIdleState 30
scalar OsgEarthNet.uav[80] utilizationFail 0
scalar OsgEarthNet.uav[81] utilizationSecMission 29861.228702715
scalar OsgEarthNet.uav[81] utilizationSecMaintenance 25306.770297285
scalar OsgEarthNet.uav[81] utilizationSecCharge 194000
scalar OsgEarthNet.uav[81] utilizationSecIdle 10032
scalar OsgEarthNet.uav[81] utilizationEnergyMission 146598.59030914
scalar OsgEarthNet.uav[81] utilizationEnergyMaintenance 116636.46808318
scalar OsgEarthNet.uav[81] utilizationEnergyCharge 259787.73046875
scalar OsgEarthNet.uav[81] utilizationEnergyOverdrawMission 0
scalar OsgEarthNet.uav[81] utilizationEnergyOverdrawMaintenance 0
scalar OsgEarthNet.uav[81] utilizationCountMissions 58
scalar OsgEarthNet.uav[81] utilizationCountManeuversMission 973
scalar OsgEarthNet.uav[81] utilizationCountManeuversMaintenance 117
scalar OsgEarthNet.uav[81] utilizationCountChargeState 58
scalar OsgEarthNet.uav[81] utilizationCountOverdrawnAfterMission 0
scalar OsgEarthNet.uav[81] utilizationCountIdleState 33
scalar OsgEarthNet.uav[81] utilizationFail 0
scalar OsgEarthNet.uav[82] utilizationSecMission 28782.174118043
scalar OsgEarthNet.uav[82] utilizationSecMaintenance 26335.822881957
scalar OsgEarthNet.uav[82] utilizationSecCharge 193800
scalar OsgEarthNet.uav[82] utilizationSecIdle 10282.002
scalar OsgEarthNet.uav[82] utilizationEnergyMission 142556.05074835
scalar OsgEarthNet.uav[82] utilizationEnergyMaintenance 122573.54475021
scalar OsgEarthNet.uav[82] utilizationEnergyCharge 258644.44848633
scalar OsgEarthNet.uav[82] utilizationEnergyOverdrawMission 0
scalar OsgEarthNet.uav[82] utilizationEnergyOverdrawMaintenance 0
scalar OsgEarthNet.uav[82] utilizationCountMissions 59
scalar OsgEarthNet.uav[82] utilizationCountManeuversMission 953
scalar OsgEarthNet.uav[82] utilizationCountManeuversMaintenance 119
scalar OsgEarthNet.uav[82] utilizationCountChargeState 59
scalar OsgEarthNet.uav[82] utilizationCountOverdrawnAfterMission 0
scalar OsgEarthNet.uav[82] utilizationCountIdleState 32
scalar OsgEarthNet.uav[82] utilizationFail 0
scalar OsgEarthNet.uav[83] utilizationSecMission 27334.726410217
scalar OsgEarthNet.uav[83] utilizationSecMaintenance 26828.004397138
scalar OsgEarthNet.uav[83] utilizationSecCharge 191435.26119264
scalar OsgEarthNet.uav[83] utilizationSecIdle 13602.007
scalar OsgEarthNet.uav[83] utilizationEnergyMission 133162.54006958
scalar OsgEarthNet.uav[83] utilizationEnergyMaintenance 123674.46728897
scalar OsgEarthNet.uav[83] utilizationEnergyCharge 256163.89892578
scalar OsgEarthNet.uav[83] utilizationEnergyOverdrawMission 0
scalar OsgEarthNet.uav[83] utilizationEnergyOverdrawMaintenance 0
scalar OsgEarthNet.uav[83] utilizationCountMissions 58
scalar OsgEarthNet.uav[83] utilizationCountManeuversMission 894
scalar OsgEarthNet.uav[83] utilizationCountManeuversMaintenance 116
scalar OsgEarthNet.uav[83] utilizationCountChargeState 58
scalar OsgEarthNet.uav[83] utilizationCountOverdrawnAfterMission 0
scalar OsgEarthNet.uav[83] utilizationCountIdleState 33
scalar OsgEarthNet.uav[83] utilizationFail 0
scalar OsgEarthNet.uav[84] utilizationSecMission 30244.068099133
scalar OsgEarthNet.uav[84] utilizationSecMaintenance 25255.214039944
scalar OsgEarthNet.uav[84] utilizationSecCharge 194200
scalar OsgEarthNet.uav[84] utilizationSecIdle 9500.7168609224
scalar OsgEarthNet.uav[84] utilizationEnergyMission 149068.91991425
scalar OsgEarthNet.uav[84] utilizationEnergyMaintenance 116946.37942505
scalar OsgEarthNet.uav[84] utilizationEnergyCharge 262830.3515625
scalar OsgEarthNet.uav[84] utilizationEnergyOverdrawMission 0
scalar OsgEarthNet.uav[84] utilizationEnergyOverdrawMaintenance 0
scalar OsgEarthNet.uav[84] utilizationCountMissions 58
scalar OsgEarthNet.uav[84] utilizationCountManeuversMission 944
scalar OsgEarthNet.uav[84] utilizationCountManeuversMaintenance 116
scalar OsgEarthNet.uav[84] utilizationCountChargeState 58
scalar OsgEarthNet.uav[84] utilizationCountOverdrawnAfterMission 0
scalar OsgEarthNet.uav[84] utilizationCountIdleState 30
scalar OsgEarthNet.uav[84] utilizationFail 0
scalar OsgEarthNet.uav[85] utilizationSecMission 28296.875578789
scalar OsgEarthNet.uav[85] utilizationSecMaintenance 28421.123421211
scalar OsgEarthNet.uav[85] utilizationSecCharge 197890
scalar OsgEarthNet.uav[85] utilizationSecIdle 4592
scalar OsgEarthNet.uav[85] utilizationEnergyMission 140014.1977332
scalar OsgEarthNet.uav[85] utilizationEnergyMaintenance 131444.32555008
scalar OsgEarthNet.uav[85] utilizationEnergyCharge 266720.17626953
scalar OsgEarthNet.uav[85] utilizationEnergyOverdrawMission 0
scalar OsgEarthNet.uav[85] utilizationEnergyOverdrawMaintenance 0
scalar OsgEarthNet.uav[85] utilizationCountMissions 60
scalar OsgEarthNet.uav[85] utilizationCountManeuversMission 940
scalar OsgEarthNet.uav[85] utilizationCountManeuversMaintenance 121
scalar OsgEarthNet.uav[85] utilizationCountChargeState 60
scalar OsgEarthNet.uav[85] utilizationCountOverdrawnAfterMission 0
scalar OsgEarthNet.uav[85] utilizationCountIdleState 22
scalar OsgEarthNet.uav[85] utilizationFail 0
scalar OsgEarthNet.uav[86] utilizationSecMission 29869.059401515
scalar OsgEarthNet.uav[86] utilizationSecMaintenance 25851.992826143
scalar OsgEarthNet.uav[86] utilizationSecCharge 193736.94577234
scalar OsgEarthNet.uav[86] utilizationSecIdle 9742.001
scalar OsgEarthNet.uav[86] utilizationEnergyMission 145074.14554977
scalar OsgEarthNet.uav[86] utilizationEnergyMaintenance 119521.38580322
scalar OsgEarthNet.uav[86] utilizationEnergyCharge 259616.63366699
scalar OsgEarthNet.uav[86] utilizationEnergyOverdrawMission 0
scalar OsgEarthNet.uav[86] utilizationEnergyOverdrawMaintenance 0
scalar OsgEarthNet.uav[86] utilizationCountMissions 59
scalar OsgEarthNet.uav[86] utilizationCountManeuversMission 918
scalar OsgEarthNet.uav[86] utilizationCountManeuversMaintenance 118
scalar OsgEarthNet.uav[86] utilizationCountChargeState 59
scalar OsgEarthNet.uav[86] utilizationCountOverdrawnAfterMission 0
scalar OsgEarthNet.uav[86] utilizationCountIdleState 32
scalar OsgEarthNet.uav[86] utilizationFail 0
scalar OsgEarthNet.uav[87] utilizationSecMission 28352.252945946
scalar OsgEarthNet.uav[87] utilizationSecMaintenance 27115.746054054
scalar OsgEarthNet.uav[87] utilizationSecCharge 195500
scalar OsgEarthNet.uav[87] utilizationSecIdle 8232
scalar OsgEarthNet.uav[87] utilizationEnergyMission 138456.2237867
scalar OsgEarthNet.uav[87] utilizationEnergyMaintenance 125373.61546326
scalar OsgEarthNet.uav[87] utilizationEnergyCharge 261275.77392578
scalar OsgEarthNet.uav[87] utilizationEnergyOverdrawMission 0
scalar OsgEarthNet.uav[87] utilizationEnergyOverdrawMaintenance 91.715881347656
scalar OsgEarthNet.uav[87] utilizationCountMissions 59
scalar OsgEarthNet.uav[87] utilizationCountManeuversMission 962
scalar OsgEarthNet.uav[87] utilizationCountManeuversMaintenance 118
scalar OsgEarthNet.uav[87] utilizationCountChargeState 59
scalar OsgEarthNet.uav[87] utilizationCountOverdrawnAfterMission 1
scalar OsgEarthNet.uav[87] utilizationCountIdleState 34
scalar OsgEarthNet.uav[87] utilizationFail 0
scalar OsgEarthNet.uav[88] utilizationSecMission 28872.365437026
scalar OsgEarthNet.uav[88] utilizationSecMaintenance 27050.569836124
scalar OsgEarthNet.uav[88] utilizationSecCharge 195657.43264619
scalar OsgEarthNet.uav[88] utilizationSecIdle 7619.6310806652
scalar OsgEarthNet.uav[88] utilizationEnergyMission 140689.74336624
scalar OsgEarthNet.uav[88] utilizationEnergyMaintenance 124493.06215668
scalar OsgEarthNet.uav[88] utilizationEnergyCharge 263293.28662109
scalar OsgEarthNet.uav[88] utilizationEnergyOverdrawMission 0
scalar OsgEarthNet.uav[88] utilizationEnergyOverdrawMaintenance 0
scalar OsgEarthNet.uav[88] utilizationCountMissions 60
scalar OsgEarthNet.uav[88] utilizationCountManeuversMission 921
scalar OsgEarthNet.uav[88] utilizationCountManeuversMaintenance 120
scalar OsgEarthNet.uav[88] utilizationCountChargeState 60
scalar OsgEarthNet.uav[88] utilizationCountOverdrawnAfterMission 0
scalar OsgEarthNet.uav[88] utilizationCountIdleState 26
scalar OsgEarthNet.uav[88] utilizationFail 0
scalar OsgEarthNet.uav[89] utilizationSecMission 28593.924888973
scalar OsgEarthNet.uav[89] utilizationSecMaintenance 26969.747500104
scalar OsgEarthNet.uav[89] utilizationSecCharge 194170
scalar OsgEarthNet.uav[89] utilizationSecIdle 9466.3266109229
scalar OsgEarthNet.uav[89] utilizationEnergyMission 138850.11497879
scalar OsgEarthNet.uav[89] utilizationEnergyMaintenance 123541.39089584
scalar OsgEarthNet.uav[89] utilizationEnergyCharge 261119.2512207
scalar OsgEarthNet.uav[89] utilizationEnergyOverdrawMission 0
scalar OsgEarthNet.uav[89] utilizationEnergyOverdrawMaintenance 0
scalar OsgEarthNet.uav[89] utilizationCountMissions 59
scalar OsgEarthNet.uav[89] utilizationCountManeuversMission 888
scalar OsgEarthNet.uav[89] utilizationCountManeuversMaintenance 118
scalar OsgEarthNet.uav[89] utilizationCountChargeState 59
scalar OsgEarthNet.uav[89] utilizationCountOverdrawnAfterMission 0
scalar OsgEarthNet.uav[89] utilizationCountIdleState 24
scalar OsgEarthNet.uav[89] utilizationFail 0
scalar OsgEarthNet.uav[90] utilizationSecMission 28580.279490116
scalar OsgEarthNet.uav[90] utilizationSecMaintenance 27119.5648673
scalar OsgEarthNet.uav[90] utilizationSecCharge 192035.55853515
scalar OsgEarthNet.uav[90] utilizationSecIdle 11464.596107438
scalar OsgEarthNet.uav[90] utilizationEnergyMission 137513.67251587
scalar OsgEarthNet.uav[90] utilizationEnergyMaintenance 125763.05557632
scalar OsgEarthNet.uav[90] utilizationEnergyCharge 258870.60992432
scalar OsgEarthNet.uav[90] utilizationEnergyOverdrawMission 0
scalar OsgEarthNet.uav[90] utilizationEnergyOverdrawMaintenance 0
scalar OsgEarthNet.uav[90] utilizationCountMissions 59
scalar OsgEarthNet.uav[90] utilizationCountManeuversMission 862
scalar OsgEarthNet.uav[90] utilizationCountManeuversMaintenance 118
scalar OsgEarthNet.uav[90] utilizationCountChargeState 59
scalar OsgEarthNet.uav[90] utilizationCountOverdrawnAfterMission 0
scalar OsgEarthNet.uav[90] utilizationCountIdleState 27
scalar OsgEarthNet.uav[90] utilizationFail 0
scalar OsgEarthNet.uav[91] utilizationSecMission 28765.525095891
scalar OsgEarthNet.uav[91] utilizationSecMaintenance 26618.445963814
scalar OsgEarthNet.uav[91] utilizationSecCharge 193249.68168422
scalar OsgEarthNet.uav[91] utilizationSecIdle 10566.34625608
scalar OsgEarthNet.uav[91] utilizationEnergyMission 135976.55234909
scalar OsgEarthNet.uav[91] utilizationEnergyMaintenance 123101.02457047
scalar OsgEarthNet.uav[91] utilizationEnergyCharge 262169.74414062
scalar OsgEarthNet.uav[91] utilizationEnergyOverdrawMission 0
scalar OsgEarthNet.uav[91] utilizationEnergyOverdrawMaintenance 0
scalar OsgEarthNet.uav[91] utilizationCountMissions 59
scalar OsgEarthNet.uav[91] utilizationCountManeuversMission 873
scalar OsgEarthNet.uav[91] utilizationCountManeuversMaintenance 118
scalar OsgEarthNet.uav[91] utilizationCountChargeState 59
scalar OsgEarthNet.uav[91] utilizationCountOverdrawnAfterMission 0
scalar OsgEarthNet.uav[91] utilizationCountIdleState 26
scalar OsgEarthNet.uav[91] utilizationFail 0
scalar OsgEarthNet.uav[92] utilizationSecMission 29114.27209557
scalar OsgEarthNet.uav[92] utilizationSecMaintenance 27052.278682526
scalar OsgEarthNet.uav[92] utilizationSecCharge 195609.22121033
scalar OsgEarthNet.uav[92] utilizationSecIdle 7424.2270115755
scalar OsgEarthNet.uav[92] utilizationEnergyMission 141161.85198975
scalar OsgEarthNet.uav[92] utilizationEnergyMaintenance 125615.41159821
scalar OsgEarthNet.uav[92] utilizationEnergyCharge 265694.71313477
scalar OsgEarthNet.uav[92] utilizationEnergyOverdrawMission 0
scalar OsgEarthNet.uav[92] utilizationEnergyOverdrawMaintenance 0
scalar OsgEarthNet.uav[92] utilizationCountMissions 59
scalar OsgEarthNet.uav[92] utilizationCountManeuversMission 889
scalar OsgEarthNet.uav[92] utilizationCountManeuversMaintenance 118
scalar OsgEarthNet.uav[92] utilizationCountChargeState 59
scalar OsgEarthNet.uav[92] utilizationCountOverdrawnAfterMission 0
scalar OsgEarthNet.uav[92] utilizationCountIdleState 23
scalar OsgEarthNet.uav[92] utilizationFail 0
scalar OsgEarthNet.uav[93] utilizationSecMission 28953.207502722
scalar OsgEarthNet.uav[93] utilizationSecMaintenance 27991.24458802
scalar OsgEarthNet.uav[93] utilizationSecCharge 195820
scalar OsgEarthNet.uav[93] utilizationSecIdle 6435.5469092579
scalar OsgEarthNet.uav[93] utilizationEnergyMission 140045.40606308
scalar OsgEarthNet.uav[93] utilizationEnergyMaintenance 129787.24145088
scalar OsgEarthNet.uav[93] utilizationEnergyCharge 264811.66552734
scalar OsgEarthNet.uav[93] utilizationEnergyOverdrawMission 0
scalar OsgEarthNet.uav[93] utilizationEnergyOverdrawMaintenance 0
scalar OsgEarthNet.uav[93] utilizationCountMissions 61
scalar OsgEarthNet.uav[93] utilizationCountManeuversMission 790
scalar OsgEarthNet.uav[93] utilizationCountManeuversMaintenance 122
scalar OsgEarthNet.uav[93] utilizationCountChargeState 60
scalar OsgEarthNet.uav[93] utilizationCountOverdrawnAfterMission 0
scalar OsgEarthNet.uav[93] utilizationCountIdleState 21
scalar OsgEarthNet.uav[93] utilizationFail 0
scalar OsgEarthNet.uav[94] utilizationSecMission 24748.94348962
scalar OsgEarthNet.uav[94] utilizationSecMaintenance 31170.208024285
scalar OsgEarthNet.uav[94] utilizationSecCharge 195660.83955151
scalar OsgEarthNet.uav[94] utilizationSecIdle 7620.007934583
scalar OsgEarthNet.uav[94] utilizationEnergyMission 120048.12016678
scalar OsgEarthNet.uav[94] utilizationEnergyMaintenance 145025.68673325
scalar OsgEarthNet.uav[94] utilizationEnergyCharge 265607.78735352
scalar OsgEarthNet.uav[94] utilizationEnergyOverdrawMission 0
scalar OsgEarthNet.uav[94] utilizationEnergyOverdrawMaintenance 0
scalar OsgEarthNet.uav[94] utilizationCountMissions 60
scalar OsgEarthNet.uav[94] utilizationCountManeuversMission 813
scalar OsgEarthNet.uav[94] utilizationCountManeuversMaintenance 120
scalar OsgEarthNet.uav[94] utilizationCountChargeState 60
scalar OsgEarthNet.uav[94] utilizationCountOverdrawnAfterMission 0
scalar OsgEarthNet.uav[94] utilizationCountIdleState 19
scalar OsgEarthNet.uav[94] utilizationFail 0
scalar OsgEarthNet.uav[95] utilizationSecMission 29258.465723558
scalar OsgEarthNet.uav[95] utilizationSecMaintenance 27678.549021788
scalar OsgEarthNet.uav[95] utilizationSecCharge 195306.96098445
scalar OsgEarthNet.uav[95] utilizationSecIdle 6956.0232702045
scalar OsgEarthNet.uav[95] utilizationEnergyMission 139830.58538437
scalar OsgEarthNet.uav[95] utilizationEnergyMaintenance 127648.61026764
scalar OsgEarthNet.uav[95] utilizationEnergyCharge 265517.14489746
scalar OsgEarthNet.uav[95] utilizationEnergyOverdrawMission 0
scalar OsgEarthNet.uav[95] utilizationEnergyOverdrawMaintenance 502.62228393555
scalar OsgEarthNet.uav[95] utilizationCountMissions 60
scalar OsgEarthNet.uav[95] utilizationCountManeuversMission 876
scalar OsgEarthNet.uav[95] utilizationCountManeuversMaintenance 120
scalar OsgEarthNet.uav[95] utilizationCountChargeState 60
scalar OsgEarthNet.uav[95] utilizationCountOverdrawnAfterMission 1
scalar OsgEarthNet.uav[95] utilizationCountIdleState 17
scalar OsgEarthNet.uav[95] utilizationFail 0
scalar OsgEarthNet.uav[96] utilizationSecMission 29166.877958541
scalar OsgEarthNet.uav[96] utilizationSecMaintenance 26596.448992443
scalar OsgEarthNet.uav[96] utilizationSecCharge 196854.67204902
scalar OsgEarthNet.uav[96] utilizationSecIdle 6582
scalar OsgEarthNet.uav[96] utilizationEnergyMission 142473.5930481
scalar OsgEarthNet.uav[96] utilizationEnergyMaintenance 123198.20991516
scalar OsgEarthNet.uav[96] utilizationEnergyCharge 265694.21166992
scalar OsgEarthNet.uav[96] utilizationEnergyOverdrawMission 0
scalar OsgEarthNet.uav[96] utilizationEnergyOverdrawMaintenance 0
scalar OsgEarthNet.uav[96] utilizationCountMissions 60
scalar OsgEarthNet.uav[96] utilizationCountManeuversMission 913
scalar OsgEarthNet.uav[96] utilizationCountManeuversMaintenance 119
scalar OsgEarthNet.uav[96] utilizationCountChargeState 60
scalar OsgEarthNet.uav[96] utilizationCountOverdrawnAfterMission 0
scalar OsgEarthNet.uav[96] utilizationCountIdleState 23
scalar OsgEarthNet.uav[96] utilizationFail 0
scalar OsgEarthNet.uav[97] utilizationSecMission 26870.126898217
scalar OsgEarthNet.uav[97] utilizationSecMaintenance 29070.092433432
scalar OsgEarthNet.uav[97] utilizationSecCharge 194889.76140269
scalar OsgEarthNet.uav[97] utilizationSecIdle 8370.0182656584
scalar OsgEarthNet.uav[97] utilizationEnergyMission 133261.66667175
scalar OsgEarthNet.uav[97] utilizationEnergyMaintenance 135096.57146072
scalar OsgEarthNet.uav[97] utilizationEnergyCharge 264274.1229248
scalar OsgEarthNet.uav[97] utilizationEnergyOverdrawMission 0
scalar OsgEarthNet.uav[97] utilizationEnergyOverdrawMaintenance 0
scalar OsgEarthNet.uav[97] utilizationCountMissions 60
scalar OsgEarthNet.uav[97] utilizationCountManeuversMission 873
scalar OsgEarthNet.uav[97] utilizationCountManeuversMaintenance 120
scalar OsgEarthNet.uav[97] utilizationCountChargeState 60
scalar OsgEarthNet.uav[97] utilizationCountOverdrawnAfterMission 0
scalar OsgEarthNet.uav[97] utilizationCountIdleState 23
scalar OsgEarthNet.uav[97] utilizationFail 0
scalar OsgEarthNet.uav[98] utilizationSecMission 28980.533077143
scalar OsgEarthNet.uav[98] utilizationSecMaintenance 27350.511317672
scalar OsgEarthNet.uav[98] utilizationSecCharge 196656.95360518
scalar OsgEarthNet.uav[98] utilizationSecIdle 6212.001
scalar OsgEarthNet.uav[98] utilizationEnergyMission 139541.43277359
scalar OsgEarthNet.uav[98] utilizationEnergyMaintenance 127529.69320297
scalar OsgEarthNet.uav[98] utilizationEnergyCharge 265242.99121094
scalar OsgEarthNet.uav[98] utilizationEnergyOverdrawMission 0
scalar OsgEarthNet.uav[98] utilizationEnergyOverdrawMaintenance 122.32363510132
scalar OsgEarthNet.uav[98] utilizationCountMissions 60
scalar OsgEarthNet.uav[98] utilizationCountManeuversMission 899
scalar OsgEarthNet.uav[98] utilizationCountManeuversMaintenance 120
scalar OsgEarthNet.uav[98] utilizationCountChargeState 60
scalar OsgEarthNet.uav[98] utilizationCountOverdrawnAfterMission 2
scalar OsgEarthNet.uav[98] utilizationCountIdleState 24
scalar OsgEarthNet.uav[98] utilizationFail 0
scalar OsgEarthNet.uav[99] utilizationSecMission 31037.125032933
scalar OsgEarthNet.uav[99] utilizationSecMaintenance 25038.093680707
scalar OsgEarthNet.uav[99] utilizationSecCharge 194413.58370457
scalar OsgEarthNet.uav[99] utilizationSecIdle 8711.1965817935
scalar OsgEarthNet.uav[99] utilizationEnergyMission 149587.09421158
scalar OsgEarthNet.uav[99] utilizationEnergyMaintenance 116030.51718521
scalar OsgEarthNet.uav[99] utilizationEnergyCharge 261543.984375
scalar OsgEarthNet.uav[99] utilizationEnergyOverdrawMission 0
scalar OsgEarthNet.uav[99] utilizationEnergyOverdrawMaintenance 0
scalar OsgEarthNet.uav[99] utilizationCountMissions 59
scalar OsgEarthNet.uav[99] utilizationCountManeuversMission 885
scalar OsgEarthNet.uav[99] utilizationCountManeuversMaintenance 118
scalar OsgEarthNet.uav[99] utilizationCountChargeState 59
scalar OsgEarthNet.uav[99] utilizationCountOverdrawnAfterMission 0
scalar OsgEarthNet.uav[99] utilizationCountIdleState 31
scalar OsgEarthNet.uav[99] utilizationFail 0
scalar OsgEarthNet.cs[0] usedPower 5271648.2821013
scalar OsgEarthNet.cs[0] chargedPower 5271648.2821013
scalar OsgEarthNet.cs[0] chargedMobileNodes 900
scalar OsgEarthNet.cs[0] reservations 1206
scalar OsgEarthNet.cs[1] usedPower 5595885.0031067
scalar OsgEarthNet.cs[1] chargedPower 5595885.0031067
scalar OsgEarthNet.cs[1] chargedMobileNodes 920
scalar OsgEarthNet.cs[1] reservations 1241
scalar OsgEarthNet.cs[2] usedPower 9732217.1815321
scalar OsgEarthNet.cs[2] chargedPower 9732217.1815321
scalar OsgEarthNet.cs[2] chargedMobileNodes 1781
scalar OsgEarthNet.cs[2] reservations 2204

