version 2
run Szenario_Hotel_Gabelbach-533-20180719-22:59:31-16208
attr configname Szenario_Hotel_Gabelbach
attr datetime 20180719-22:59:31
attr experiment Szenario_Hotel_Gabelbach
attr inifile omnetpp.ini
attr iterationvars "$replM=2, $biWeight=0.35, $replSearchM=1, $numUAVs=100"
attr iterationvarsf replM=2,biWeight=0.35,replSearchM=1,numUAVs=100-
attr measurement "$replM=2, $biWeight=0.35, $replSearchM=1, $numUAVs=100"
attr network OsgEarthNet
attr processid 16208
attr repetition 5
attr replication #5
attr resultdir results
attr runnumber 533
attr seedset 533
itervar biWeight 0.35
itervar numUAVs 100
itervar replM 2
itervar replSearchM 1
param *.osgEarthScene.scene "\"Szenario_Hotel_Gabelbach.earth\""
param *.playgroundLatitude 50.6830269
param *.playgroundLongitude 10.8538055
param *.playgroundWidth 3500m
param *.playgroundHeight 3500m
param *.cs[0].posX 3537m
param *.cs[0].posY 965m
param *.cs[0].posZ 538m
param *.cs[1].posX 312m
param *.cs[1].posY 1262m
param *.cs[1].posZ 539m
param *.cs[2].posX 2185m
param *.cs[2].posY 3026m
param *.cs[2].posZ 777m
param *.cs[3].posX 10m
param *.cs[3].posY 2200m
param *.cs[3].posZ 560m
param *.cs[4].posX 750m
param *.cs[4].posY 200m
param *.cs[4].posZ 540m
param *.cs[5].posX 2450m
param *.cs[5].posY 180m
param *.cs[5].posZ 524m
param *.cs[6].posX 3140m
param *.cs[6].posY 1790m
param *.cs[6].posZ 606m
param *.numCSs 3
param *.uav[*].replacementMethod 2
param *.uav[*].weightedSumWeight 0.35
param *.missionControl.replacementSearchMethod 1
param *.numUAVs 100
param *.*.timeStep 10s
param *.uav[*].commandPreviewCommandCount 20
param *.missionControl.missionFiles "\"missions\\\\Szenario_WB_Hotel_Gabelbach_Mission_Hotel.waypoints,missions\\\\Szenario_WB_Hotel_Gabelbach_Mission_Kickelhahn.waypoints,missions\\\\Szenario_WB_Hotel_Gabelbach_Mission_Ilmenau_Sportplatz.waypoints,missions\\\\Szenario_WB_Hotel_Gabelbach_Mission_Manebach_Mitte.waypoints,missions\\\\Szenario_WB_Hotel_Gabelbach_Mission_Manebach_Sued.waypoints,missions\\\\Szenario_WB_Hotel_Gabelbach_Hover_HoheSchlaufe.waypoints,missions\\\\Szenario_WB_Hotel_Gabelbach_Hover_Kickelhahn.waypoints,missions\\\\Szenario_WB_Hotel_Gabelbach_Hover_Gabelbachskopf.waypoints,missions\\\\Szenario_WB_Hotel_Gabelbach_Hover_Dachskopf.waypoints\""
param *.uav[0].startX 3537m
param *.uav[0].startY 965m
param *.uav[0].startZ 539m
param *.uav[1].startX 312m
param *.uav[1].startY 1262m
param *.uav[1].startZ 540m
param *.uav[2].startX 2185m
param *.uav[2].startY 3026m
param *.uav[2].startZ 778m
param *.uav[3].startX 3537m
param *.uav[3].startY 965m
param *.uav[3].startZ 539m
param *.uav[4].startX 312m
param *.uav[4].startY 1262m
param *.uav[4].startZ 540m
param *.uav[5].startX 2185m
param *.uav[5].startY 3026m
param *.uav[5].startZ 778m
param *.uav[6].startX 3537m
param *.uav[6].startY 965m
param *.uav[6].startZ 539m
param *.uav[7].startX 312m
param *.uav[7].startY 1262m
param *.uav[7].startZ 540m
param *.uav[8].startX 2185m
param *.uav[8].startY 3026m
param *.uav[8].startZ 778m
param *.uav[9].startX 3537m
param *.uav[9].startY 965m
param *.uav[9].startZ 539m
param *.uav[10].startX 3537m
param *.uav[10].startY 965m
param *.uav[10].startZ 539m
param *.uav[11].startX 312m
param *.uav[11].startY 1262m
param *.uav[11].startZ 540m
param *.uav[12].startX 2185m
param *.uav[12].startY 3026m
param *.uav[12].startZ 778m
param *.uav[13].startX 3537m
param *.uav[13].startY 965m
param *.uav[13].startZ 539m
param *.uav[14].startX 312m
param *.uav[14].startY 1262m
param *.uav[14].startZ 540m
param *.uav[15].startX 2185m
param *.uav[15].startY 3026m
param *.uav[15].startZ 778m
param *.uav[16].startX 3537m
param *.uav[16].startY 965m
param *.uav[16].startZ 539m
param *.uav[17].startX 312m
param *.uav[17].startY 1262m
param *.uav[17].startZ 540m
param *.uav[18].startX 2185m
param *.uav[18].startY 3026m
param *.uav[18].startZ 778m
param *.uav[19].startX 3537m
param *.uav[19].startY 965m
param *.uav[19].startZ 539m
param *.uav[20].startX 3537m
param *.uav[20].startY 965m
param *.uav[20].startZ 539m
param *.uav[21].startX 312m
param *.uav[21].startY 1262m
param *.uav[21].startZ 540m
param *.uav[22].startX 2185m
param *.uav[22].startY 3026m
param *.uav[22].startZ 778m
param *.uav[23].startX 3537m
param *.uav[23].startY 965m
param *.uav[23].startZ 539m
param *.uav[24].startX 312m
param *.uav[24].startY 1262m
param *.uav[24].startZ 540m
param *.uav[25].startX 2185m
param *.uav[25].startY 3026m
param *.uav[25].startZ 778m
param *.uav[26].startX 3537m
param *.uav[26].startY 965m
param *.uav[26].startZ 539m
param *.uav[27].startX 312m
param *.uav[27].startY 1262m
param *.uav[27].startZ 540m
param *.uav[28].startX 2185m
param *.uav[28].startY 3026m
param *.uav[28].startZ 778m
param *.uav[29].startX 3537m
param *.uav[29].startY 965m
param *.uav[29].startZ 539m
param *.uav[30].startX 3537m
param *.uav[30].startY 965m
param *.uav[30].startZ 539m
param *.uav[31].startX 312m
param *.uav[31].startY 1262m
param *.uav[31].startZ 540m
param *.uav[32].startX 2185m
param *.uav[32].startY 3026m
param *.uav[32].startZ 778m
param *.uav[33].startX 3537m
param *.uav[33].startY 965m
param *.uav[33].startZ 539m
param *.uav[34].startX 312m
param *.uav[34].startY 1262m
param *.uav[34].startZ 540m
param *.uav[35].startX 2185m
param *.uav[35].startY 3026m
param *.uav[35].startZ 778m
param *.uav[36].startX 3537m
param *.uav[36].startY 965m
param *.uav[36].startZ 539m
param *.uav[37].startX 312m
param *.uav[37].startY 1262m
param *.uav[37].startZ 540m
param *.uav[38].startX 2185m
param *.uav[38].startY 3026m
param *.uav[38].startZ 778m
param *.uav[39].startX 3537m
param *.uav[39].startY 965m
param *.uav[39].startZ 539m
param *.uav[40].startX 3537m
param *.uav[40].startY 965m
param *.uav[40].startZ 539m
param *.uav[41].startX 312m
param *.uav[41].startY 1262m
param *.uav[41].startZ 540m
param *.uav[42].startX 2185m
param *.uav[42].startY 3026m
param *.uav[42].startZ 778m
param *.uav[43].startX 3537m
param *.uav[43].startY 965m
param *.uav[43].startZ 539m
param *.uav[44].startX 312m
param *.uav[44].startY 1262m
param *.uav[44].startZ 540m
param *.uav[45].startX 2185m
param *.uav[45].startY 3026m
param *.uav[45].startZ 778m
param *.uav[46].startX 3537m
param *.uav[46].startY 965m
param *.uav[46].startZ 539m
param *.uav[47].startX 312m
param *.uav[47].startY 1262m
param *.uav[47].startZ 540m
param *.uav[48].startX 2185m
param *.uav[48].startY 3026m
param *.uav[48].startZ 778m
param *.uav[49].startX 3537m
param *.uav[49].startY 965m
param *.uav[49].startZ 539m
param *.uav[50].startX 3537m
param *.uav[50].startY 965m
param *.uav[50].startZ 539m
param *.uav[51].startX 312m
param *.uav[51].startY 1262m
param *.uav[51].startZ 540m
param *.uav[52].startX 2185m
param *.uav[52].startY 3026m
param *.uav[52].startZ 778m
param *.uav[53].startX 3537m
param *.uav[53].startY 965m
param *.uav[53].startZ 539m
param *.uav[54].startX 312m
param *.uav[54].startY 1262m
param *.uav[54].startZ 540m
param *.uav[55].startX 2185m
param *.uav[55].startY 3026m
param *.uav[55].startZ 778m
param *.uav[56].startX 3537m
param *.uav[56].startY 965m
param *.uav[56].startZ 539m
param *.uav[57].startX 312m
param *.uav[57].startY 1262m
param *.uav[57].startZ 540m
param *.uav[58].startX 2185m
param *.uav[58].startY 3026m
param *.uav[58].startZ 778m
param *.uav[59].startX 3537m
param *.uav[59].startY 965m
param *.uav[59].startZ 539m
param *.uav[60].startX 3537m
param *.uav[60].startY 965m
param *.uav[60].startZ 539m
param *.uav[61].startX 312m
param *.uav[61].startY 1262m
param *.uav[61].startZ 540m
param *.uav[62].startX 2185m
param *.uav[62].startY 3026m
param *.uav[62].startZ 778m
param *.uav[63].startX 3537m
param *.uav[63].startY 965m
param *.uav[63].startZ 539m
param *.uav[64].startX 312m
param *.uav[64].startY 1262m
param *.uav[64].startZ 540m
param *.uav[65].startX 2185m
param *.uav[65].startY 3026m
param *.uav[65].startZ 778m
param *.uav[66].startX 3537m
param *.uav[66].startY 965m
param *.uav[66].startZ 539m
param *.uav[67].startX 312m
param *.uav[67].startY 1262m
param *.uav[67].startZ 540m
param *.uav[68].startX 2185m
param *.uav[68].startY 3026m
param *.uav[68].startZ 778m
param *.uav[69].startX 3537m
param *.uav[69].startY 965m
param *.uav[69].startZ 539m
param *.uav[70].startX 3537m
param *.uav[70].startY 965m
param *.uav[70].startZ 539m
param *.uav[71].startX 312m
param *.uav[71].startY 1262m
param *.uav[71].startZ 540m
param *.uav[72].startX 2185m
param *.uav[72].startY 3026m
param *.uav[72].startZ 778m
param *.uav[73].startX 3537m
param *.uav[73].startY 965m
param *.uav[73].startZ 539m
param *.uav[74].startX 312m
param *.uav[74].startY 1262m
param *.uav[74].startZ 540m
param *.uav[75].startX 2185m
param *.uav[75].startY 3026m
param *.uav[75].startZ 778m
param *.uav[76].startX 3537m
param *.uav[76].startY 965m
param *.uav[76].startZ 539m
param *.uav[77].startX 312m
param *.uav[77].startY 1262m
param *.uav[77].startZ 540m
param *.uav[78].startX 2185m
param *.uav[78].startY 3026m
param *.uav[78].startZ 778m
param *.uav[79].startX 3537m
param *.uav[79].startY 965m
param *.uav[79].startZ 539m
param *.uav[80].startX 3537m
param *.uav[80].startY 965m
param *.uav[80].startZ 539m
param *.uav[81].startX 312m
param *.uav[81].startY 1262m
param *.uav[81].startZ 540m
param *.uav[82].startX 2185m
param *.uav[82].startY 3026m
param *.uav[82].startZ 778m
param *.uav[83].startX 3537m
param *.uav[83].startY 965m
param *.uav[83].startZ 539m
param *.uav[84].startX 312m
param *.uav[84].startY 1262m
param *.uav[84].startZ 540m
param *.uav[85].startX 2185m
param *.uav[85].startY 3026m
param *.uav[85].startZ 778m
param *.uav[86].startX 3537m
param *.uav[86].startY 965m
param *.uav[86].startZ 539m
param *.uav[87].startX 312m
param *.uav[87].startY 1262m
param *.uav[87].startZ 540m
param *.uav[88].startX 2185m
param *.uav[88].startY 3026m
param *.uav[88].startZ 778m
param *.uav[89].startX 3537m
param *.uav[89].startY 965m
param *.uav[89].startZ 539m
param *.uav[90].startX 3537m
param *.uav[90].startY 965m
param *.uav[90].startZ 539m
param *.uav[91].startX 312m
param *.uav[91].startY 1262m
param *.uav[91].startZ 540m
param *.uav[92].startX 2185m
param *.uav[92].startY 3026m
param *.uav[92].startZ 778m
param *.uav[93].startX 3537m
param *.uav[93].startY 965m
param *.uav[93].startZ 539m
param *.uav[94].startX 312m
param *.uav[94].startY 1262m
param *.uav[94].startZ 540m
param *.uav[95].startX 2185m
param *.uav[95].startY 3026m
param *.uav[95].startZ 778m
param *.uav[96].startX 3537m
param *.uav[96].startY 965m
param *.uav[96].startZ 539m
param *.uav[97].startX 312m
param *.uav[97].startY 1262m
param *.uav[97].startZ 540m
param *.uav[98].startX 2185m
param *.uav[98].startY 3026m
param *.uav[98].startZ 778m
param *.uav[99].startX 3537m
param *.uav[99].startY 965m
param *.uav[99].startZ 539m
param *.osgEarthScene.scene "\"boston.earth\""
param *.playgroundLatitude 42.3558
param *.playgroundLongitude -71.0677
param *.playgroundWidth 400m
param *.playgroundHeight 200m
param *.channelController.connectionColor "\"#0000FF40\""
param *.channelController.showConnections false
param *.uav[*].modelURL "\"quadrocopter.small.obj.15.scale.0,0,90.rot\""
param *.uav[*].labelColor "\"#FF7C00CC\""
param *.uav[*].label2Color "\"#FF7C00EE\""
param *.uav[*].batteryCapacity 5200mAh
param *.uav[*].batteryRemaining uav[index].batteryCapacity
param *.uav[*].predictionQuantile 0.95
param *.uav[*].replacementMethod 2
param *.uav[*].weightedSumWeight 0.5
param *.cs[*].modelURL "\"chargingstation_v1.osgt.2.scale.0,0,0.rot.0,0,-15e-1.trans\""
param *.cs[*].spotsWaiting 999
param *.cs[*].spotsCharging 999
param *.cs[*].chargeEffectivenessPercentage 100
param *.cs[*].nonLinearPhaseStartPercentage 85
param *.cs[*].chargeCurrent 6.0A
param *.cs[*].prioritizeFastCharge true
param *.missionControl.replacementSearchMethod 0
param *.*.timeStep 9s

scalar OsgEarthNet.uav[0] utilizationSecMission 440
scalar OsgEarthNet.uav[0] utilizationSecMaintenance 447.1303002674
scalar OsgEarthNet.uav[0] utilizationSecCharge 3550
scalar OsgEarthNet.uav[0] utilizationSecIdle 254762.86869973
scalar OsgEarthNet.uav[0] utilizationEnergyMission 2254.7251548767
scalar OsgEarthNet.uav[0] utilizationEnergyMaintenance 2051.1001091003
scalar OsgEarthNet.uav[0] utilizationEnergyCharge 4580.1235351562
scalar OsgEarthNet.uav[0] utilizationEnergyOverdrawMission 0
scalar OsgEarthNet.uav[0] utilizationEnergyOverdrawMaintenance 0
scalar OsgEarthNet.uav[0] utilizationCountMissions 1
scalar OsgEarthNet.uav[0] utilizationCountManeuversMission 22
scalar OsgEarthNet.uav[0] utilizationCountManeuversMaintenance 2
scalar OsgEarthNet.uav[0] utilizationCountChargeState 1
scalar OsgEarthNet.uav[0] utilizationCountOverdrawnAfterMission 0
scalar OsgEarthNet.uav[0] utilizationCountIdleState 2
scalar OsgEarthNet.uav[0] utilizationFail 0
scalar OsgEarthNet.uav[0] simulationTime 259200
scalar OsgEarthNet.uav[1] utilizationSecMission 213.40226662093
scalar OsgEarthNet.uav[1] utilizationSecMaintenance 292.41944606525
scalar OsgEarthNet.uav[1] utilizationSecCharge 2290
scalar OsgEarthNet.uav[1] utilizationSecIdle 256404.17728731
scalar OsgEarthNet.uav[1] utilizationEnergyMission 902.96278381348
scalar OsgEarthNet.uav[1] utilizationEnergyMaintenance 1417.8307723999
scalar OsgEarthNet.uav[1] utilizationEnergyCharge 2320.7922363281
scalar OsgEarthNet.uav[1] utilizationEnergyOverdrawMission 0
scalar OsgEarthNet.uav[1] utilizationEnergyOverdrawMaintenance 0
scalar OsgEarthNet.uav[1] utilizationCountMissions 1
scalar OsgEarthNet.uav[1] utilizationCountManeuversMission 3
scalar OsgEarthNet.uav[1] utilizationCountManeuversMaintenance 2
scalar OsgEarthNet.uav[1] utilizationCountChargeState 1
scalar OsgEarthNet.uav[1] utilizationCountOverdrawnAfterMission 0
scalar OsgEarthNet.uav[1] utilizationCountIdleState 2
scalar OsgEarthNet.uav[1] utilizationFail 0
scalar OsgEarthNet.uav[1] simulationTime 259200
scalar OsgEarthNet.uav[2] utilizationSecMission 40693.430148896
scalar OsgEarthNet.uav[2] utilizationSecMaintenance 16526.331997809
scalar OsgEarthNet.uav[2] utilizationSecCharge 197748.56380391
scalar OsgEarthNet.uav[2] utilizationSecIdle 4231.673049383
scalar OsgEarthNet.uav[2] utilizationEnergyMission 197471.98168182
scalar OsgEarthNet.uav[2] utilizationEnergyMaintenance 75551.032669067
scalar OsgEarthNet.uav[2] utilizationEnergyCharge 270767.62060547
scalar OsgEarthNet.uav[2] utilizationEnergyOverdrawMission 0
scalar OsgEarthNet.uav[2] utilizationEnergyOverdrawMaintenance 0
scalar OsgEarthNet.uav[2] utilizationCountMissions 59
scalar OsgEarthNet.uav[2] utilizationCountManeuversMission 1207
scalar OsgEarthNet.uav[2] utilizationCountManeuversMaintenance 118
scalar OsgEarthNet.uav[2] utilizationCountChargeState 59
scalar OsgEarthNet.uav[2] utilizationCountOverdrawnAfterMission 0
scalar OsgEarthNet.uav[2] utilizationCountIdleState 22
scalar OsgEarthNet.uav[2] utilizationFail 0
scalar OsgEarthNet.uav[2] simulationTime 259200
scalar OsgEarthNet.uav[3] utilizationSecMission 480
scalar OsgEarthNet.uav[3] utilizationSecMaintenance 447.1303002674
scalar OsgEarthNet.uav[3] utilizationSecCharge 3520
scalar OsgEarthNet.uav[3] utilizationSecIdle 254752.86869973
scalar OsgEarthNet.uav[3] utilizationEnergyMission 2694.9310150146
scalar OsgEarthNet.uav[3] utilizationEnergyMaintenance 2111.8527336121
scalar OsgEarthNet.uav[3] utilizationEnergyCharge 4526.3676757812
scalar OsgEarthNet.uav[3] utilizationEnergyOverdrawMission 0
scalar OsgEarthNet.uav[3] utilizationEnergyOverdrawMaintenance 0
scalar OsgEarthNet.uav[3] utilizationCountMissions 1
scalar OsgEarthNet.uav[3] utilizationCountManeuversMission 24
scalar OsgEarthNet.uav[3] utilizationCountManeuversMaintenance 2
scalar OsgEarthNet.uav[3] utilizationCountChargeState 1
scalar OsgEarthNet.uav[3] utilizationCountOverdrawnAfterMission 0
scalar OsgEarthNet.uav[3] utilizationCountIdleState 2
scalar OsgEarthNet.uav[3] utilizationFail 0
scalar OsgEarthNet.uav[3] simulationTime 259200
scalar OsgEarthNet.uav[4] utilizationSecMission 11768.348224002
scalar OsgEarthNet.uav[4] utilizationSecMaintenance 8110.5536662906
scalar OsgEarthNet.uav[4] utilizationSecCharge 74069.094109708
scalar OsgEarthNet.uav[4] utilizationSecIdle 165252.003
scalar OsgEarthNet.uav[4] utilizationEnergyMission 58948.382270813
scalar OsgEarthNet.uav[4] utilizationEnergyMaintenance 37970.080432892
scalar OsgEarthNet.uav[4] utilizationEnergyCharge 93288.818359375
scalar OsgEarthNet.uav[4] utilizationEnergyOverdrawMission 0
scalar OsgEarthNet.uav[4] utilizationEnergyOverdrawMaintenance 0
scalar OsgEarthNet.uav[4] utilizationCountMissions 23
scalar OsgEarthNet.uav[4] utilizationCountManeuversMission 447
scalar OsgEarthNet.uav[4] utilizationCountManeuversMaintenance 46
scalar OsgEarthNet.uav[4] utilizationCountChargeState 23
scalar OsgEarthNet.uav[4] utilizationCountOverdrawnAfterMission 0
scalar OsgEarthNet.uav[4] utilizationCountIdleState 23
scalar OsgEarthNet.uav[4] utilizationFail 0
scalar OsgEarthNet.uav[4] simulationTime 259200
scalar OsgEarthNet.uav[5] utilizationSecMission 39227.175613312
scalar OsgEarthNet.uav[5] utilizationSecMaintenance 17802.402050786
scalar OsgEarthNet.uav[5] utilizationSecCharge 196598.4163359
scalar OsgEarthNet.uav[5] utilizationSecIdle 5572.005
scalar OsgEarthNet.uav[5] utilizationEnergyMission 187574.47027969
scalar OsgEarthNet.uav[5] utilizationEnergyMaintenance 82326.840000153
scalar OsgEarthNet.uav[5] utilizationEnergyCharge 271077.40234375
scalar OsgEarthNet.uav[5] utilizationEnergyOverdrawMission 0
scalar OsgEarthNet.uav[5] utilizationEnergyOverdrawMaintenance 0
scalar OsgEarthNet.uav[5] utilizationCountMissions 59
scalar OsgEarthNet.uav[5] utilizationCountManeuversMission 1179
scalar OsgEarthNet.uav[5] utilizationCountManeuversMaintenance 118
scalar OsgEarthNet.uav[5] utilizationCountChargeState 59
scalar OsgEarthNet.uav[5] utilizationCountOverdrawnAfterMission 0
scalar OsgEarthNet.uav[5] utilizationCountIdleState 21
scalar OsgEarthNet.uav[5] utilizationFail 0
scalar OsgEarthNet.uav[5] simulationTime 259200
scalar OsgEarthNet.uav[6] utilizationSecMission 1410.99226641
scalar OsgEarthNet.uav[6] utilizationSecMaintenance 429.19431399076
scalar OsgEarthNet.uav[6] utilizationSecCharge 6930
scalar OsgEarthNet.uav[6] utilizationSecIdle 250429.8124196
scalar OsgEarthNet.uav[6] utilizationEnergyMission 6823.0199890137
scalar OsgEarthNet.uav[6] utilizationEnergyMaintenance 2127.0276222229
scalar OsgEarthNet.uav[6] utilizationEnergyCharge 8875.6909179688
scalar OsgEarthNet.uav[6] utilizationEnergyOverdrawMission 0
scalar OsgEarthNet.uav[6] utilizationEnergyOverdrawMaintenance 0
scalar OsgEarthNet.uav[6] utilizationCountMissions 2
scalar OsgEarthNet.uav[6] utilizationCountManeuversMission 23
scalar OsgEarthNet.uav[6] utilizationCountManeuversMaintenance 4
scalar OsgEarthNet.uav[6] utilizationCountChargeState 2
scalar OsgEarthNet.uav[6] utilizationCountOverdrawnAfterMission 0
scalar OsgEarthNet.uav[6] utilizationCountIdleState 3
scalar OsgEarthNet.uav[6] utilizationFail 0
scalar OsgEarthNet.uav[6] simulationTime 259200
scalar OsgEarthNet.uav[7] utilizationSecMission 18530.800784996
scalar OsgEarthNet.uav[7] utilizationSecMaintenance 12895.624045982
scalar OsgEarthNet.uav[7] utilizationSecCharge 118968.96227951
scalar OsgEarthNet.uav[7] utilizationSecIdle 108804.61188952
scalar OsgEarthNet.uav[7] utilizationEnergyMission 92742.567604065
scalar OsgEarthNet.uav[7] utilizationEnergyMaintenance 60202.856342316
scalar OsgEarthNet.uav[7] utilizationEnergyCharge 149109.04321289
scalar OsgEarthNet.uav[7] utilizationEnergyOverdrawMission 0
scalar OsgEarthNet.uav[7] utilizationEnergyOverdrawMaintenance 0
scalar OsgEarthNet.uav[7] utilizationCountMissions 37
scalar OsgEarthNet.uav[7] utilizationCountManeuversMission 688
scalar OsgEarthNet.uav[7] utilizationCountManeuversMaintenance 74
scalar OsgEarthNet.uav[7] utilizationCountChargeState 37
scalar OsgEarthNet.uav[7] utilizationCountOverdrawnAfterMission 0
scalar OsgEarthNet.uav[7] utilizationCountIdleState 37
scalar OsgEarthNet.uav[7] utilizationFail 0
scalar OsgEarthNet.uav[7] simulationTime 259200
scalar OsgEarthNet.uav[8] utilizationSecMission 40735.676958689
scalar OsgEarthNet.uav[8] utilizationSecMaintenance 16912.322041311
scalar OsgEarthNet.uav[8] utilizationSecCharge 198840
scalar OsgEarthNet.uav[8] utilizationSecIdle 2712
scalar OsgEarthNet.uav[8] utilizationEnergyMission 195545.77542484
scalar OsgEarthNet.uav[8] utilizationEnergyMaintenance 78560.163105011
scalar OsgEarthNet.uav[8] utilizationEnergyCharge 271262.5625
scalar OsgEarthNet.uav[8] utilizationEnergyOverdrawMission 0
scalar OsgEarthNet.uav[8] utilizationEnergyOverdrawMaintenance 0
scalar OsgEarthNet.uav[8] utilizationCountMissions 59
scalar OsgEarthNet.uav[8] utilizationCountManeuversMission 1129
scalar OsgEarthNet.uav[8] utilizationCountManeuversMaintenance 119
scalar OsgEarthNet.uav[8] utilizationCountChargeState 59
scalar OsgEarthNet.uav[8] utilizationCountOverdrawnAfterMission 0
scalar OsgEarthNet.uav[8] utilizationCountIdleState 21
scalar OsgEarthNet.uav[8] utilizationFail 0
scalar OsgEarthNet.uav[8] simulationTime 259200
scalar OsgEarthNet.uav[9] utilizationSecMission 1660.6251525803
scalar OsgEarthNet.uav[9] utilizationSecMaintenance 1097.7795577959
scalar OsgEarthNet.uav[9] utilizationSecCharge 10510
scalar OsgEarthNet.uav[9] utilizationSecIdle 245931.59428962
scalar OsgEarthNet.uav[9] utilizationEnergyMission 8170.0761528015
scalar OsgEarthNet.uav[9] utilizationEnergyMaintenance 5214.6450958252
scalar OsgEarthNet.uav[9] utilizationEnergyCharge 13620.937988281
scalar OsgEarthNet.uav[9] utilizationEnergyOverdrawMission 0
scalar OsgEarthNet.uav[9] utilizationEnergyOverdrawMaintenance 0
scalar OsgEarthNet.uav[9] utilizationCountMissions 3
scalar OsgEarthNet.uav[9] utilizationCountManeuversMission 57
scalar OsgEarthNet.uav[9] utilizationCountManeuversMaintenance 6
scalar OsgEarthNet.uav[9] utilizationCountChargeState 3
scalar OsgEarthNet.uav[9] utilizationCountOverdrawnAfterMission 0
scalar OsgEarthNet.uav[9] utilizationCountIdleState 4
scalar OsgEarthNet.uav[9] utilizationFail 0
scalar OsgEarthNet.uav[9] simulationTime 259200
scalar OsgEarthNet.uav[10] utilizationSecMission 940
scalar OsgEarthNet.uav[10] utilizationSecMaintenance 894.56202711707
scalar OsgEarthNet.uav[10] utilizationSecCharge 6930
scalar OsgEarthNet.uav[10] utilizationSecIdle 250435.43697288
scalar OsgEarthNet.uav[10] utilizationEnergyMission 4328.1782112122
scalar OsgEarthNet.uav[10] utilizationEnergyMaintenance 4148.3484725952
scalar OsgEarthNet.uav[10] utilizationEnergyCharge 8901.4584960938
scalar OsgEarthNet.uav[10] utilizationEnergyOverdrawMission 0
scalar OsgEarthNet.uav[10] utilizationEnergyOverdrawMaintenance 0
scalar OsgEarthNet.uav[10] utilizationCountMissions 2
scalar OsgEarthNet.uav[10] utilizationCountManeuversMission 47
scalar OsgEarthNet.uav[10] utilizationCountManeuversMaintenance 4
scalar OsgEarthNet.uav[10] utilizationCountChargeState 2
scalar OsgEarthNet.uav[10] utilizationCountOverdrawnAfterMission 0
scalar OsgEarthNet.uav[10] utilizationCountIdleState 3
scalar OsgEarthNet.uav[10] utilizationFail 0
scalar OsgEarthNet.uav[10] simulationTime 259200
scalar OsgEarthNet.uav[11] utilizationSecMission 16620.553149742
scalar OsgEarthNet.uav[11] utilizationSecMaintenance 11761.712191827
scalar OsgEarthNet.uav[11] utilizationSecCharge 110529.38005555
scalar OsgEarthNet.uav[11] utilizationSecIdle 120288.35360288
scalar OsgEarthNet.uav[11] utilizationEnergyMission 81531.618995666
scalar OsgEarthNet.uav[11] utilizationEnergyMaintenance 55675.159561157
scalar OsgEarthNet.uav[11] utilizationEnergyCharge 137292.63745117
scalar OsgEarthNet.uav[11] utilizationEnergyOverdrawMission 0
scalar OsgEarthNet.uav[11] utilizationEnergyOverdrawMaintenance 0
scalar OsgEarthNet.uav[11] utilizationCountMissions 35
scalar OsgEarthNet.uav[11] utilizationCountManeuversMission 555
scalar OsgEarthNet.uav[11] utilizationCountManeuversMaintenance 70
scalar OsgEarthNet.uav[11] utilizationCountChargeState 35
scalar OsgEarthNet.uav[11] utilizationCountOverdrawnAfterMission 0
scalar OsgEarthNet.uav[11] utilizationCountIdleState 35
scalar OsgEarthNet.uav[11] utilizationFail 0
scalar OsgEarthNet.uav[11] simulationTime 259200
scalar OsgEarthNet.uav[12] utilizationSecMission 40495.944021423
scalar OsgEarthNet.uav[12] utilizationSecMaintenance 16888.452605889
scalar OsgEarthNet.uav[12] utilizationSecCharge 196320.14671928
scalar OsgEarthNet.uav[12] utilizationSecIdle 5495.4556534032
scalar OsgEarthNet.uav[12] utilizationEnergyMission 196287.40568542
scalar OsgEarthNet.uav[12] utilizationEnergyMaintenance 77322.080047607
scalar OsgEarthNet.uav[12] utilizationEnergyCharge 269771.04150391
scalar OsgEarthNet.uav[12] utilizationEnergyOverdrawMission 0
scalar OsgEarthNet.uav[12] utilizationEnergyOverdrawMaintenance 0
scalar OsgEarthNet.uav[12] utilizationCountMissions 59
scalar OsgEarthNet.uav[12] utilizationCountManeuversMission 1260
scalar OsgEarthNet.uav[12] utilizationCountManeuversMaintenance 118
scalar OsgEarthNet.uav[12] utilizationCountChargeState 59
scalar OsgEarthNet.uav[12] utilizationCountOverdrawnAfterMission 0
scalar OsgEarthNet.uav[12] utilizationCountIdleState 23
scalar OsgEarthNet.uav[12] utilizationFail 0
scalar OsgEarthNet.uav[12] simulationTime 259200
scalar OsgEarthNet.uav[13] utilizationSecMission 10330.432670601
scalar OsgEarthNet.uav[13] utilizationSecMaintenance 6637.5643293993
scalar OsgEarthNet.uav[13] utilizationSecCharge 63190
scalar OsgEarthNet.uav[13] utilizationSecIdle 179042.002
scalar OsgEarthNet.uav[13] utilizationEnergyMission 50480.684694943
scalar OsgEarthNet.uav[13] utilizationEnergyMaintenance 31766.248405456
scalar OsgEarthNet.uav[13] utilizationEnergyCharge 81512.9375
scalar OsgEarthNet.uav[13] utilizationEnergyOverdrawMission 0
scalar OsgEarthNet.uav[13] utilizationEnergyOverdrawMaintenance 0
scalar OsgEarthNet.uav[13] utilizationCountMissions 18
scalar OsgEarthNet.uav[13] utilizationCountManeuversMission 335
scalar OsgEarthNet.uav[13] utilizationCountManeuversMaintenance 37
scalar OsgEarthNet.uav[13] utilizationCountChargeState 18
scalar OsgEarthNet.uav[13] utilizationCountOverdrawnAfterMission 0
scalar OsgEarthNet.uav[13] utilizationCountIdleState 19
scalar OsgEarthNet.uav[13] utilizationFail 0
scalar OsgEarthNet.uav[13] simulationTime 259200
scalar OsgEarthNet.uav[14] utilizationSecMission 15191.709655231
scalar OsgEarthNet.uav[14] utilizationSecMaintenance 11281.327206821
scalar OsgEarthNet.uav[14] utilizationSecCharge 104260
scalar OsgEarthNet.uav[14] utilizationSecIdle 128466.96213795
scalar OsgEarthNet.uav[14] utilizationEnergyMission 74677.364131927
scalar OsgEarthNet.uav[14] utilizationEnergyMaintenance 53231.169811249
scalar OsgEarthNet.uav[14] utilizationEnergyCharge 128347.23022461
scalar OsgEarthNet.uav[14] utilizationEnergyOverdrawMission 0
scalar OsgEarthNet.uav[14] utilizationEnergyOverdrawMaintenance 0
scalar OsgEarthNet.uav[14] utilizationCountMissions 33
scalar OsgEarthNet.uav[14] utilizationCountManeuversMission 550
scalar OsgEarthNet.uav[14] utilizationCountManeuversMaintenance 66
scalar OsgEarthNet.uav[14] utilizationCountChargeState 33
scalar OsgEarthNet.uav[14] utilizationCountOverdrawnAfterMission 0
scalar OsgEarthNet.uav[14] utilizationCountIdleState 34
scalar OsgEarthNet.uav[14] utilizationFail 0
scalar OsgEarthNet.uav[14] simulationTime 259200
scalar OsgEarthNet.uav[15] utilizationSecMission 38931.27973354
scalar OsgEarthNet.uav[15] utilizationSecMaintenance 17923.287279266
scalar OsgEarthNet.uav[15] utilizationSecCharge 197123.42598719
scalar OsgEarthNet.uav[15] utilizationSecIdle 5222.006
scalar OsgEarthNet.uav[15] utilizationEnergyMission 189284.94010162
scalar OsgEarthNet.uav[15] utilizationEnergyMaintenance 83964.508579254
scalar OsgEarthNet.uav[15] utilizationEnergyCharge 271076.72705078
scalar OsgEarthNet.uav[15] utilizationEnergyOverdrawMission 0
scalar OsgEarthNet.uav[15] utilizationEnergyOverdrawMaintenance 0
scalar OsgEarthNet.uav[15] utilizationCountMissions 59
scalar OsgEarthNet.uav[15] utilizationCountManeuversMission 1136
scalar OsgEarthNet.uav[15] utilizationCountManeuversMaintenance 118
scalar OsgEarthNet.uav[15] utilizationCountChargeState 59
scalar OsgEarthNet.uav[15] utilizationCountOverdrawnAfterMission 0
scalar OsgEarthNet.uav[15] utilizationCountIdleState 15
scalar OsgEarthNet.uav[15] utilizationFail 0
scalar OsgEarthNet.uav[15] simulationTime 259200
scalar OsgEarthNet.uav[16] utilizationSecMission 13167.392755884
scalar OsgEarthNet.uav[16] utilizationSecMaintenance 7154.4827282246
scalar OsgEarthNet.uav[16] utilizationSecCharge 72402.226789579
scalar OsgEarthNet.uav[16] utilizationSecIdle 166475.89672631
scalar OsgEarthNet.uav[16] utilizationEnergyMission 63282.16047287
scalar OsgEarthNet.uav[16] utilizationEnergyMaintenance 34078.698860168
scalar OsgEarthNet.uav[16] utilizationEnergyCharge 94535.296386719
scalar OsgEarthNet.uav[16] utilizationEnergyOverdrawMission 0
scalar OsgEarthNet.uav[16] utilizationEnergyOverdrawMaintenance 0
scalar OsgEarthNet.uav[16] utilizationCountMissions 21
scalar OsgEarthNet.uav[16] utilizationCountManeuversMission 363
scalar OsgEarthNet.uav[16] utilizationCountManeuversMaintenance 42
scalar OsgEarthNet.uav[16] utilizationCountChargeState 21
scalar OsgEarthNet.uav[16] utilizationCountOverdrawnAfterMission 0
scalar OsgEarthNet.uav[16] utilizationCountIdleState 21
scalar OsgEarthNet.uav[16] utilizationFail 0
scalar OsgEarthNet.uav[16] simulationTime 259200
scalar OsgEarthNet.uav[17] utilizationSecMission 15313.205496914
scalar OsgEarthNet.uav[17] utilizationSecMaintenance 10486.357981586
scalar OsgEarthNet.uav[17] utilizationSecCharge 99990
scalar OsgEarthNet.uav[17] utilizationSecIdle 133410.4355215
scalar OsgEarthNet.uav[17] utilizationEnergyMission 74575.683631897
scalar OsgEarthNet.uav[17] utilizationEnergyMaintenance 50205.371753693
scalar OsgEarthNet.uav[17] utilizationEnergyCharge 124134.35961914
scalar OsgEarthNet.uav[17] utilizationEnergyOverdrawMission 0
scalar OsgEarthNet.uav[17] utilizationEnergyOverdrawMaintenance 0
scalar OsgEarthNet.uav[17] utilizationCountMissions 31
scalar OsgEarthNet.uav[17] utilizationCountManeuversMission 485
scalar OsgEarthNet.uav[17] utilizationCountManeuversMaintenance 62
scalar OsgEarthNet.uav[17] utilizationCountChargeState 31
scalar OsgEarthNet.uav[17] utilizationCountOverdrawnAfterMission 0
scalar OsgEarthNet.uav[17] utilizationCountIdleState 32
scalar OsgEarthNet.uav[17] utilizationFail 0
scalar OsgEarthNet.uav[17] simulationTime 259200
scalar OsgEarthNet.uav[18] utilizationSecMission 39604.89637759
scalar OsgEarthNet.uav[18] utilizationSecMaintenance 17258.741984158
scalar OsgEarthNet.uav[18] utilizationSecCharge 199134.36063825
scalar OsgEarthNet.uav[18] utilizationSecIdle 3202
scalar OsgEarthNet.uav[18] utilizationEnergyMission 190843.02830105
scalar OsgEarthNet.uav[18] utilizationEnergyMaintenance 79368.874267578
scalar OsgEarthNet.uav[18] utilizationEnergyCharge 271811.43115234
scalar OsgEarthNet.uav[18] utilizationEnergyOverdrawMission 0
scalar OsgEarthNet.uav[18] utilizationEnergyOverdrawMaintenance 0
scalar OsgEarthNet.uav[18] utilizationCountMissions 59
scalar OsgEarthNet.uav[18] utilizationCountManeuversMission 1126
scalar OsgEarthNet.uav[18] utilizationCountManeuversMaintenance 117
scalar OsgEarthNet.uav[18] utilizationCountChargeState 59
scalar OsgEarthNet.uav[18] utilizationCountOverdrawnAfterMission 0
scalar OsgEarthNet.uav[18] utilizationCountIdleState 21
scalar OsgEarthNet.uav[18] utilizationFail 0
scalar OsgEarthNet.uav[18] simulationTime 259200
scalar OsgEarthNet.uav[19] utilizationSecMission 7984.376068062
scalar OsgEarthNet.uav[19] utilizationSecMaintenance 4221.3583699509
scalar OsgEarthNet.uav[19] utilizationSecCharge 45430
scalar OsgEarthNet.uav[19] utilizationSecIdle 201564.26456199
scalar OsgEarthNet.uav[19] utilizationEnergyMission 37517.1355896
scalar OsgEarthNet.uav[19] utilizationEnergyMaintenance 20067.736305237
scalar OsgEarthNet.uav[19] utilizationEnergyCharge 58381.874023438
scalar OsgEarthNet.uav[19] utilizationEnergyOverdrawMission 0
scalar OsgEarthNet.uav[19] utilizationEnergyOverdrawMaintenance 0
scalar OsgEarthNet.uav[19] utilizationCountMissions 13
scalar OsgEarthNet.uav[19] utilizationCountManeuversMission 217
scalar OsgEarthNet.uav[19] utilizationCountManeuversMaintenance 26
scalar OsgEarthNet.uav[19] utilizationCountChargeState 13
scalar OsgEarthNet.uav[19] utilizationCountOverdrawnAfterMission 0
scalar OsgEarthNet.uav[19] utilizationCountIdleState 14
scalar OsgEarthNet.uav[19] utilizationFail 0
scalar OsgEarthNet.uav[19] simulationTime 259200
scalar OsgEarthNet.uav[20] utilizationSecMission 10343.125762901
scalar OsgEarthNet.uav[20] utilizationSecMaintenance 7204.8562370986
scalar OsgEarthNet.uav[20] utilizationSecCharge 62820
scalar OsgEarthNet.uav[20] utilizationSecIdle 178832.017
scalar OsgEarthNet.uav[20] utilizationEnergyMission 50526.735454559
scalar OsgEarthNet.uav[20] utilizationEnergyMaintenance 33834.449580081
scalar OsgEarthNet.uav[20] utilizationEnergyCharge 80866.732910156
scalar OsgEarthNet.uav[20] utilizationEnergyOverdrawMission 0
scalar OsgEarthNet.uav[20] utilizationEnergyOverdrawMaintenance 0
scalar OsgEarthNet.uav[20] utilizationCountMissions 19
scalar OsgEarthNet.uav[20] utilizationCountManeuversMission 387
scalar OsgEarthNet.uav[20] utilizationCountManeuversMaintenance 38
scalar OsgEarthNet.uav[20] utilizationCountChargeState 18
scalar OsgEarthNet.uav[20] utilizationCountOverdrawnAfterMission 0
scalar OsgEarthNet.uav[20] utilizationCountIdleState 19
scalar OsgEarthNet.uav[20] utilizationFail 0
scalar OsgEarthNet.uav[20] simulationTime 259200
scalar OsgEarthNet.uav[21] utilizationSecMission 20228.09333322
scalar OsgEarthNet.uav[21] utilizationSecMaintenance 12075.443142065
scalar OsgEarthNet.uav[21] utilizationSecCharge 118114.45452472
scalar OsgEarthNet.uav[21] utilizationSecIdle 108782.008
scalar OsgEarthNet.uav[21] utilizationEnergyMission 98366.137851715
scalar OsgEarthNet.uav[21] utilizationEnergyMaintenance 57408.512390137
scalar OsgEarthNet.uav[21] utilizationEnergyCharge 152372.23266602
scalar OsgEarthNet.uav[21] utilizationEnergyOverdrawMission 0
scalar OsgEarthNet.uav[21] utilizationEnergyOverdrawMaintenance 0
scalar OsgEarthNet.uav[21] utilizationCountMissions 36
scalar OsgEarthNet.uav[21] utilizationCountManeuversMission 683
scalar OsgEarthNet.uav[21] utilizationCountManeuversMaintenance 72
scalar OsgEarthNet.uav[21] utilizationCountChargeState 36
scalar OsgEarthNet.uav[21] utilizationCountOverdrawnAfterMission 0
scalar OsgEarthNet.uav[21] utilizationCountIdleState 30
scalar OsgEarthNet.uav[21] utilizationFail 0
scalar OsgEarthNet.uav[21] simulationTime 259200
scalar OsgEarthNet.uav[22] utilizationSecMission 40607.280786031
scalar OsgEarthNet.uav[22] utilizationSecMaintenance 16536.731267348
scalar OsgEarthNet.uav[22] utilizationSecCharge 197846.7673327
scalar OsgEarthNet.uav[22] utilizationSecIdle 4209.2196139157
scalar OsgEarthNet.uav[22] utilizationEnergyMission 195434.02421951
scalar OsgEarthNet.uav[22] utilizationEnergyMaintenance 76759.941257477
scalar OsgEarthNet.uav[22] utilizationEnergyCharge 270315.25097656
scalar OsgEarthNet.uav[22] utilizationEnergyOverdrawMission 0
scalar OsgEarthNet.uav[22] utilizationEnergyOverdrawMaintenance 0
scalar OsgEarthNet.uav[22] utilizationCountMissions 59
scalar OsgEarthNet.uav[22] utilizationCountManeuversMission 1167
scalar OsgEarthNet.uav[22] utilizationCountManeuversMaintenance 118
scalar OsgEarthNet.uav[22] utilizationCountChargeState 59
scalar OsgEarthNet.uav[22] utilizationCountOverdrawnAfterMission 0
scalar OsgEarthNet.uav[22] utilizationCountIdleState 28
scalar OsgEarthNet.uav[22] utilizationFail 0
scalar OsgEarthNet.uav[22] simulationTime 259200
scalar OsgEarthNet.uav[23] utilizationSecMission 9823.1257629014
scalar OsgEarthNet.uav[23] utilizationSecMaintenance 7141.7426815639
scalar OsgEarthNet.uav[23] utilizationSecCharge 63560
scalar OsgEarthNet.uav[23] utilizationSecIdle 178675.13055553
scalar OsgEarthNet.uav[23] utilizationEnergyMission 47825.607662201
scalar OsgEarthNet.uav[23] utilizationEnergyMaintenance 33749.735202789
scalar OsgEarthNet.uav[23] utilizationEnergyCharge 82194.88671875
scalar OsgEarthNet.uav[23] utilizationEnergyOverdrawMission 0
scalar OsgEarthNet.uav[23] utilizationEnergyOverdrawMaintenance 0
scalar OsgEarthNet.uav[23] utilizationCountMissions 18
scalar OsgEarthNet.uav[23] utilizationCountManeuversMission 361
scalar OsgEarthNet.uav[23] utilizationCountManeuversMaintenance 36
scalar OsgEarthNet.uav[23] utilizationCountChargeState 18
scalar OsgEarthNet.uav[23] utilizationCountOverdrawnAfterMission 0
scalar OsgEarthNet.uav[23] utilizationCountIdleState 19
scalar OsgEarthNet.uav[23] utilizationFail 0
scalar OsgEarthNet.uav[23] simulationTime 259200
scalar OsgEarthNet.uav[24] utilizationSecMission 14978.30738861
scalar OsgEarthNet.uav[24] utilizationSecMaintenance 10626.41150206
scalar OsgEarthNet.uav[24] utilizationSecCharge 100380
scalar OsgEarthNet.uav[24] utilizationSecIdle 133215.28010933
scalar OsgEarthNet.uav[24] utilizationEnergyMission 71722.872859955
scalar OsgEarthNet.uav[24] utilizationEnergyMaintenance 51289.048969269
scalar OsgEarthNet.uav[24] utilizationEnergyCharge 124652.12036133
scalar OsgEarthNet.uav[24] utilizationEnergyOverdrawMission 0
scalar OsgEarthNet.uav[24] utilizationEnergyOverdrawMaintenance 0
scalar OsgEarthNet.uav[24] utilizationCountMissions 31
scalar OsgEarthNet.uav[24] utilizationCountManeuversMission 547
scalar OsgEarthNet.uav[24] utilizationCountManeuversMaintenance 62
scalar OsgEarthNet.uav[24] utilizationCountChargeState 31
scalar OsgEarthNet.uav[24] utilizationCountOverdrawnAfterMission 0
scalar OsgEarthNet.uav[24] utilizationCountIdleState 32
scalar OsgEarthNet.uav[24] utilizationFail 0
scalar OsgEarthNet.uav[24] simulationTime 259200
scalar OsgEarthNet.uav[25] utilizationSecMission 40479.197588657
scalar OsgEarthNet.uav[25] utilizationSecMaintenance 16969.734086645
scalar OsgEarthNet.uav[25] utilizationSecCharge 196239.0633247
scalar OsgEarthNet.uav[25] utilizationSecIdle 5512.004
scalar OsgEarthNet.uav[25] utilizationEnergyMission 197510.89376831
scalar OsgEarthNet.uav[25] utilizationEnergyMaintenance 77489.075199127
scalar OsgEarthNet.uav[25] utilizationEnergyCharge 269715.76635742
scalar OsgEarthNet.uav[25] utilizationEnergyOverdrawMission 0
scalar OsgEarthNet.uav[25] utilizationEnergyOverdrawMaintenance 0
scalar OsgEarthNet.uav[25] utilizationCountMissions 59
scalar OsgEarthNet.uav[25] utilizationCountManeuversMission 1241
scalar OsgEarthNet.uav[25] utilizationCountManeuversMaintenance 118
scalar OsgEarthNet.uav[25] utilizationCountChargeState 59
scalar OsgEarthNet.uav[25] utilizationCountOverdrawnAfterMission 0
scalar OsgEarthNet.uav[25] utilizationCountIdleState 21
scalar OsgEarthNet.uav[25] utilizationFail 0
scalar OsgEarthNet.uav[25] simulationTime 259200
scalar OsgEarthNet.uav[26] utilizationSecMission 8572.8677241509
scalar OsgEarthNet.uav[26] utilizationSecMaintenance 5560.4062143232
scalar OsgEarthNet.uav[26] utilizationSecCharge 52370
scalar OsgEarthNet.uav[26] utilizationSecIdle 192696.72506153
scalar OsgEarthNet.uav[26] utilizationEnergyMission 42833.48664856
scalar OsgEarthNet.uav[26] utilizationEnergyMaintenance 26591.439594269
scalar OsgEarthNet.uav[26] utilizationEnergyCharge 67601.843261719
scalar OsgEarthNet.uav[26] utilizationEnergyOverdrawMission 0
scalar OsgEarthNet.uav[26] utilizationEnergyOverdrawMaintenance 0
scalar OsgEarthNet.uav[26] utilizationCountMissions 15
scalar OsgEarthNet.uav[26] utilizationCountManeuversMission 303
scalar OsgEarthNet.uav[26] utilizationCountManeuversMaintenance 30
scalar OsgEarthNet.uav[26] utilizationCountChargeState 15
scalar OsgEarthNet.uav[26] utilizationCountOverdrawnAfterMission 0
scalar OsgEarthNet.uav[26] utilizationCountIdleState 16
scalar OsgEarthNet.uav[26] utilizationFail 0
scalar OsgEarthNet.uav[26] simulationTime 259200
scalar OsgEarthNet.uav[27] utilizationSecMission 14461.668819839
scalar OsgEarthNet.uav[27] utilizationSecMaintenance 11015.307713814
scalar OsgEarthNet.uav[27] utilizationSecCharge 101808.31676731
scalar OsgEarthNet.uav[27] utilizationSecIdle 131914.70569904
scalar OsgEarthNet.uav[27] utilizationEnergyMission 70803.368610382
scalar OsgEarthNet.uav[27] utilizationEnergyMaintenance 52327.584201813
scalar OsgEarthNet.uav[27] utilizationEnergyCharge 122296.44189453
scalar OsgEarthNet.uav[27] utilizationEnergyOverdrawMission 0
scalar OsgEarthNet.uav[27] utilizationEnergyOverdrawMaintenance 0
scalar OsgEarthNet.uav[27] utilizationCountMissions 34
scalar OsgEarthNet.uav[27] utilizationCountManeuversMission 453
scalar OsgEarthNet.uav[27] utilizationCountManeuversMaintenance 68
scalar OsgEarthNet.uav[27] utilizationCountChargeState 34
scalar OsgEarthNet.uav[27] utilizationCountOverdrawnAfterMission 0
scalar OsgEarthNet.uav[27] utilizationCountIdleState 34
scalar OsgEarthNet.uav[27] utilizationFail 0
scalar OsgEarthNet.uav[27] simulationTime 259200
scalar OsgEarthNet.uav[28] utilizationSecMission 35290.965194398
scalar OsgEarthNet.uav[28] utilizationSecMaintenance 17238.7790001
scalar OsgEarthNet.uav[28] utilizationSecCharge 185260
scalar OsgEarthNet.uav[28] utilizationSecIdle 21410.254805502
scalar OsgEarthNet.uav[28] utilizationEnergyMission 169129.08555603
scalar OsgEarthNet.uav[28] utilizationEnergyMaintenance 80954.868484497
scalar OsgEarthNet.uav[28] utilizationEnergyCharge 252934.39355469
scalar OsgEarthNet.uav[28] utilizationEnergyOverdrawMission 0
scalar OsgEarthNet.uav[28] utilizationEnergyOverdrawMaintenance 0
scalar OsgEarthNet.uav[28] utilizationCountMissions 56
scalar OsgEarthNet.uav[28] utilizationCountManeuversMission 1150
scalar OsgEarthNet.uav[28] utilizationCountManeuversMaintenance 112
scalar OsgEarthNet.uav[28] utilizationCountChargeState 56
scalar OsgEarthNet.uav[28] utilizationCountOverdrawnAfterMission 0
scalar OsgEarthNet.uav[28] utilizationCountIdleState 20
scalar OsgEarthNet.uav[28] utilizationFail 0
scalar OsgEarthNet.uav[28] simulationTime 259200
scalar OsgEarthNet.uav[29] utilizationSecMission 17206.876678383
scalar OsgEarthNet.uav[29] utilizationSecMaintenance 11062.786304907
scalar OsgEarthNet.uav[29] utilizationSecCharge 104810
scalar OsgEarthNet.uav[29] utilizationSecIdle 126120.33601671
scalar OsgEarthNet.uav[29] utilizationEnergyMission 84366.14358902
scalar OsgEarthNet.uav[29] utilizationEnergyMaintenance 52761.044746399
scalar OsgEarthNet.uav[29] utilizationEnergyCharge 134665.58496094
scalar OsgEarthNet.uav[29] utilizationEnergyOverdrawMission 0
scalar OsgEarthNet.uav[29] utilizationEnergyOverdrawMaintenance 0
scalar OsgEarthNet.uav[29] utilizationCountMissions 30
scalar OsgEarthNet.uav[29] utilizationCountManeuversMission 574
scalar OsgEarthNet.uav[29] utilizationCountManeuversMaintenance 60
scalar OsgEarthNet.uav[29] utilizationCountChargeState 30
scalar OsgEarthNet.uav[29] utilizationCountOverdrawnAfterMission 0
scalar OsgEarthNet.uav[29] utilizationCountIdleState 31
scalar OsgEarthNet.uav[29] utilizationFail 0
scalar OsgEarthNet.uav[29] simulationTime 259200
scalar OsgEarthNet.uav[30] utilizationSecMission 12794.634106813
scalar OsgEarthNet.uav[30] utilizationSecMaintenance 8837.2869620854
scalar OsgEarthNet.uav[30] utilizationSecCharge 81240
scalar OsgEarthNet.uav[30] utilizationSecIdle 156328.0779311
scalar OsgEarthNet.uav[30] utilizationEnergyMission 62483.484020233
scalar OsgEarthNet.uav[30] utilizationEnergyMaintenance 42049.610290527
scalar OsgEarthNet.uav[30] utilizationEnergyCharge 105019.71777344
scalar OsgEarthNet.uav[30] utilizationEnergyOverdrawMission 0
scalar OsgEarthNet.uav[30] utilizationEnergyOverdrawMaintenance 0
scalar OsgEarthNet.uav[30] utilizationCountMissions 23
scalar OsgEarthNet.uav[30] utilizationCountManeuversMission 453
scalar OsgEarthNet.uav[30] utilizationCountManeuversMaintenance 46
scalar OsgEarthNet.uav[30] utilizationCountChargeState 23
scalar OsgEarthNet.uav[30] utilizationCountOverdrawnAfterMission 0
scalar OsgEarthNet.uav[30] utilizationCountIdleState 24
scalar OsgEarthNet.uav[30] utilizationFail 0
scalar OsgEarthNet.uav[30] simulationTime 259200
scalar OsgEarthNet.uav[31] utilizationSecMission 40128.653011943
scalar OsgEarthNet.uav[31] utilizationSecMaintenance 16806.050792545
scalar OsgEarthNet.uav[31] utilizationSecCharge 197463.29519551
scalar OsgEarthNet.uav[31] utilizationSecIdle 4802
scalar OsgEarthNet.uav[31] utilizationEnergyMission 192011.39849854
scalar OsgEarthNet.uav[31] utilizationEnergyMaintenance 79032.469608307
scalar OsgEarthNet.uav[31] utilizationEnergyCharge 269463.42578125
scalar OsgEarthNet.uav[31] utilizationEnergyOverdrawMission 0
scalar OsgEarthNet.uav[31] utilizationEnergyOverdrawMaintenance 0
scalar OsgEarthNet.uav[31] utilizationCountMissions 59
scalar OsgEarthNet.uav[31] utilizationCountManeuversMission 1165
scalar OsgEarthNet.uav[31] utilizationCountManeuversMaintenance 117
scalar OsgEarthNet.uav[31] utilizationCountChargeState 59
scalar OsgEarthNet.uav[31] utilizationCountOverdrawnAfterMission 0
scalar OsgEarthNet.uav[31] utilizationCountIdleState 30
scalar OsgEarthNet.uav[31] utilizationFail 0
scalar OsgEarthNet.uav[31] simulationTime 259200
scalar OsgEarthNet.uav[32] utilizationSecMission 40285.026525049
scalar OsgEarthNet.uav[32] utilizationSecMaintenance 16999.451094703
scalar OsgEarthNet.uav[32] utilizationSecCharge 197776.67322266
scalar OsgEarthNet.uav[32] utilizationSecIdle 4138.8481575904
scalar OsgEarthNet.uav[32] utilizationEnergyMission 192536.28135681
scalar OsgEarthNet.uav[32] utilizationEnergyMaintenance 78614.558517456
scalar OsgEarthNet.uav[32] utilizationEnergyCharge 270996.60400391
scalar OsgEarthNet.uav[32] utilizationEnergyOverdrawMission 0
scalar OsgEarthNet.uav[32] utilizationEnergyOverdrawMaintenance 0
scalar OsgEarthNet.uav[32] utilizationCountMissions 59
scalar OsgEarthNet.uav[32] utilizationCountManeuversMission 1118
scalar OsgEarthNet.uav[32] utilizationCountManeuversMaintenance 118
scalar OsgEarthNet.uav[32] utilizationCountChargeState 59
scalar OsgEarthNet.uav[32] utilizationCountOverdrawnAfterMission 0
scalar OsgEarthNet.uav[32] utilizationCountIdleState 18
scalar OsgEarthNet.uav[32] utilizationFail 0
scalar OsgEarthNet.uav[32] simulationTime 259200
scalar OsgEarthNet.uav[33] utilizationSecMission 13186.251525803
scalar OsgEarthNet.uav[33] utilizationSecMaintenance 7660.2420053961
scalar OsgEarthNet.uav[33] utilizationSecCharge 77830
scalar OsgEarthNet.uav[33] utilizationSecIdle 160523.5054688
scalar OsgEarthNet.uav[33] utilizationEnergyMission 65109.528736115
scalar OsgEarthNet.uav[33] utilizationEnergyMaintenance 35916.109027862
scalar OsgEarthNet.uav[33] utilizationEnergyCharge 100512.87744141
scalar OsgEarthNet.uav[33] utilizationEnergyOverdrawMission 0
scalar OsgEarthNet.uav[33] utilizationEnergyOverdrawMaintenance 0
scalar OsgEarthNet.uav[33] utilizationCountMissions 22
scalar OsgEarthNet.uav[33] utilizationCountManeuversMission 399
scalar OsgEarthNet.uav[33] utilizationCountManeuversMaintenance 44
scalar OsgEarthNet.uav[33] utilizationCountChargeState 22
scalar OsgEarthNet.uav[33] utilizationCountOverdrawnAfterMission 0
scalar OsgEarthNet.uav[33] utilizationCountIdleState 23
scalar OsgEarthNet.uav[33] utilizationFail 0
scalar OsgEarthNet.uav[33] simulationTime 259200
scalar OsgEarthNet.uav[34] utilizationSecMission 14982.370890211
scalar OsgEarthNet.uav[34] utilizationSecMaintenance 11727.509899127
scalar OsgEarthNet.uav[34] utilizationSecCharge 107690
scalar OsgEarthNet.uav[34] utilizationSecIdle 124800.11821066
scalar OsgEarthNet.uav[34] utilizationEnergyMission 73694.5662117
scalar OsgEarthNet.uav[34] utilizationEnergyMaintenance 56150.645755768
scalar OsgEarthNet.uav[34] utilizationEnergyCharge 131029.39599609
scalar OsgEarthNet.uav[34] utilizationEnergyOverdrawMission 0
scalar OsgEarthNet.uav[34] utilizationEnergyOverdrawMaintenance 0
scalar OsgEarthNet.uav[34] utilizationCountMissions 35
scalar OsgEarthNet.uav[34] utilizationCountManeuversMission 531
scalar OsgEarthNet.uav[34] utilizationCountManeuversMaintenance 70
scalar OsgEarthNet.uav[34] utilizationCountChargeState 35
scalar OsgEarthNet.uav[34] utilizationCountOverdrawnAfterMission 0
scalar OsgEarthNet.uav[34] utilizationCountIdleState 36
scalar OsgEarthNet.uav[34] utilizationFail 0
scalar OsgEarthNet.uav[34] simulationTime 259200
scalar OsgEarthNet.uav[35] utilizationSecMission 39245.141836677
scalar OsgEarthNet.uav[35] utilizationSecMaintenance 17976.888354996
scalar OsgEarthNet.uav[35] utilizationSecCharge 197988.54346104
scalar OsgEarthNet.uav[35] utilizationSecIdle 3989.4253472904
scalar OsgEarthNet.uav[35] utilizationEnergyMission 190293.3902359
scalar OsgEarthNet.uav[35] utilizationEnergyMaintenance 83893.510665894
scalar OsgEarthNet.uav[35] utilizationEnergyCharge 271606.22033691
scalar OsgEarthNet.uav[35] utilizationEnergyOverdrawMission 0
scalar OsgEarthNet.uav[35] utilizationEnergyOverdrawMaintenance 0
scalar OsgEarthNet.uav[35] utilizationCountMissions 60
scalar OsgEarthNet.uav[35] utilizationCountManeuversMission 1286
scalar OsgEarthNet.uav[35] utilizationCountManeuversMaintenance 120
scalar OsgEarthNet.uav[35] utilizationCountChargeState 60
scalar OsgEarthNet.uav[35] utilizationCountOverdrawnAfterMission 0
scalar OsgEarthNet.uav[35] utilizationCountIdleState 18
scalar OsgEarthNet.uav[35] utilizationFail 0
scalar OsgEarthNet.uav[35] simulationTime 259200
scalar OsgEarthNet.uav[36] utilizationSecMission 14527.501830963
scalar OsgEarthNet.uav[36] utilizationSecMaintenance 8036.5831051265
scalar OsgEarthNet.uav[36] utilizationSecCharge 82243.89206391
scalar OsgEarthNet.uav[36] utilizationSecIdle 154392.022
scalar OsgEarthNet.uav[36] utilizationEnergyMission 69766.023780823
scalar OsgEarthNet.uav[36] utilizationEnergyMaintenance 38290.070648193
scalar OsgEarthNet.uav[36] utilizationEnergyCharge 107028.33886719
scalar OsgEarthNet.uav[36] utilizationEnergyOverdrawMission 0
scalar OsgEarthNet.uav[36] utilizationEnergyOverdrawMaintenance 0
scalar OsgEarthNet.uav[36] utilizationCountMissions 24
scalar OsgEarthNet.uav[36] utilizationCountManeuversMission 414
scalar OsgEarthNet.uav[36] utilizationCountManeuversMaintenance 48
scalar OsgEarthNet.uav[36] utilizationCountChargeState 24
scalar OsgEarthNet.uav[36] utilizationCountOverdrawnAfterMission 0
scalar OsgEarthNet.uav[36] utilizationCountIdleState 24
scalar OsgEarthNet.uav[36] utilizationFail 0
scalar OsgEarthNet.uav[36] simulationTime 259200
scalar OsgEarthNet.uav[37] utilizationSecMission 17405.539942514
scalar OsgEarthNet.uav[37] utilizationSecMaintenance 11164.939199144
scalar OsgEarthNet.uav[37] utilizationSecCharge 110860
scalar OsgEarthNet.uav[37] utilizationSecIdle 119769.51985834
scalar OsgEarthNet.uav[37] utilizationEnergyMission 84382.073764801
scalar OsgEarthNet.uav[37] utilizationEnergyMaintenance 52533.105167389
scalar OsgEarthNet.uav[37] utilizationEnergyCharge 138009.81152344
scalar OsgEarthNet.uav[37] utilizationEnergyOverdrawMission 0
scalar OsgEarthNet.uav[37] utilizationEnergyOverdrawMaintenance 0
scalar OsgEarthNet.uav[37] utilizationCountMissions 34
scalar OsgEarthNet.uav[37] utilizationCountManeuversMission 521
scalar OsgEarthNet.uav[37] utilizationCountManeuversMaintenance 68
scalar OsgEarthNet.uav[37] utilizationCountChargeState 34
scalar OsgEarthNet.uav[37] utilizationCountOverdrawnAfterMission 0
scalar OsgEarthNet.uav[37] utilizationCountIdleState 35
scalar OsgEarthNet.uav[37] utilizationFail 0
scalar OsgEarthNet.uav[37] simulationTime 259200
scalar OsgEarthNet.uav[38] utilizationSecMission 39121.462649567
scalar OsgEarthNet.uav[38] utilizationSecMaintenance 18278.061387042
scalar OsgEarthNet.uav[38] utilizationSecCharge 199098.47296339
scalar OsgEarthNet.uav[38] utilizationSecIdle 2702.002
scalar OsgEarthNet.uav[38] utilizationEnergyMission 190612.65306091
scalar OsgEarthNet.uav[38] utilizationEnergyMaintenance 83911.287643433
scalar OsgEarthNet.uav[38] utilizationEnergyCharge 275511.43994141
scalar OsgEarthNet.uav[38] utilizationEnergyOverdrawMission 0
scalar OsgEarthNet.uav[38] utilizationEnergyOverdrawMaintenance 0
scalar OsgEarthNet.uav[38] utilizationCountMissions 60
scalar OsgEarthNet.uav[38] utilizationCountManeuversMission 1232
scalar OsgEarthNet.uav[38] utilizationCountManeuversMaintenance 120
scalar OsgEarthNet.uav[38] utilizationCountChargeState 60
scalar OsgEarthNet.uav[38] utilizationCountOverdrawnAfterMission 0
scalar OsgEarthNet.uav[38] utilizationCountIdleState 13
scalar OsgEarthNet.uav[38] utilizationFail 0
scalar OsgEarthNet.uav[38] simulationTime 259200
scalar OsgEarthNet.uav[39] utilizationSecMission 12575.259259393
scalar OsgEarthNet.uav[39] utilizationSecMaintenance 7960.9063951268
scalar OsgEarthNet.uav[39] utilizationSecCharge 77120
scalar OsgEarthNet.uav[39] utilizationSecIdle 161543.83334548
scalar OsgEarthNet.uav[39] utilizationEnergyMission 60664.287189484
scalar OsgEarthNet.uav[39] utilizationEnergyMaintenance 37996.772388458
scalar OsgEarthNet.uav[39] utilizationEnergyCharge 99393.577148438
scalar OsgEarthNet.uav[39] utilizationEnergyOverdrawMission 0
scalar OsgEarthNet.uav[39] utilizationEnergyOverdrawMaintenance 0
scalar OsgEarthNet.uav[39] utilizationCountMissions 22
scalar OsgEarthNet.uav[39] utilizationCountManeuversMission 416
scalar OsgEarthNet.uav[39] utilizationCountManeuversMaintenance 44
scalar OsgEarthNet.uav[39] utilizationCountChargeState 22
scalar OsgEarthNet.uav[39] utilizationCountOverdrawnAfterMission 0
scalar OsgEarthNet.uav[39] utilizationCountIdleState 23
scalar OsgEarthNet.uav[39] utilizationFail 0
scalar OsgEarthNet.uav[39] simulationTime 259200
scalar OsgEarthNet.uav[40] utilizationSecMission 16837.243792213
scalar OsgEarthNet.uav[40] utilizationSecMaintenance 10326.865059675
scalar OsgEarthNet.uav[40] utilizationSecCharge 100333.75033497
scalar OsgEarthNet.uav[40] utilizationSecIdle 131702.13981314
scalar OsgEarthNet.uav[40] utilizationEnergyMission 81297.909049988
scalar OsgEarthNet.uav[40] utilizationEnergyMaintenance 48923.067310333
scalar OsgEarthNet.uav[40] utilizationEnergyCharge 130522.61181641
scalar OsgEarthNet.uav[40] utilizationEnergyOverdrawMission 0
scalar OsgEarthNet.uav[40] utilizationEnergyOverdrawMaintenance 0
scalar OsgEarthNet.uav[40] utilizationCountMissions 29
scalar OsgEarthNet.uav[40] utilizationCountManeuversMission 534
scalar OsgEarthNet.uav[40] utilizationCountManeuversMaintenance 58
scalar OsgEarthNet.uav[40] utilizationCountChargeState 29
scalar OsgEarthNet.uav[40] utilizationCountOverdrawnAfterMission 0
scalar OsgEarthNet.uav[40] utilizationCountIdleState 29
scalar OsgEarthNet.uav[40] utilizationFail 0
scalar OsgEarthNet.uav[40] simulationTime 259200
scalar OsgEarthNet.uav[41] utilizationSecMission 18165.746742377
scalar OsgEarthNet.uav[41] utilizationSecMaintenance 12012.733357806
scalar OsgEarthNet.uav[41] utilizationSecCharge 116600.46110462
scalar OsgEarthNet.uav[41] utilizationSecIdle 112421.05779519
scalar OsgEarthNet.uav[41] utilizationEnergyMission 86695.069644928
scalar OsgEarthNet.uav[41] utilizationEnergyMaintenance 57403.765022278
scalar OsgEarthNet.uav[41] utilizationEnergyCharge 144041.63574219
scalar OsgEarthNet.uav[41] utilizationEnergyOverdrawMission 0
scalar OsgEarthNet.uav[41] utilizationEnergyOverdrawMaintenance 0
scalar OsgEarthNet.uav[41] utilizationCountMissions 37
scalar OsgEarthNet.uav[41] utilizationCountManeuversMission 536
scalar OsgEarthNet.uav[41] utilizationCountManeuversMaintenance 74
scalar OsgEarthNet.uav[41] utilizationCountChargeState 37
scalar OsgEarthNet.uav[41] utilizationCountOverdrawnAfterMission 0
scalar OsgEarthNet.uav[41] utilizationCountIdleState 37
scalar OsgEarthNet.uav[41] utilizationFail 0
scalar OsgEarthNet.uav[41] simulationTime 259200
scalar OsgEarthNet.uav[42] utilizationSecMission 39579.322749822
scalar OsgEarthNet.uav[42] utilizationSecMaintenance 18228.673250178
scalar OsgEarthNet.uav[42] utilizationSecCharge 197590
scalar OsgEarthNet.uav[42] utilizationSecIdle 3802.003
scalar OsgEarthNet.uav[42] utilizationEnergyMission 192673.85111618
scalar OsgEarthNet.uav[42] utilizationEnergyMaintenance 83612.835148209
scalar OsgEarthNet.uav[42] utilizationEnergyCharge 271513.02441406
scalar OsgEarthNet.uav[42] utilizationEnergyOverdrawMission 0
scalar OsgEarthNet.uav[42] utilizationEnergyOverdrawMaintenance 0
scalar OsgEarthNet.uav[42] utilizationCountMissions 60
scalar OsgEarthNet.uav[42] utilizationCountManeuversMission 1208
scalar OsgEarthNet.uav[42] utilizationCountManeuversMaintenance 120
scalar OsgEarthNet.uav[42] utilizationCountChargeState 59
scalar OsgEarthNet.uav[42] utilizationCountOverdrawnAfterMission 0
scalar OsgEarthNet.uav[42] utilizationCountIdleState 17
scalar OsgEarthNet.uav[42] utilizationFail 0
scalar OsgEarthNet.uav[42] simulationTime 259200
scalar OsgEarthNet.uav[43] utilizationSecMission 13123.125762901
scalar OsgEarthNet.uav[43] utilizationSecMaintenance 10176.366127
scalar OsgEarthNet.uav[43] utilizationSecCharge 85268.495110098
scalar OsgEarthNet.uav[43] utilizationSecIdle 150632.012
scalar OsgEarthNet.uav[43] utilizationEnergyMission 64663.682285309
scalar OsgEarthNet.uav[43] utilizationEnergyMaintenance 48283.197460174
scalar OsgEarthNet.uav[43] utilizationEnergyCharge 110792.51586914
scalar OsgEarthNet.uav[43] utilizationEnergyOverdrawMission 0
scalar OsgEarthNet.uav[43] utilizationEnergyOverdrawMaintenance 0
scalar OsgEarthNet.uav[43] utilizationCountMissions 25
scalar OsgEarthNet.uav[43] utilizationCountManeuversMission 526
scalar OsgEarthNet.uav[43] utilizationCountManeuversMaintenance 50
scalar OsgEarthNet.uav[43] utilizationCountChargeState 25
scalar OsgEarthNet.uav[43] utilizationCountOverdrawnAfterMission 0
scalar OsgEarthNet.uav[43] utilizationCountIdleState 25
scalar OsgEarthNet.uav[43] utilizationFail 0
scalar OsgEarthNet.uav[43] simulationTime 259200
scalar OsgEarthNet.uav[44] utilizationSecMission 17629.891914762
scalar OsgEarthNet.uav[44] utilizationSecMaintenance 11701.309516293
scalar OsgEarthNet.uav[44] utilizationSecCharge 110786.78456895
scalar OsgEarthNet.uav[44] utilizationSecIdle 119082.013
scalar OsgEarthNet.uav[44] utilizationEnergyMission 86532.218704224
scalar OsgEarthNet.uav[44] utilizationEnergyMaintenance 54817.87297821
scalar OsgEarthNet.uav[44] utilizationEnergyCharge 139593.51635742
scalar OsgEarthNet.uav[44] utilizationEnergyOverdrawMission 0
scalar OsgEarthNet.uav[44] utilizationEnergyOverdrawMaintenance 0
scalar OsgEarthNet.uav[44] utilizationCountMissions 34
scalar OsgEarthNet.uav[44] utilizationCountManeuversMission 614
scalar OsgEarthNet.uav[44] utilizationCountManeuversMaintenance 68
scalar OsgEarthNet.uav[44] utilizationCountChargeState 34
scalar OsgEarthNet.uav[44] utilizationCountOverdrawnAfterMission 0
scalar OsgEarthNet.uav[44] utilizationCountIdleState 34
scalar OsgEarthNet.uav[44] utilizationFail 0
scalar OsgEarthNet.uav[44] simulationTime 259200
scalar OsgEarthNet.uav[45] utilizationSecMission 37682.888938599
scalar OsgEarthNet.uav[45] utilizationSecMaintenance 16893.551374474
scalar OsgEarthNet.uav[45] utilizationSecCharge 191940
scalar OsgEarthNet.uav[45] utilizationSecIdle 12683.558686928
scalar OsgEarthNet.uav[45] utilizationEnergyMission 181893.19039536
scalar OsgEarthNet.uav[45] utilizationEnergyMaintenance 77865.209651947
scalar OsgEarthNet.uav[45] utilizationEnergyCharge 262616.45458984
scalar OsgEarthNet.uav[45] utilizationEnergyOverdrawMission 0
scalar OsgEarthNet.uav[45] utilizationEnergyOverdrawMaintenance 0
scalar OsgEarthNet.uav[45] utilizationCountMissions 57
scalar OsgEarthNet.uav[45] utilizationCountManeuversMission 1170
scalar OsgEarthNet.uav[45] utilizationCountManeuversMaintenance 114
scalar OsgEarthNet.uav[45] utilizationCountChargeState 57
scalar OsgEarthNet.uav[45] utilizationCountOverdrawnAfterMission 0
scalar OsgEarthNet.uav[45] utilizationCountIdleState 19
scalar OsgEarthNet.uav[45] utilizationFail 0
scalar OsgEarthNet.uav[45] simulationTime 259200
scalar OsgEarthNet.uav[46] utilizationSecMission 12224.376068062
scalar OsgEarthNet.uav[46] utilizationSecMaintenance 8160.8765896289
scalar OsgEarthNet.uav[46] utilizationSecCharge 77190
scalar OsgEarthNet.uav[46] utilizationSecIdle 161624.74634231
scalar OsgEarthNet.uav[46] utilizationEnergyMission 60332.659561157
scalar OsgEarthNet.uav[46] utilizationEnergyMaintenance 38646.805713653
scalar OsgEarthNet.uav[46] utilizationEnergyCharge 99531.713378906
scalar OsgEarthNet.uav[46] utilizationEnergyOverdrawMission 0
scalar OsgEarthNet.uav[46] utilizationEnergyOverdrawMaintenance 0
scalar OsgEarthNet.uav[46] utilizationCountMissions 22
scalar OsgEarthNet.uav[46] utilizationCountManeuversMission 429
scalar OsgEarthNet.uav[46] utilizationCountManeuversMaintenance 44
scalar OsgEarthNet.uav[46] utilizationCountChargeState 22
scalar OsgEarthNet.uav[46] utilizationCountOverdrawnAfterMission 0
scalar OsgEarthNet.uav[46] utilizationCountIdleState 23
scalar OsgEarthNet.uav[46] utilizationFail 0
scalar OsgEarthNet.uav[46] simulationTime 259200
scalar OsgEarthNet.uav[47] utilizationSecMission 21841.465579791
scalar OsgEarthNet.uav[47] utilizationSecMaintenance 14896.532420209
scalar OsgEarthNet.uav[47] utilizationSecCharge 137970
scalar OsgEarthNet.uav[47] utilizationSecIdle 84492.001
scalar OsgEarthNet.uav[47] utilizationEnergyMission 106964.91876221
scalar OsgEarthNet.uav[47] utilizationEnergyMaintenance 70882.477124475
scalar OsgEarthNet.uav[47] utilizationEnergyCharge 172443.39404297
scalar OsgEarthNet.uav[47] utilizationEnergyOverdrawMission 0
scalar OsgEarthNet.uav[47] utilizationEnergyOverdrawMaintenance 0
scalar OsgEarthNet.uav[47] utilizationCountMissions 43
scalar OsgEarthNet.uav[47] utilizationCountManeuversMission 760
scalar OsgEarthNet.uav[47] utilizationCountManeuversMaintenance 86
scalar OsgEarthNet.uav[47] utilizationCountChargeState 42
scalar OsgEarthNet.uav[47] utilizationCountOverdrawnAfterMission 0
scalar OsgEarthNet.uav[47] utilizationCountIdleState 43
scalar OsgEarthNet.uav[47] utilizationFail 0
scalar OsgEarthNet.uav[47] simulationTime 259200
scalar OsgEarthNet.uav[48] utilizationSecMission 42213.431370755
scalar OsgEarthNet.uav[48] utilizationSecMaintenance 15666.807864265
scalar OsgEarthNet.uav[48] utilizationSecCharge 197277.75976498
scalar OsgEarthNet.uav[48] utilizationSecIdle 4042
scalar OsgEarthNet.uav[48] utilizationEnergyMission 201210.82984409
scalar OsgEarthNet.uav[48] utilizationEnergyMaintenance 71298.385562897
scalar OsgEarthNet.uav[48] utilizationEnergyCharge 268692.12475586
scalar OsgEarthNet.uav[48] utilizationEnergyOverdrawMission 0
scalar OsgEarthNet.uav[48] utilizationEnergyOverdrawMaintenance 0
scalar OsgEarthNet.uav[48] utilizationCountMissions 59
scalar OsgEarthNet.uav[48] utilizationCountManeuversMission 1151
scalar OsgEarthNet.uav[48] utilizationCountManeuversMaintenance 117
scalar OsgEarthNet.uav[48] utilizationCountChargeState 59
scalar OsgEarthNet.uav[48] utilizationCountOverdrawnAfterMission 0
scalar OsgEarthNet.uav[48] utilizationCountIdleState 25
scalar OsgEarthNet.uav[48] utilizationFail 0
scalar OsgEarthNet.uav[48] simulationTime 259200
scalar OsgEarthNet.uav[49] utilizationSecMission 14596.509564553
scalar OsgEarthNet.uav[49] utilizationSecMaintenance 8882.0465436758
scalar OsgEarthNet.uav[49] utilizationSecCharge 87680
scalar OsgEarthNet.uav[49] utilizationSecIdle 148041.44289177
scalar OsgEarthNet.uav[49] utilizationEnergyMission 71379.743713379
scalar OsgEarthNet.uav[49] utilizationEnergyMaintenance 41540.807640076
scalar OsgEarthNet.uav[49] utilizationEnergyCharge 113070.52001953
scalar OsgEarthNet.uav[49] utilizationEnergyOverdrawMission 0
scalar OsgEarthNet.uav[49] utilizationEnergyOverdrawMaintenance 0
scalar OsgEarthNet.uav[49] utilizationCountMissions 25
scalar OsgEarthNet.uav[49] utilizationCountManeuversMission 465
scalar OsgEarthNet.uav[49] utilizationCountManeuversMaintenance 50
scalar OsgEarthNet.uav[49] utilizationCountChargeState 25
scalar OsgEarthNet.uav[49] utilizationCountOverdrawnAfterMission 0
scalar OsgEarthNet.uav[49] utilizationCountIdleState 26
scalar OsgEarthNet.uav[49] utilizationFail 0
scalar OsgEarthNet.uav[49] simulationTime 259200
scalar OsgEarthNet.uav[50] utilizationSecMission 15244.376068062
scalar OsgEarthNet.uav[50] utilizationSecMaintenance 11010.170274123
scalar OsgEarthNet.uav[50] utilizationSecCharge 98050
scalar OsgEarthNet.uav[50] utilizationSecIdle 134895.45265782
scalar OsgEarthNet.uav[50] utilizationEnergyMission 73884.395542145
scalar OsgEarthNet.uav[50] utilizationEnergyMaintenance 51608.603317261
scalar OsgEarthNet.uav[50] utilizationEnergyCharge 126351.97021484
scalar OsgEarthNet.uav[50] utilizationEnergyOverdrawMission 0
scalar OsgEarthNet.uav[50] utilizationEnergyOverdrawMaintenance 0
scalar OsgEarthNet.uav[50] utilizationCountMissions 28
scalar OsgEarthNet.uav[50] utilizationCountManeuversMission 580
scalar OsgEarthNet.uav[50] utilizationCountManeuversMaintenance 56
scalar OsgEarthNet.uav[50] utilizationCountChargeState 28
scalar OsgEarthNet.uav[50] utilizationCountOverdrawnAfterMission 0
scalar OsgEarthNet.uav[50] utilizationCountIdleState 29
scalar OsgEarthNet.uav[50] utilizationFail 0
scalar OsgEarthNet.uav[50] simulationTime 259200
scalar OsgEarthNet.uav[51] utilizationSecMission 21428.901373743
scalar OsgEarthNet.uav[51] utilizationSecMaintenance 14659.095626257
scalar OsgEarthNet.uav[51] utilizationSecCharge 138460
scalar OsgEarthNet.uav[51] utilizationSecIdle 84652.002
scalar OsgEarthNet.uav[51] utilizationEnergyMission 103256.68915176
scalar OsgEarthNet.uav[51] utilizationEnergyMaintenance 69722.151355678
scalar OsgEarthNet.uav[51] utilizationEnergyCharge 169907.22167969
scalar OsgEarthNet.uav[51] utilizationEnergyOverdrawMission 0
scalar OsgEarthNet.uav[51] utilizationEnergyOverdrawMaintenance 0
scalar OsgEarthNet.uav[51] utilizationCountMissions 45
scalar OsgEarthNet.uav[51] utilizationCountManeuversMission 654
scalar OsgEarthNet.uav[51] utilizationCountManeuversMaintenance 90
scalar OsgEarthNet.uav[51] utilizationCountChargeState 44
scalar OsgEarthNet.uav[51] utilizationCountOverdrawnAfterMission 0
scalar OsgEarthNet.uav[51] utilizationCountIdleState 45
scalar OsgEarthNet.uav[51] utilizationFail 0
scalar OsgEarthNet.uav[51] simulationTime 259200
scalar OsgEarthNet.uav[52] utilizationSecMission 39505.618461116
scalar OsgEarthNet.uav[52] utilizationSecMaintenance 17491.05780218
scalar OsgEarthNet.uav[52] utilizationSecCharge 195783.28018929
scalar OsgEarthNet.uav[52] utilizationSecIdle 6420.0425474148
scalar OsgEarthNet.uav[52] utilizationEnergyMission 188168.5050087
scalar OsgEarthNet.uav[52] utilizationEnergyMaintenance 81685.022891998
scalar OsgEarthNet.uav[52] utilizationEnergyCharge 270919.07324219
scalar OsgEarthNet.uav[52] utilizationEnergyOverdrawMission 0
scalar OsgEarthNet.uav[52] utilizationEnergyOverdrawMaintenance 0
scalar OsgEarthNet.uav[52] utilizationCountMissions 59
scalar OsgEarthNet.uav[52] utilizationCountManeuversMission 1159
scalar OsgEarthNet.uav[52] utilizationCountManeuversMaintenance 118
scalar OsgEarthNet.uav[52] utilizationCountChargeState 59
scalar OsgEarthNet.uav[52] utilizationCountOverdrawnAfterMission 0
scalar OsgEarthNet.uav[52] utilizationCountIdleState 18
scalar OsgEarthNet.uav[52] utilizationFail 0
scalar OsgEarthNet.uav[52] simulationTime 259200
scalar OsgEarthNet.uav[53] utilizationSecMission 15047.501830963
scalar OsgEarthNet.uav[53] utilizationSecMaintenance 8581.4134744876
scalar OsgEarthNet.uav[53] utilizationSecCharge 87680
scalar OsgEarthNet.uav[53] utilizationSecIdle 147891.08369455
scalar OsgEarthNet.uav[53] utilizationEnergyMission 72991.155204773
scalar OsgEarthNet.uav[53] utilizationEnergyMaintenance 40866.287712097
scalar OsgEarthNet.uav[53] utilizationEnergyCharge 113118.51708984
scalar OsgEarthNet.uav[53] utilizationEnergyOverdrawMission 0
scalar OsgEarthNet.uav[53] utilizationEnergyOverdrawMaintenance 0
scalar OsgEarthNet.uav[53] utilizationCountMissions 25
scalar OsgEarthNet.uav[53] utilizationCountManeuversMission 440
scalar OsgEarthNet.uav[53] utilizationCountManeuversMaintenance 50
scalar OsgEarthNet.uav[53] utilizationCountChargeState 25
scalar OsgEarthNet.uav[53] utilizationCountOverdrawnAfterMission 0
scalar OsgEarthNet.uav[53] utilizationCountIdleState 26
scalar OsgEarthNet.uav[53] utilizationFail 0
scalar OsgEarthNet.uav[53] simulationTime 259200
scalar OsgEarthNet.uav[54] utilizationSecMission 19541.39477013
scalar OsgEarthNet.uav[54] utilizationSecMaintenance 12643.410926186
scalar OsgEarthNet.uav[54] utilizationSecCharge 125290
scalar OsgEarthNet.uav[54] utilizationSecIdle 101725.19330368
scalar OsgEarthNet.uav[54] utilizationEnergyMission 93949.824172974
scalar OsgEarthNet.uav[54] utilizationEnergyMaintenance 58944.757324219
scalar OsgEarthNet.uav[54] utilizationEnergyCharge 153504.26391602
scalar OsgEarthNet.uav[54] utilizationEnergyOverdrawMission 0
scalar OsgEarthNet.uav[54] utilizationEnergyOverdrawMaintenance 0
scalar OsgEarthNet.uav[54] utilizationCountMissions 40
scalar OsgEarthNet.uav[54] utilizationCountManeuversMission 523
scalar OsgEarthNet.uav[54] utilizationCountManeuversMaintenance 80
scalar OsgEarthNet.uav[54] utilizationCountChargeState 40
scalar OsgEarthNet.uav[54] utilizationCountOverdrawnAfterMission 0
scalar OsgEarthNet.uav[54] utilizationCountIdleState 41
scalar OsgEarthNet.uav[54] utilizationFail 0
scalar OsgEarthNet.uav[54] simulationTime 259200
scalar OsgEarthNet.uav[55] utilizationSecMission 39737.327227986
scalar OsgEarthNet.uav[55] utilizationSecMaintenance 17254.870853927
scalar OsgEarthNet.uav[55] utilizationSecCharge 197866.34795937
scalar OsgEarthNet.uav[55] utilizationSecIdle 4341.4529587171
scalar OsgEarthNet.uav[55] utilizationEnergyMission 189405.99793625
scalar OsgEarthNet.uav[55] utilizationEnergyMaintenance 79581.43699646
scalar OsgEarthNet.uav[55] utilizationEnergyCharge 270210.04931641
scalar OsgEarthNet.uav[55] utilizationEnergyOverdrawMission 0
scalar OsgEarthNet.uav[55] utilizationEnergyOverdrawMaintenance 0
scalar OsgEarthNet.uav[55] utilizationCountMissions 59
scalar OsgEarthNet.uav[55] utilizationCountManeuversMission 1262
scalar OsgEarthNet.uav[55] utilizationCountManeuversMaintenance 118
scalar OsgEarthNet.uav[55] utilizationCountChargeState 59
scalar OsgEarthNet.uav[55] utilizationCountOverdrawnAfterMission 0
scalar OsgEarthNet.uav[55] utilizationCountIdleState 19
scalar OsgEarthNet.uav[55] utilizationFail 0
scalar OsgEarthNet.uav[55] simulationTime 259200
scalar OsgEarthNet.uav[56] utilizationSecMission 14284.376068062
scalar OsgEarthNet.uav[56] utilizationSecMaintenance 10290.041464361
scalar OsgEarthNet.uav[56] utilizationSecCharge 91720
scalar OsgEarthNet.uav[56] utilizationSecIdle 142905.58146758
scalar OsgEarthNet.uav[56] utilizationEnergyMission 71482.310901642
scalar OsgEarthNet.uav[56] utilizationEnergyMaintenance 48805.662742615
scalar OsgEarthNet.uav[56] utilizationEnergyCharge 118427.77148438
scalar OsgEarthNet.uav[56] utilizationEnergyOverdrawMission 0
scalar OsgEarthNet.uav[56] utilizationEnergyOverdrawMaintenance 0
scalar OsgEarthNet.uav[56] utilizationCountMissions 26
scalar OsgEarthNet.uav[56] utilizationCountManeuversMission 532
scalar OsgEarthNet.uav[56] utilizationCountManeuversMaintenance 52
scalar OsgEarthNet.uav[56] utilizationCountChargeState 26
scalar OsgEarthNet.uav[56] utilizationCountOverdrawnAfterMission 0
scalar OsgEarthNet.uav[56] utilizationCountIdleState 27
scalar OsgEarthNet.uav[56] utilizationFail 0
scalar OsgEarthNet.uav[56] simulationTime 259200
scalar OsgEarthNet.uav[57] utilizationSecMission 19123.294181383
scalar OsgEarthNet.uav[57] utilizationSecMaintenance 12774.883273145
scalar OsgEarthNet.uav[57] utilizationSecCharge 122670
scalar OsgEarthNet.uav[57] utilizationSecIdle 104631.82154547
scalar OsgEarthNet.uav[57] utilizationEnergyMission 94752.183319092
scalar OsgEarthNet.uav[57] utilizationEnergyMaintenance 60845.497097015
scalar OsgEarthNet.uav[57] utilizationEnergyCharge 153978.5769043
scalar OsgEarthNet.uav[57] utilizationEnergyOverdrawMission 0
scalar OsgEarthNet.uav[57] utilizationEnergyOverdrawMaintenance 0
scalar OsgEarthNet.uav[57] utilizationCountMissions 37
scalar OsgEarthNet.uav[57] utilizationCountManeuversMission 681
scalar OsgEarthNet.uav[57] utilizationCountManeuversMaintenance 74
scalar OsgEarthNet.uav[57] utilizationCountChargeState 37
scalar OsgEarthNet.uav[57] utilizationCountOverdrawnAfterMission 0
scalar OsgEarthNet.uav[57] utilizationCountIdleState 38
scalar OsgEarthNet.uav[57] utilizationFail 0
scalar OsgEarthNet.uav[57] simulationTime 259200
scalar OsgEarthNet.uav[58] utilizationSecMission 33805.767582944
scalar OsgEarthNet.uav[58] utilizationSecMaintenance 17329.609092517
scalar OsgEarthNet.uav[58] utilizationSecCharge 182672.62132454
scalar OsgEarthNet.uav[58] utilizationSecIdle 25392.001
scalar OsgEarthNet.uav[58] utilizationEnergyMission 166169.74282455
scalar OsgEarthNet.uav[58] utilizationEnergyMaintenance 80652.857208252
scalar OsgEarthNet.uav[58] utilizationEnergyCharge 246366.94897461
scalar OsgEarthNet.uav[58] utilizationEnergyOverdrawMission 0
scalar OsgEarthNet.uav[58] utilizationEnergyOverdrawMaintenance 0
scalar OsgEarthNet.uav[58] utilizationCountMissions 56
scalar OsgEarthNet.uav[58] utilizationCountManeuversMission 1086
scalar OsgEarthNet.uav[58] utilizationCountManeuversMaintenance 112
scalar OsgEarthNet.uav[58] utilizationCountChargeState 56
scalar OsgEarthNet.uav[58] utilizationCountOverdrawnAfterMission 0
scalar OsgEarthNet.uav[58] utilizationCountIdleState 24
scalar OsgEarthNet.uav[58] utilizationFail 0
scalar OsgEarthNet.uav[58] simulationTime 259200
scalar OsgEarthNet.uav[59] utilizationSecMission 15977.134717134
scalar OsgEarthNet.uav[59] utilizationSecMaintenance 9512.6644806619
scalar OsgEarthNet.uav[59] utilizationSecCharge 95450
scalar OsgEarthNet.uav[59] utilizationSecIdle 138260.1998022
scalar OsgEarthNet.uav[59] utilizationEnergyMission 78371.81754303
scalar OsgEarthNet.uav[59] utilizationEnergyMaintenance 45311.529178619
scalar OsgEarthNet.uav[59] utilizationEnergyCharge 123531.51025391
scalar OsgEarthNet.uav[59] utilizationEnergyOverdrawMission 0
scalar OsgEarthNet.uav[59] utilizationEnergyOverdrawMaintenance 0
scalar OsgEarthNet.uav[59] utilizationCountMissions 27
scalar OsgEarthNet.uav[59] utilizationCountManeuversMission 508
scalar OsgEarthNet.uav[59] utilizationCountManeuversMaintenance 54
scalar OsgEarthNet.uav[59] utilizationCountChargeState 27
scalar OsgEarthNet.uav[59] utilizationCountOverdrawnAfterMission 0
scalar OsgEarthNet.uav[59] utilizationCountIdleState 28
scalar OsgEarthNet.uav[59] utilizationFail 0
scalar OsgEarthNet.uav[59] simulationTime 259200
scalar OsgEarthNet.uav[60] utilizationSecMission 14566.251525803
scalar OsgEarthNet.uav[60] utilizationSecMaintenance 9079.8731873717
scalar OsgEarthNet.uav[60] utilizationSecCharge 86911.856286825
scalar OsgEarthNet.uav[60] utilizationSecIdle 148642.018
scalar OsgEarthNet.uav[60] utilizationEnergyMission 69835.379955292
scalar OsgEarthNet.uav[60] utilizationEnergyMaintenance 42903.54618454
scalar OsgEarthNet.uav[60] utilizationEnergyCharge 113076.48876953
scalar OsgEarthNet.uav[60] utilizationEnergyOverdrawMission 0
scalar OsgEarthNet.uav[60] utilizationEnergyOverdrawMaintenance 0
scalar OsgEarthNet.uav[60] utilizationCountMissions 25
scalar OsgEarthNet.uav[60] utilizationCountManeuversMission 468
scalar OsgEarthNet.uav[60] utilizationCountManeuversMaintenance 50
scalar OsgEarthNet.uav[60] utilizationCountChargeState 25
scalar OsgEarthNet.uav[60] utilizationCountOverdrawnAfterMission 0
scalar OsgEarthNet.uav[60] utilizationCountIdleState 25
scalar OsgEarthNet.uav[60] utilizationFail 0
scalar OsgEarthNet.uav[60] simulationTime 259200
scalar OsgEarthNet.uav[61] utilizationSecMission 16561.255220114
scalar OsgEarthNet.uav[61] utilizationSecMaintenance 12126.732779886
scalar OsgEarthNet.uav[61] utilizationSecCharge 113380
scalar OsgEarthNet.uav[61] utilizationSecIdle 117132.011
scalar OsgEarthNet.uav[61] utilizationEnergyMission 81708.932048798
scalar OsgEarthNet.uav[61] utilizationEnergyMaintenance 57205.490217576
scalar OsgEarthNet.uav[61] utilizationEnergyCharge 140671.22143555
scalar OsgEarthNet.uav[61] utilizationEnergyOverdrawMission 0
scalar OsgEarthNet.uav[61] utilizationEnergyOverdrawMaintenance 0
scalar OsgEarthNet.uav[61] utilizationCountMissions 35
scalar OsgEarthNet.uav[61] utilizationCountManeuversMission 604
scalar OsgEarthNet.uav[61] utilizationCountManeuversMaintenance 71
scalar OsgEarthNet.uav[61] utilizationCountChargeState 35
scalar OsgEarthNet.uav[61] utilizationCountOverdrawnAfterMission 0
scalar OsgEarthNet.uav[61] utilizationCountIdleState 36
scalar OsgEarthNet.uav[61] utilizationFail 0
scalar OsgEarthNet.uav[61] simulationTime 259200
scalar OsgEarthNet.uav[62] utilizationSecMission 40127.11347784
scalar OsgEarthNet.uav[62] utilizationSecMaintenance 17186.134349317
scalar OsgEarthNet.uav[62] utilizationSecCharge 195476.9143588
scalar OsgEarthNet.uav[62] utilizationSecIdle 6409.83681404
scalar OsgEarthNet.uav[62] utilizationEnergyMission 195388.73717499
scalar OsgEarthNet.uav[62] utilizationEnergyMaintenance 78903.047317505
scalar OsgEarthNet.uav[62] utilizationEnergyCharge 268647.67080688
scalar OsgEarthNet.uav[62] utilizationEnergyOverdrawMission 0
scalar OsgEarthNet.uav[62] utilizationEnergyOverdrawMaintenance 0
scalar OsgEarthNet.uav[62] utilizationCountMissions 59
scalar OsgEarthNet.uav[62] utilizationCountManeuversMission 1211
scalar OsgEarthNet.uav[62] utilizationCountManeuversMaintenance 118
scalar OsgEarthNet.uav[62] utilizationCountChargeState 59
scalar OsgEarthNet.uav[62] utilizationCountOverdrawnAfterMission 0
scalar OsgEarthNet.uav[62] utilizationCountIdleState 25
scalar OsgEarthNet.uav[62] utilizationFail 0
scalar OsgEarthNet.uav[62] simulationTime 259200
scalar OsgEarthNet.uav[63] utilizationSecMission 15966.251525803
scalar OsgEarthNet.uav[63] utilizationSecMaintenance 10072.699080045
scalar OsgEarthNet.uav[63] utilizationSecCharge 97380
scalar OsgEarthNet.uav[63] utilizationSecIdle 135781.04839415
scalar OsgEarthNet.uav[63] utilizationEnergyMission 78407.815303803
scalar OsgEarthNet.uav[63] utilizationEnergyMaintenance 47715.549850464
scalar OsgEarthNet.uav[63] utilizationEnergyCharge 124883.74658203
scalar OsgEarthNet.uav[63] utilizationEnergyOverdrawMission 0
scalar OsgEarthNet.uav[63] utilizationEnergyOverdrawMaintenance 0
scalar OsgEarthNet.uav[63] utilizationCountMissions 28
scalar OsgEarthNet.uav[63] utilizationCountManeuversMission 538
scalar OsgEarthNet.uav[63] utilizationCountManeuversMaintenance 56
scalar OsgEarthNet.uav[63] utilizationCountChargeState 28
scalar OsgEarthNet.uav[63] utilizationCountOverdrawnAfterMission 0
scalar OsgEarthNet.uav[63] utilizationCountIdleState 29
scalar OsgEarthNet.uav[63] utilizationFail 0
scalar OsgEarthNet.uav[63] simulationTime 259200
scalar OsgEarthNet.uav[64] utilizationSecMission 17605.111921852
scalar OsgEarthNet.uav[64] utilizationSecMaintenance 13155.876667637
scalar OsgEarthNet.uav[64] utilizationSecCharge 120980
scalar OsgEarthNet.uav[64] utilizationSecIdle 107459.01041051
scalar OsgEarthNet.uav[64] utilizationEnergyMission 89005.24842453
scalar OsgEarthNet.uav[64] utilizationEnergyMaintenance 62665.535449982
scalar OsgEarthNet.uav[64] utilizationEnergyCharge 149244.92041016
scalar OsgEarthNet.uav[64] utilizationEnergyOverdrawMission 0
scalar OsgEarthNet.uav[64] utilizationEnergyOverdrawMaintenance 0
scalar OsgEarthNet.uav[64] utilizationCountMissions 38
scalar OsgEarthNet.uav[64] utilizationCountManeuversMission 663
scalar OsgEarthNet.uav[64] utilizationCountManeuversMaintenance 76
scalar OsgEarthNet.uav[64] utilizationCountChargeState 38
scalar OsgEarthNet.uav[64] utilizationCountOverdrawnAfterMission 0
scalar OsgEarthNet.uav[64] utilizationCountIdleState 39
scalar OsgEarthNet.uav[64] utilizationFail 0
scalar OsgEarthNet.uav[64] simulationTime 259200
scalar OsgEarthNet.uav[65] utilizationSecMission 39854.730635762
scalar OsgEarthNet.uav[65] utilizationSecMaintenance 17673.267364239
scalar OsgEarthNet.uav[65] utilizationSecCharge 198200
scalar OsgEarthNet.uav[65] utilizationSecIdle 3472.001
scalar OsgEarthNet.uav[65] utilizationEnergyMission 192413.90501358
[...]
scalar OsgEarthNet.uav[81] utilizationEnergyOverdrawMaintenance 0
scalar OsgEarthNet.uav[81] utilizationCountMissions 43
scalar OsgEarthNet.uav[81] utilizationCountManeuversMission 625
scalar OsgEarthNet.uav[81] utilizationCountManeuversMaintenance 86
scalar OsgEarthNet.uav[81] utilizationCountChargeState 43
scalar OsgEarthNet.uav[81] utilizationCountOverdrawnAfterMission 0
scalar OsgEarthNet.uav[81] utilizationCountIdleState 43
scalar OsgEarthNet.uav[81] utilizationFail 0
scalar OsgEarthNet.uav[81] simulationTime 259200
scalar OsgEarthNet.uav[82] utilizationSecMission 39678.570582984
scalar OsgEarthNet.uav[82] utilizationSecMaintenance 17686.930475841
scalar OsgEarthNet.uav[82] utilizationSecCharge 198420
scalar OsgEarthNet.uav[82] utilizationSecIdle 3414.4979411756
scalar OsgEarthNet.uav[82] utilizationEnergyMission 192067.99808974
scalar OsgEarthNet.uav[82] utilizationEnergyMaintenance 81209.261062622
scalar OsgEarthNet.uav[82] utilizationEnergyCharge 271172.1875
scalar OsgEarthNet.uav[82] utilizationEnergyOverdrawMission 0
scalar OsgEarthNet.uav[82] utilizationEnergyOverdrawMaintenance 0
scalar OsgEarthNet.uav[82] utilizationCountMissions 59
scalar OsgEarthNet.uav[82] utilizationCountManeuversMission 1228
scalar OsgEarthNet.uav[82] utilizationCountManeuversMaintenance 119
scalar OsgEarthNet.uav[82] utilizationCountChargeState 59
scalar OsgEarthNet.uav[82] utilizationCountOverdrawnAfterMission 0
scalar OsgEarthNet.uav[82] utilizationCountIdleState 24
scalar OsgEarthNet.uav[82] utilizationFail 0
scalar OsgEarthNet.uav[82] simulationTime 259200
scalar OsgEarthNet.uav[83] utilizationSecMission 20604.996596445
scalar OsgEarthNet.uav[83] utilizationSecMaintenance 13391.7212521
scalar OsgEarthNet.uav[83] utilizationSecCharge 126910
scalar OsgEarthNet.uav[83] utilizationSecIdle 98293.281151455
scalar OsgEarthNet.uav[83] utilizationEnergyMission 98432.613723755
scalar OsgEarthNet.uav[83] utilizationEnergyMaintenance 63692.698623657
scalar OsgEarthNet.uav[83] utilizationEnergyCharge 164103.28320312
scalar OsgEarthNet.uav[83] utilizationEnergyOverdrawMission 0
scalar OsgEarthNet.uav[83] utilizationEnergyOverdrawMaintenance 0
scalar OsgEarthNet.uav[83] utilizationCountMissions 36
scalar OsgEarthNet.uav[83] utilizationCountManeuversMission 706
scalar OsgEarthNet.uav[83] utilizationCountManeuversMaintenance 71
scalar OsgEarthNet.uav[83] utilizationCountChargeState 36
scalar OsgEarthNet.uav[83] utilizationCountOverdrawnAfterMission 0
scalar OsgEarthNet.uav[83] utilizationCountIdleState 37
scalar OsgEarthNet.uav[83] utilizationFail 0
scalar OsgEarthNet.uav[83] simulationTime 259200
scalar OsgEarthNet.uav[84] utilizationSecMission 23087.785703646
scalar OsgEarthNet.uav[84] utilizationSecMaintenance 15092.117217687
scalar OsgEarthNet.uav[84] utilizationSecCharge 146128.09457194
scalar OsgEarthNet.uav[84] utilizationSecIdle 74892.001506722
scalar OsgEarthNet.uav[84] utilizationEnergyMission 112241.46459961
scalar OsgEarthNet.uav[84] utilizationEnergyMaintenance 71577.639789581
scalar OsgEarthNet.uav[84] utilizationEnergyCharge 183583.17236328
scalar OsgEarthNet.uav[84] utilizationEnergyOverdrawMission 0
scalar OsgEarthNet.uav[84] utilizationEnergyOverdrawMaintenance 0
scalar OsgEarthNet.uav[84] utilizationCountMissions 45
scalar OsgEarthNet.uav[84] utilizationCountManeuversMission 731
scalar OsgEarthNet.uav[84] utilizationCountManeuversMaintenance 90
scalar OsgEarthNet.uav[84] utilizationCountChargeState 45
scalar OsgEarthNet.uav[84] utilizationCountOverdrawnAfterMission 0
scalar OsgEarthNet.uav[84] utilizationCountIdleState 45
scalar OsgEarthNet.uav[84] utilizationFail 0
scalar OsgEarthNet.uav[84] simulationTime 259200
scalar OsgEarthNet.uav[85] utilizationSecMission 40128.992934471
scalar OsgEarthNet.uav[85] utilizationSecMaintenance 16984.636193117
scalar OsgEarthNet.uav[85] utilizationSecCharge 197404.36487241
scalar OsgEarthNet.uav[85] utilizationSecIdle 4682.005
scalar OsgEarthNet.uav[85] utilizationEnergyMission 191620.68031693
scalar OsgEarthNet.uav[85] utilizationEnergyMaintenance 79464.560352325
scalar OsgEarthNet.uav[85] utilizationEnergyCharge 271740.98754883
scalar OsgEarthNet.uav[85] utilizationEnergyOverdrawMission 0
scalar OsgEarthNet.uav[85] utilizationEnergyOverdrawMaintenance 0
scalar OsgEarthNet.uav[85] utilizationCountMissions 59
scalar OsgEarthNet.uav[85] utilizationCountManeuversMission 1207
scalar OsgEarthNet.uav[85] utilizationCountManeuversMaintenance 118
scalar OsgEarthNet.uav[85] utilizationCountChargeState 59
scalar OsgEarthNet.uav[85] utilizationCountOverdrawnAfterMission 0
scalar OsgEarthNet.uav[85] utilizationCountIdleState 17
scalar OsgEarthNet.uav[85] utilizationFail 0
scalar OsgEarthNet.uav[85] simulationTime 259200
scalar OsgEarthNet.uav[86] utilizationSecMission 15183.997051465
scalar OsgEarthNet.uav[86] utilizationSecMaintenance 9440.7313744171
scalar OsgEarthNet.uav[86] utilizationSecCharge 90200
scalar OsgEarthNet.uav[86] utilizationSecIdle 144375.27057412
scalar OsgEarthNet.uav[86] utilizationEnergyMission 74699.362977559
scalar OsgEarthNet.uav[86] utilizationEnergyMaintenance 44552.676212311
scalar OsgEarthNet.uav[86] utilizationEnergyCharge 115848.59521484
scalar OsgEarthNet.uav[86] utilizationEnergyOverdrawMission 0
scalar OsgEarthNet.uav[86] utilizationEnergyOverdrawMaintenance 0
scalar OsgEarthNet.uav[86] utilizationCountMissions 26
scalar OsgEarthNet.uav[86] utilizationCountManeuversMission 499
scalar OsgEarthNet.uav[86] utilizationCountManeuversMaintenance 53
scalar OsgEarthNet.uav[86] utilizationCountChargeState 26
scalar OsgEarthNet.uav[86] utilizationCountOverdrawnAfterMission 0
scalar OsgEarthNet.uav[86] utilizationCountIdleState 27
scalar OsgEarthNet.uav[86] utilizationFail 0
scalar OsgEarthNet.uav[86] simulationTime 259200
scalar OsgEarthNet.uav[87] utilizationSecMission 22034.491357968
scalar OsgEarthNet.uav[87] utilizationSecMaintenance 15662.646203722
scalar OsgEarthNet.uav[87] utilizationSecCharge 145619.19326032
scalar OsgEarthNet.uav[87] utilizationSecIdle 75883.668177988
scalar OsgEarthNet.uav[87] utilizationEnergyMission 106572.43757629
scalar OsgEarthNet.uav[87] utilizationEnergyMaintenance 75181.288757324
scalar OsgEarthNet.uav[87] utilizationEnergyCharge 178931.484375
scalar OsgEarthNet.uav[87] utilizationEnergyOverdrawMission 0
scalar OsgEarthNet.uav[87] utilizationEnergyOverdrawMaintenance 0
scalar OsgEarthNet.uav[87] utilizationCountMissions 47
scalar OsgEarthNet.uav[87] utilizationCountManeuversMission 719
scalar OsgEarthNet.uav[87] utilizationCountManeuversMaintenance 94
scalar OsgEarthNet.uav[87] utilizationCountChargeState 47
scalar OsgEarthNet.uav[87] utilizationCountOverdrawnAfterMission 0
scalar OsgEarthNet.uav[87] utilizationCountIdleState 47
scalar OsgEarthNet.uav[87] utilizationFail 0
scalar OsgEarthNet.uav[87] simulationTime 259200
scalar OsgEarthNet.uav[88] utilizationSecMission 40610.133964633
scalar OsgEarthNet.uav[88] utilizationSecMaintenance 16557.265615449
scalar OsgEarthNet.uav[88] utilizationSecCharge 197280.59741992
scalar OsgEarthNet.uav[88] utilizationSecIdle 4752.002
scalar OsgEarthNet.uav[88] utilizationEnergyMission 195272.94594574
scalar OsgEarthNet.uav[88] utilizationEnergyMaintenance 76666.160812378
scalar OsgEarthNet.uav[88] utilizationEnergyCharge 270573.87915039
scalar OsgEarthNet.uav[88] utilizationEnergyOverdrawMission 0
scalar OsgEarthNet.uav[88] utilizationEnergyOverdrawMaintenance 0
scalar OsgEarthNet.uav[88] utilizationCountMissions 59
scalar OsgEarthNet.uav[88] utilizationCountManeuversMission 1179
scalar OsgEarthNet.uav[88] utilizationCountManeuversMaintenance 118
scalar OsgEarthNet.uav[88] utilizationCountChargeState 59
scalar OsgEarthNet.uav[88] utilizationCountOverdrawnAfterMission 0
scalar OsgEarthNet.uav[88] utilizationCountIdleState 24
scalar OsgEarthNet.uav[88] utilizationFail 0
scalar OsgEarthNet.uav[88] simulationTime 259200
scalar OsgEarthNet.uav[89] utilizationSecMission 16495.993487052
scalar OsgEarthNet.uav[89] utilizationSecMaintenance 10553.222806652
scalar OsgEarthNet.uav[89] utilizationSecCharge 101630
scalar OsgEarthNet.uav[89] utilizationSecIdle 130520.7827063
scalar OsgEarthNet.uav[89] utilizationEnergyMission 79750.866081238
scalar OsgEarthNet.uav[89] utilizationEnergyMaintenance 50544.065578461
scalar OsgEarthNet.uav[89] utilizationEnergyCharge 130850.97265625
scalar OsgEarthNet.uav[89] utilizationEnergyOverdrawMission 0
scalar OsgEarthNet.uav[89] utilizationEnergyOverdrawMaintenance 0
scalar OsgEarthNet.uav[89] utilizationCountMissions 29
scalar OsgEarthNet.uav[89] utilizationCountManeuversMission 569
scalar OsgEarthNet.uav[89] utilizationCountManeuversMaintenance 58
scalar OsgEarthNet.uav[89] utilizationCountChargeState 29
scalar OsgEarthNet.uav[89] utilizationCountOverdrawnAfterMission 0
scalar OsgEarthNet.uav[89] utilizationCountIdleState 30
scalar OsgEarthNet.uav[89] utilizationFail 0
scalar OsgEarthNet.uav[89] simulationTime 259200
scalar OsgEarthNet.uav[90] utilizationSecMission 18968.126983544
scalar OsgEarthNet.uav[90] utilizationSecMaintenance 11983.957773998
scalar OsgEarthNet.uav[90] utilizationSecCharge 113455.91324246
scalar OsgEarthNet.uav[90] utilizationSecIdle 114792.001
scalar OsgEarthNet.uav[90] utilizationEnergyMission 90912.298770905
scalar OsgEarthNet.uav[90] utilizationEnergyMaintenance 56819.147655487
scalar OsgEarthNet.uav[90] utilizationEnergyCharge 146740.45678711
scalar OsgEarthNet.uav[90] utilizationEnergyOverdrawMission 0
scalar OsgEarthNet.uav[90] utilizationEnergyOverdrawMaintenance 0
scalar OsgEarthNet.uav[90] utilizationCountMissions 33
scalar OsgEarthNet.uav[90] utilizationCountManeuversMission 610
scalar OsgEarthNet.uav[90] utilizationCountManeuversMaintenance 66
scalar OsgEarthNet.uav[90] utilizationCountChargeState 33
scalar OsgEarthNet.uav[90] utilizationCountOverdrawnAfterMission 0
scalar OsgEarthNet.uav[90] utilizationCountIdleState 33
scalar OsgEarthNet.uav[90] utilizationFail 0
scalar OsgEarthNet.uav[90] simulationTime 259200
scalar OsgEarthNet.uav[91] utilizationSecMission 19959.98473527
scalar OsgEarthNet.uav[91] utilizationSecMaintenance 13388.00826473
scalar OsgEarthNet.uav[91] utilizationSecCharge 126970
scalar OsgEarthNet.uav[91] utilizationSecIdle 98882.006
scalar OsgEarthNet.uav[91] utilizationEnergyMission 96313.209452972
scalar OsgEarthNet.uav[91] utilizationEnergyMaintenance 63900.616577148
scalar OsgEarthNet.uav[91] utilizationEnergyCharge 158092.66967773
scalar OsgEarthNet.uav[91] utilizationEnergyOverdrawMission 0
scalar OsgEarthNet.uav[91] utilizationEnergyOverdrawMaintenance 0
scalar OsgEarthNet.uav[91] utilizationCountMissions 39
scalar OsgEarthNet.uav[91] utilizationCountManeuversMission 686
scalar OsgEarthNet.uav[91] utilizationCountManeuversMaintenance 79
scalar OsgEarthNet.uav[91] utilizationCountChargeState 39
scalar OsgEarthNet.uav[91] utilizationCountOverdrawnAfterMission 0
scalar OsgEarthNet.uav[91] utilizationCountIdleState 40
scalar OsgEarthNet.uav[91] utilizationFail 0
scalar OsgEarthNet.uav[91] simulationTime 259200
scalar OsgEarthNet.uav[92] utilizationSecMission 40702.346843935
scalar OsgEarthNet.uav[92] utilizationSecMaintenance 15715.619566467
scalar OsgEarthNet.uav[92] utilizationSecCharge 195101.33215457
scalar OsgEarthNet.uav[92] utilizationSecIdle 7680.700435033
scalar OsgEarthNet.uav[92] utilizationEnergyMission 196894.19876862
scalar OsgEarthNet.uav[92] utilizationEnergyMaintenance 70913.072990418
scalar OsgEarthNet.uav[92] utilizationEnergyCharge 267923.12524414
scalar OsgEarthNet.uav[92] utilizationEnergyOverdrawMission 0
scalar OsgEarthNet.uav[92] utilizationEnergyOverdrawMaintenance 0
scalar OsgEarthNet.uav[92] utilizationCountMissions 58
scalar OsgEarthNet.uav[92] utilizationCountManeuversMission 1178
scalar OsgEarthNet.uav[92] utilizationCountManeuversMaintenance 116
scalar OsgEarthNet.uav[92] utilizationCountChargeState 58
scalar OsgEarthNet.uav[92] utilizationCountOverdrawnAfterMission 0
scalar OsgEarthNet.uav[92] utilizationCountIdleState 23
scalar OsgEarthNet.uav[92] utilizationFail 0
scalar OsgEarthNet.uav[92] simulationTime 259200
scalar OsgEarthNet.uav[93] utilizationSecMission 15757.868944793
scalar OsgEarthNet.uav[93] utilizationSecMaintenance 8895.0590063508
scalar OsgEarthNet.uav[93] utilizationSecCharge 91460
scalar OsgEarthNet.uav[93] utilizationSecIdle 143087.07104886
scalar OsgEarthNet.uav[93] utilizationEnergyMission 76374.171524048
scalar OsgEarthNet.uav[93] utilizationEnergyMaintenance 42074.81848526
scalar OsgEarthNet.uav[93] utilizationEnergyCharge 118140.38623047
scalar OsgEarthNet.uav[93] utilizationEnergyOverdrawMission 0
scalar OsgEarthNet.uav[93] utilizationEnergyOverdrawMaintenance 0
scalar OsgEarthNet.uav[93] utilizationCountMissions 26
scalar OsgEarthNet.uav[93] utilizationCountManeuversMission 454
scalar OsgEarthNet.uav[93] utilizationCountManeuversMaintenance 52
scalar OsgEarthNet.uav[93] utilizationCountChargeState 26
scalar OsgEarthNet.uav[93] utilizationCountOverdrawnAfterMission 0
scalar OsgEarthNet.uav[93] utilizationCountIdleState 27
scalar OsgEarthNet.uav[93] utilizationFail 0
scalar OsgEarthNet.uav[93] simulationTime 259200
scalar OsgEarthNet.uav[94] utilizationSecMission 20907.150883121
scalar OsgEarthNet.uav[94] utilizationSecMaintenance 14643.407322076
scalar OsgEarthNet.uav[94] utilizationSecCharge 136698.47680913
scalar OsgEarthNet.uav[94] utilizationSecIdle 86950.963985674
scalar OsgEarthNet.uav[94] utilizationEnergyMission 104202.8398819
scalar OsgEarthNet.uav[94] utilizationEnergyMaintenance 69872.770938873
scalar OsgEarthNet.uav[94] utilizationEnergyCharge 172071.09399414
scalar OsgEarthNet.uav[94] utilizationEnergyOverdrawMission 0
scalar OsgEarthNet.uav[94] utilizationEnergyOverdrawMaintenance 0
scalar OsgEarthNet.uav[94] utilizationCountMissions 42
scalar OsgEarthNet.uav[94] utilizationCountManeuversMission 777
scalar OsgEarthNet.uav[94] utilizationCountManeuversMaintenance 84
scalar OsgEarthNet.uav[94] utilizationCountChargeState 42
scalar OsgEarthNet.uav[94] utilizationCountOverdrawnAfterMission 0
scalar OsgEarthNet.uav[94] utilizationCountIdleState 42
scalar OsgEarthNet.uav[94] utilizationFail 0
scalar OsgEarthNet.uav[94] simulationTime 259200
scalar OsgEarthNet.uav[95] utilizationSecMission 40575.21236846
scalar OsgEarthNet.uav[95] utilizationSecMaintenance 16862.78663154
scalar OsgEarthNet.uav[95] utilizationSecCharge 198830
scalar OsgEarthNet.uav[95] utilizationSecIdle 2932
scalar OsgEarthNet.uav[95] utilizationEnergyMission 194322.28275832
scalar OsgEarthNet.uav[95] utilizationEnergyMaintenance 78473.923679352
scalar OsgEarthNet.uav[95] utilizationEnergyCharge 272454.6953125
scalar OsgEarthNet.uav[95] utilizationEnergyOverdrawMission 0
scalar OsgEarthNet.uav[95] utilizationEnergyOverdrawMaintenance 0
scalar OsgEarthNet.uav[95] utilizationCountMissions 59
scalar OsgEarthNet.uav[95] utilizationCountManeuversMission 1120
scalar OsgEarthNet.uav[95] utilizationCountManeuversMaintenance 119
scalar OsgEarthNet.uav[95] utilizationCountChargeState 59
scalar OsgEarthNet.uav[95] utilizationCountOverdrawnAfterMission 0
scalar OsgEarthNet.uav[95] utilizationCountIdleState 20
scalar OsgEarthNet.uav[95] utilizationFail 0
scalar OsgEarthNet.uav[95] simulationTime 259200
scalar OsgEarthNet.uav[96] utilizationSecMission 18517.759869714
scalar OsgEarthNet.uav[96] utilizationSecMaintenance 11495.577598197
scalar OsgEarthNet.uav[96] utilizationSecCharge 112000
scalar OsgEarthNet.uav[96] utilizationSecIdle 117186.66153209
scalar OsgEarthNet.uav[96] utilizationEnergyMission 90780.727558136
scalar OsgEarthNet.uav[96] utilizationEnergyMaintenance 54704.929504394
scalar OsgEarthNet.uav[96] utilizationEnergyCharge 144397.31298828
scalar OsgEarthNet.uav[96] utilizationEnergyOverdrawMission 0
scalar OsgEarthNet.uav[96] utilizationEnergyOverdrawMaintenance 0
scalar OsgEarthNet.uav[96] utilizationCountMissions 32
scalar OsgEarthNet.uav[96] utilizationCountManeuversMission 609
scalar OsgEarthNet.uav[96] utilizationCountManeuversMaintenance 64
scalar OsgEarthNet.uav[96] utilizationCountChargeState 32
scalar OsgEarthNet.uav[96] utilizationCountOverdrawnAfterMission 0
scalar OsgEarthNet.uav[96] utilizationCountIdleState 33
scalar OsgEarthNet.uav[96] utilizationFail 0
scalar OsgEarthNet.uav[96] simulationTime 259200
scalar OsgEarthNet.uav[97] utilizationSecMission 20270.51231435
scalar OsgEarthNet.uav[97] utilizationSecMaintenance 14640.17984426
scalar OsgEarthNet.uav[97] utilizationSecCharge 136177.29284139
scalar OsgEarthNet.uav[97] utilizationSecIdle 88112.014
scalar OsgEarthNet.uav[97] utilizationEnergyMission 98988.660053253
scalar OsgEarthNet.uav[97] utilizationEnergyMaintenance 69044.898910522
scalar OsgEarthNet.uav[97] utilizationEnergyCharge 167368.15234375
scalar OsgEarthNet.uav[97] utilizationEnergyOverdrawMission 0
scalar OsgEarthNet.uav[97] utilizationEnergyOverdrawMaintenance 0
scalar OsgEarthNet.uav[97] utilizationCountMissions 44
scalar OsgEarthNet.uav[97] utilizationCountManeuversMission 677
scalar OsgEarthNet.uav[97] utilizationCountManeuversMaintenance 88
scalar OsgEarthNet.uav[97] utilizationCountChargeState 44
scalar OsgEarthNet.uav[97] utilizationCountOverdrawnAfterMission 0
scalar OsgEarthNet.uav[97] utilizationCountIdleState 44
scalar OsgEarthNet.uav[97] utilizationFail 0
scalar OsgEarthNet.uav[97] simulationTime 259200
scalar OsgEarthNet.uav[98] utilizationSecMission 40820.444286135
scalar OsgEarthNet.uav[98] utilizationSecMaintenance 16188.601720578
scalar OsgEarthNet.uav[98] utilizationSecCharge 197111.32191262
scalar OsgEarthNet.uav[98] utilizationSecIdle 5079.6310806652
scalar OsgEarthNet.uav[98] utilizationEnergyMission 194006.92800903
scalar OsgEarthNet.uav[98] utilizationEnergyMaintenance 74549.143424988
scalar OsgEarthNet.uav[98] utilizationEnergyCharge 269298.21728516
scalar OsgEarthNet.uav[98] utilizationEnergyOverdrawMission 0
scalar OsgEarthNet.uav[98] utilizationEnergyOverdrawMaintenance 0
scalar OsgEarthNet.uav[98] utilizationCountMissions 58
scalar OsgEarthNet.uav[98] utilizationCountManeuversMission 1104
scalar OsgEarthNet.uav[98] utilizationCountManeuversMaintenance 116
scalar OsgEarthNet.uav[98] utilizationCountChargeState 58
scalar OsgEarthNet.uav[98] utilizationCountOverdrawnAfterMission 0
scalar OsgEarthNet.uav[98] utilizationCountIdleState 23
scalar OsgEarthNet.uav[98] utilizationFail 0
scalar OsgEarthNet.uav[98] simulationTime 259200
scalar OsgEarthNet.uav[99] utilizationSecMission 17245.735448302
scalar OsgEarthNet.uav[99] utilizationSecMaintenance 12015.977308928
scalar OsgEarthNet.uav[99] utilizationSecCharge 109676.26524277
scalar OsgEarthNet.uav[99] utilizationSecIdle 120262.021
scalar OsgEarthNet.uav[99] utilizationEnergyMission 84243.329853058
scalar OsgEarthNet.uav[99] utilizationEnergyMaintenance 56817.743804931
scalar OsgEarthNet.uav[99] utilizationEnergyCharge 141897.43164062
scalar OsgEarthNet.uav[99] utilizationEnergyOverdrawMission 0
scalar OsgEarthNet.uav[99] utilizationEnergyOverdrawMaintenance 0
scalar OsgEarthNet.uav[99] utilizationCountMissions 32
scalar OsgEarthNet.uav[99] utilizationCountManeuversMission 611
scalar OsgEarthNet.uav[99] utilizationCountManeuversMaintenance 64
scalar OsgEarthNet.uav[99] utilizationCountChargeState 32
scalar OsgEarthNet.uav[99] utilizationCountOverdrawnAfterMission 0
scalar OsgEarthNet.uav[99] utilizationCountIdleState 32
scalar OsgEarthNet.uav[99] utilizationFail 0
scalar OsgEarthNet.uav[99] simulationTime 259200
scalar OsgEarthNet.cs[0] usedPower 4019911.1426459
scalar OsgEarthNet.cs[0] chargedPower 4019911.1426459
scalar OsgEarthNet.cs[0] chargedMobileNodes 880
scalar OsgEarthNet.cs[0] reservations 893
scalar OsgEarthNet.cs[1] usedPower 4136093.5479815
scalar OsgEarthNet.cs[1] chargedPower 4136093.5479815
scalar OsgEarthNet.cs[1] chargedMobileNodes 1029
scalar OsgEarthNet.cs[1] reservations 1042
scalar OsgEarthNet.cs[2] usedPower 8691417.1896214
scalar OsgEarthNet.cs[2] chargedPower 8691417.1896214
scalar OsgEarthNet.cs[2] chargedMobileNodes 665
scalar OsgEarthNet.cs[2] reservations 1896

