version 2
run Szenario_Hotel_Gabelbach-265-20180719-10:40:54-20396
attr configname Szenario_Hotel_Gabelbach
attr datetime 20180719-10:40:54
attr experiment Szenario_Hotel_Gabelbach
attr inifile omnetpp.ini
attr iterationvars "$replM=2, $biWeight=0.35, $replSearchM=1, $numUAVs=72"
attr iterationvarsf replM=2,biWeight=0.35,replSearchM=1,numUAVs=72-
attr measurement "$replM=2, $biWeight=0.35, $replSearchM=1, $numUAVs=72"
attr network OsgEarthNet
attr processid 20396
attr repetition 1
attr replication #1
attr resultdir results
attr runnumber 265
attr seedset 265
itervar biWeight 0.35
itervar numUAVs 72
itervar replM 2
itervar replSearchM 1
param *.osgEarthScene.scene "\"Szenario_Hotel_Gabelbach.earth\""
param *.playgroundLatitude 50.6830269
param *.playgroundLongitude 10.8538055
param *.playgroundWidth 3500m
param *.playgroundHeight 3500m
param *.cs[0].posX 3537m
param *.cs[0].posY 965m
param *.cs[0].posZ 538m
param *.cs[1].posX 312m
param *.cs[1].posY 1262m
param *.cs[1].posZ 539m
param *.cs[2].posX 2185m
param *.cs[2].posY 3026m
param *.cs[2].posZ 777m
param *.cs[3].posX 10m
param *.cs[3].posY 2200m
param *.cs[3].posZ 560m
param *.cs[4].posX 750m
param *.cs[4].posY 200m
param *.cs[4].posZ 540m
param *.cs[5].posX 2450m
param *.cs[5].posY 180m
param *.cs[5].posZ 524m
param *.cs[6].posX 3140m
param *.cs[6].posY 1790m
param *.cs[6].posZ 606m
param *.numCSs 3
param *.uav[*].replacementMethod 2
param *.uav[*].weightedSumWeight 0.35
param *.missionControl.replacementSearchMethod 1
param *.numUAVs 72
param *.*.timeStep 10s
param *.uav[*].commandPreviewCommandCount 20
param *.missionControl.missionFiles "\"missions\\\\Szenario_WB_Hotel_Gabelbach_Mission_Hotel.waypoints,missions\\\\Szenario_WB_Hotel_Gabelbach_Mission_Kickelhahn.waypoints,missions\\\\Szenario_WB_Hotel_Gabelbach_Mission_Ilmenau_Sportplatz.waypoints,missions\\\\Szenario_WB_Hotel_Gabelbach_Mission_Manebach_Mitte.waypoints,missions\\\\Szenario_WB_Hotel_Gabelbach_Mission_Manebach_Sued.waypoints,missions\\\\Szenario_WB_Hotel_Gabelbach_Hover_HoheSchlaufe.waypoints,missions\\\\Szenario_WB_Hotel_Gabelbach_Hover_Kickelhahn.waypoints,missions\\\\Szenario_WB_Hotel_Gabelbach_Hover_Gabelbachskopf.waypoints,missions\\\\Szenario_WB_Hotel_Gabelbach_Hover_Dachskopf.waypoints\""
param *.uav[0].startX 3537m
param *.uav[0].startY 965m
param *.uav[0].startZ 539m
param *.uav[1].startX 312m
param *.uav[1].startY 1262m
param *.uav[1].startZ 540m
param *.uav[2].startX 2185m
param *.uav[2].startY 3026m
param *.uav[2].startZ 778m
param *.uav[3].startX 3537m
param *.uav[3].startY 965m
param *.uav[3].startZ 539m
param *.uav[4].startX 312m
param *.uav[4].startY 1262m
param *.uav[4].startZ 540m
param *.uav[5].startX 2185m
param *.uav[5].startY 3026m
param *.uav[5].startZ 778m
param *.uav[6].startX 3537m
param *.uav[6].startY 965m
param *.uav[6].startZ 539m
param *.uav[7].startX 312m
param *.uav[7].startY 1262m
param *.uav[7].startZ 540m
param *.uav[8].startX 2185m
param *.uav[8].startY 3026m
param *.uav[8].startZ 778m
param *.uav[9].startX 3537m
param *.uav[9].startY 965m
param *.uav[9].startZ 539m
param *.uav[10].startX 3537m
param *.uav[10].startY 965m
param *.uav[10].startZ 539m
param *.uav[11].startX 312m
param *.uav[11].startY 1262m
param *.uav[11].startZ 540m
param *.uav[12].startX 2185m
param *.uav[12].startY 3026m
param *.uav[12].startZ 778m
param *.uav[13].startX 3537m
param *.uav[13].startY 965m
param *.uav[13].startZ 539m
param *.uav[14].startX 312m
param *.uav[14].startY 1262m
param *.uav[14].startZ 540m
param *.uav[15].startX 2185m
param *.uav[15].startY 3026m
param *.uav[15].startZ 778m
param *.uav[16].startX 3537m
param *.uav[16].startY 965m
param *.uav[16].startZ 539m
param *.uav[17].startX 312m
param *.uav[17].startY 1262m
param *.uav[17].startZ 540m
param *.uav[18].startX 2185m
param *.uav[18].startY 3026m
param *.uav[18].startZ 778m
param *.uav[19].startX 3537m
param *.uav[19].startY 965m
param *.uav[19].startZ 539m
param *.uav[20].startX 3537m
param *.uav[20].startY 965m
param *.uav[20].startZ 539m
param *.uav[21].startX 312m
param *.uav[21].startY 1262m
param *.uav[21].startZ 540m
param *.uav[22].startX 2185m
param *.uav[22].startY 3026m
param *.uav[22].startZ 778m
param *.uav[23].startX 3537m
param *.uav[23].startY 965m
param *.uav[23].startZ 539m
param *.uav[24].startX 312m
param *.uav[24].startY 1262m
param *.uav[24].startZ 540m
param *.uav[25].startX 2185m
param *.uav[25].startY 3026m
param *.uav[25].startZ 778m
param *.uav[26].startX 3537m
param *.uav[26].startY 965m
param *.uav[26].startZ 539m
param *.uav[27].startX 312m
param *.uav[27].startY 1262m
param *.uav[27].startZ 540m
param *.uav[28].startX 2185m
param *.uav[28].startY 3026m
param *.uav[28].startZ 778m
param *.uav[29].startX 3537m
param *.uav[29].startY 965m
param *.uav[29].startZ 539m
param *.uav[30].startX 3537m
param *.uav[30].startY 965m
param *.uav[30].startZ 539m
param *.uav[31].startX 312m
param *.uav[31].startY 1262m
param *.uav[31].startZ 540m
param *.uav[32].startX 2185m
param *.uav[32].startY 3026m
param *.uav[32].startZ 778m
param *.uav[33].startX 3537m
param *.uav[33].startY 965m
param *.uav[33].startZ 539m
param *.uav[34].startX 312m
param *.uav[34].startY 1262m
param *.uav[34].startZ 540m
param *.uav[35].startX 2185m
param *.uav[35].startY 3026m
param *.uav[35].startZ 778m
param *.uav[36].startX 3537m
param *.uav[36].startY 965m
param *.uav[36].startZ 539m
param *.uav[37].startX 312m
param *.uav[37].startY 1262m
param *.uav[37].startZ 540m
param *.uav[38].startX 2185m
param *.uav[38].startY 3026m
param *.uav[38].startZ 778m
param *.uav[39].startX 3537m
param *.uav[39].startY 965m
param *.uav[39].startZ 539m
param *.uav[40].startX 3537m
param *.uav[40].startY 965m
param *.uav[40].startZ 539m
param *.uav[41].startX 312m
param *.uav[41].startY 1262m
param *.uav[41].startZ 540m
param *.uav[42].startX 2185m
param *.uav[42].startY 3026m
param *.uav[42].startZ 778m
param *.uav[43].startX 3537m
param *.uav[43].startY 965m
param *.uav[43].startZ 539m
param *.uav[44].startX 312m
param *.uav[44].startY 1262m
param *.uav[44].startZ 540m
param *.uav[45].startX 2185m
param *.uav[45].startY 3026m
param *.uav[45].startZ 778m
param *.uav[46].startX 3537m
param *.uav[46].startY 965m
param *.uav[46].startZ 539m
param *.uav[47].startX 312m
param *.uav[47].startY 1262m
param *.uav[47].startZ 540m
param *.uav[48].startX 2185m
param *.uav[48].startY 3026m
param *.uav[48].startZ 778m
param *.uav[49].startX 3537m
param *.uav[49].startY 965m
param *.uav[49].startZ 539m
param *.uav[50].startX 3537m
param *.uav[50].startY 965m
param *.uav[50].startZ 539m
param *.uav[51].startX 312m
param *.uav[51].startY 1262m
param *.uav[51].startZ 540m
param *.uav[52].startX 2185m
param *.uav[52].startY 3026m
param *.uav[52].startZ 778m
param *.uav[53].startX 3537m
param *.uav[53].startY 965m
param *.uav[53].startZ 539m
param *.uav[54].startX 312m
param *.uav[54].startY 1262m
param *.uav[54].startZ 540m
param *.uav[55].startX 2185m
param *.uav[55].startY 3026m
param *.uav[55].startZ 778m
param *.uav[56].startX 3537m
param *.uav[56].startY 965m
param *.uav[56].startZ 539m
param *.uav[57].startX 312m
param *.uav[57].startY 1262m
param *.uav[57].startZ 540m
param *.uav[58].startX 2185m
param *.uav[58].startY 3026m
param *.uav[58].startZ 778m
param *.uav[59].startX 3537m
param *.uav[59].startY 965m
param *.uav[59].startZ 539m
param *.uav[60].startX 3537m
param *.uav[60].startY 965m
param *.uav[60].startZ 539m
param *.uav[61].startX 312m
param *.uav[61].startY 1262m
param *.uav[61].startZ 540m
param *.uav[62].startX 2185m
param *.uav[62].startY 3026m
param *.uav[62].startZ 778m
param *.uav[63].startX 3537m
param *.uav[63].startY 965m
param *.uav[63].startZ 539m
param *.uav[64].startX 312m
param *.uav[64].startY 1262m
param *.uav[64].startZ 540m
param *.uav[65].startX 2185m
param *.uav[65].startY 3026m
param *.uav[65].startZ 778m
param *.uav[66].startX 3537m
param *.uav[66].startY 965m
param *.uav[66].startZ 539m
param *.uav[67].startX 312m
param *.uav[67].startY 1262m
param *.uav[67].startZ 540m
param *.uav[68].startX 2185m
param *.uav[68].startY 3026m
param *.uav[68].startZ 778m
param *.uav[69].startX 3537m
param *.uav[69].startY 965m
param *.uav[69].startZ 539m
param *.uav[70].startX 3537m
param *.uav[70].startY 965m
param *.uav[70].startZ 539m
param *.uav[71].startX 312m
param *.uav[71].startY 1262m
param *.uav[71].startZ 540m
param *.uav[72].startX 2185m
param *.uav[72].startY 3026m
param *.uav[72].startZ 778m
param *.uav[73].startX 3537m
param *.uav[73].startY 965m
param *.uav[73].startZ 539m
param *.uav[74].startX 312m
param *.uav[74].startY 1262m
param *.uav[74].startZ 540m
param *.uav[75].startX 2185m
param *.uav[75].startY 3026m
param *.uav[75].startZ 778m
param *.uav[76].startX 3537m
param *.uav[76].startY 965m
param *.uav[76].startZ 539m
param *.uav[77].startX 312m
param *.uav[77].startY 1262m
param *.uav[77].startZ 540m
param *.uav[78].startX 2185m
param *.uav[78].startY 3026m
param *.uav[78].startZ 778m
param *.uav[79].startX 3537m
param *.uav[79].startY 965m
param *.uav[79].startZ 539m
param *.uav[80].startX 3537m
param *.uav[80].startY 965m
param *.uav[80].startZ 539m
param *.uav[81].startX 312m
param *.uav[81].startY 1262m
param *.uav[81].startZ 540m
param *.uav[82].startX 2185m
param *.uav[82].startY 3026m
param *.uav[82].startZ 778m
param *.uav[83].startX 3537m
param *.uav[83].startY 965m
param *.uav[83].startZ 539m
param *.uav[84].startX 312m
param *.uav[84].startY 1262m
param *.uav[84].startZ 540m
param *.uav[85].startX 2185m
param *.uav[85].startY 3026m
param *.uav[85].startZ 778m
param *.uav[86].startX 3537m
param *.uav[86].startY 965m
param *.uav[86].startZ 539m
param *.uav[87].startX 312m
param *.uav[87].startY 1262m
param *.uav[87].startZ 540m
param *.uav[88].startX 2185m
param *.uav[88].startY 3026m
param *.uav[88].startZ 778m
param *.uav[89].startX 3537m
param *.uav[89].startY 965m
param *.uav[89].startZ 539m
param *.uav[90].startX 3537m
param *.uav[90].startY 965m
param *.uav[90].startZ 539m
param *.uav[91].startX 312m
param *.uav[91].startY 1262m
param *.uav[91].startZ 540m
param *.uav[92].startX 2185m
param *.uav[92].startY 3026m
param *.uav[92].startZ 778m
param *.uav[93].startX 3537m
param *.uav[93].startY 965m
param *.uav[93].startZ 539m
param *.uav[94].startX 312m
param *.uav[94].startY 1262m
param *.uav[94].startZ 540m
param *.uav[95].startX 2185m
param *.uav[95].startY 3026m
param *.uav[95].startZ 778m
param *.uav[96].startX 3537m
param *.uav[96].startY 965m
param *.uav[96].startZ 539m
param *.uav[97].startX 312m
param *.uav[97].startY 1262m
param *.uav[97].startZ 540m
param *.uav[98].startX 2185m
param *.uav[98].startY 3026m
param *.uav[98].startZ 778m
param *.uav[99].startX 3537m
param *.uav[99].startY 965m
param *.uav[99].startZ 539m
param *.osgEarthScene.scene "\"boston.earth\""
param *.playgroundLatitude 42.3558
param *.playgroundLongitude -71.0677
param *.playgroundWidth 400m
param *.playgroundHeight 200m
param *.channelController.connectionColor "\"#0000FF40\""
param *.channelController.showConnections false
param *.uav[*].modelURL "\"quadrocopter.small.obj.15.scale.0,0,90.rot\""
param *.uav[*].labelColor "\"#FF7C00CC\""
param *.uav[*].label2Color "\"#FF7C00EE\""
param *.uav[*].batteryCapacity 5200mAh
param *.uav[*].batteryRemaining uav[index].batteryCapacity
param *.uav[*].predictionQuantile 0.95
param *.uav[*].replacementMethod 2
param *.uav[*].weightedSumWeight 0.5
param *.cs[*].modelURL "\"chargingstation_v1.osgt.2.scale.0,0,0.rot.0,0,-15e-1.trans\""
param *.cs[*].spotsWaiting 999
param *.cs[*].spotsCharging 999
param *.cs[*].chargeEffectivenessPercentage 100
param *.cs[*].nonLinearPhaseStartPercentage 85
param *.cs[*].chargeCurrent 6.0A
param *.cs[*].prioritizeFastCharge true
param *.missionControl.replacementSearchMethod 0
param *.*.timeStep 9s

scalar OsgEarthNet.uav[0] utilizationSecMission 29001.510785196
scalar OsgEarthNet.uav[0] utilizationSecMaintenance 18198.610225149
scalar OsgEarthNet.uav[0] utilizationSecCharge 173357.86598966
scalar OsgEarthNet.uav[0] utilizationSecIdle 38642.012
scalar OsgEarthNet.uav[0] utilizationEnergyMission 140862.86855316
scalar OsgEarthNet.uav[0] utilizationEnergyMaintenance 86258.20702362
scalar OsgEarthNet.uav[0] utilizationEnergyCharge 223754.46166992
scalar OsgEarthNet.uav[0] utilizationEnergyOverdrawMission 0
scalar OsgEarthNet.uav[0] utilizationEnergyOverdrawMaintenance 0
scalar OsgEarthNet.uav[0] utilizationCountMissions 50
scalar OsgEarthNet.uav[0] utilizationCountManeuversMission 977
scalar OsgEarthNet.uav[0] utilizationCountManeuversMaintenance 100
scalar OsgEarthNet.uav[0] utilizationCountChargeState 50
scalar OsgEarthNet.uav[0] utilizationCountOverdrawnAfterMission 0
scalar OsgEarthNet.uav[0] utilizationCountIdleState 50
scalar OsgEarthNet.uav[0] utilizationFail 0
scalar OsgEarthNet.uav[0] simulationTime 259200
scalar OsgEarthNet.uav[1] utilizationSecMission 29086.775201902
scalar OsgEarthNet.uav[1] utilizationSecMaintenance 18549.394397359
scalar OsgEarthNet.uav[1] utilizationSecCharge 182705.47579786
scalar OsgEarthNet.uav[1] utilizationSecIdle 28858.353602879
scalar OsgEarthNet.uav[1] utilizationEnergyMission 141003.80939484
scalar OsgEarthNet.uav[1] utilizationEnergyMaintenance 88172.706932068
scalar OsgEarthNet.uav[1] utilizationEnergyCharge 228287.79052734
scalar OsgEarthNet.uav[1] utilizationEnergyOverdrawMission 0
scalar OsgEarthNet.uav[1] utilizationEnergyOverdrawMaintenance 0
scalar OsgEarthNet.uav[1] utilizationCountMissions 57
scalar OsgEarthNet.uav[1] utilizationCountManeuversMission 960
scalar OsgEarthNet.uav[1] utilizationCountManeuversMaintenance 114
scalar OsgEarthNet.uav[1] utilizationCountChargeState 57
scalar OsgEarthNet.uav[1] utilizationCountOverdrawnAfterMission 0
scalar OsgEarthNet.uav[1] utilizationCountIdleState 55
scalar OsgEarthNet.uav[1] utilizationFail 0
scalar OsgEarthNet.uav[1] simulationTime 259200
scalar OsgEarthNet.uav[2] utilizationSecMission 33786.742146657
scalar OsgEarthNet.uav[2] utilizationSecMaintenance 14235.321265228
scalar OsgEarthNet.uav[2] utilizationSecCharge 177730
scalar OsgEarthNet.uav[2] utilizationSecIdle 33447.935588115
scalar OsgEarthNet.uav[2] utilizationEnergyMission 163907.31906891
scalar OsgEarthNet.uav[2] utilizationEnergyMaintenance 65559.981971741
scalar OsgEarthNet.uav[2] utilizationEnergyCharge 230261.21386719
scalar OsgEarthNet.uav[2] utilizationEnergyOverdrawMission 0
scalar OsgEarthNet.uav[2] utilizationEnergyOverdrawMaintenance 0
scalar OsgEarthNet.uav[2] utilizationCountMissions 50
scalar OsgEarthNet.uav[2] utilizationCountManeuversMission 1203
scalar OsgEarthNet.uav[2] utilizationCountManeuversMaintenance 100
scalar OsgEarthNet.uav[2] utilizationCountChargeState 50
scalar OsgEarthNet.uav[2] utilizationCountOverdrawnAfterMission 0
scalar OsgEarthNet.uav[2] utilizationCountIdleState 51
scalar OsgEarthNet.uav[2] utilizationFail 0
scalar OsgEarthNet.uav[2] simulationTime 259200
scalar OsgEarthNet.uav[3] utilizationSecMission 28960.369555114
scalar OsgEarthNet.uav[3] utilizationSecMaintenance 19249.16855114
scalar OsgEarthNet.uav[3] utilizationSecCharge 180238.46089375
scalar OsgEarthNet.uav[3] utilizationSecIdle 30752
scalar OsgEarthNet.uav[3] utilizationEnergyMission 142987.33043289
scalar OsgEarthNet.uav[3] utilizationEnergyMaintenance 91448.572017669
scalar OsgEarthNet.uav[3] utilizationEnergyCharge 232567.17749023
scalar OsgEarthNet.uav[3] utilizationEnergyOverdrawMission 0
scalar OsgEarthNet.uav[3] utilizationEnergyOverdrawMaintenance 0
scalar OsgEarthNet.uav[3] utilizationCountMissions 52
scalar OsgEarthNet.uav[3] utilizationCountManeuversMission 1010
scalar OsgEarthNet.uav[3] utilizationCountManeuversMaintenance 104
scalar OsgEarthNet.uav[3] utilizationCountChargeState 52
scalar OsgEarthNet.uav[3] utilizationCountOverdrawnAfterMission 0
scalar OsgEarthNet.uav[3] utilizationCountIdleState 52
scalar OsgEarthNet.uav[3] utilizationFail 0
scalar OsgEarthNet.uav[3] simulationTime 259200
scalar OsgEarthNet.uav[4] utilizationSecMission 31315.531485841
scalar OsgEarthNet.uav[4] utilizationSecMaintenance 17206.916469129
scalar OsgEarthNet.uav[4] utilizationSecCharge 185365.54953831
scalar OsgEarthNet.uav[4] utilizationSecIdle 25312.001506722
scalar OsgEarthNet.uav[4] utilizationEnergyMission 150295.3215065
scalar OsgEarthNet.uav[4] utilizationEnergyMaintenance 82063.649253845
scalar OsgEarthNet.uav[4] utilizationEnergyCharge 233071.95385742
scalar OsgEarthNet.uav[4] utilizationEnergyOverdrawMission 0
scalar OsgEarthNet.uav[4] utilizationEnergyOverdrawMaintenance 0
scalar OsgEarthNet.uav[4] utilizationCountMissions 57
scalar OsgEarthNet.uav[4] utilizationCountManeuversMission 877
scalar OsgEarthNet.uav[4] utilizationCountManeuversMaintenance 114
scalar OsgEarthNet.uav[4] utilizationCountChargeState 57
scalar OsgEarthNet.uav[4] utilizationCountOverdrawnAfterMission 0
scalar OsgEarthNet.uav[4] utilizationCountIdleState 57
scalar OsgEarthNet.uav[4] utilizationFail 0
scalar OsgEarthNet.uav[4] simulationTime 259200
scalar OsgEarthNet.uav[5] utilizationSecMission 35014.308286238
scalar OsgEarthNet.uav[5] utilizationSecMaintenance 14333.690713762
scalar OsgEarthNet.uav[5] utilizationSecCharge 180580
scalar OsgEarthNet.uav[5] utilizationSecIdle 29272
scalar OsgEarthNet.uav[5] utilizationEnergyMission 171500.2178195
scalar OsgEarthNet.uav[5] utilizationEnergyMaintenance 65578.038131714
scalar OsgEarthNet.uav[5] utilizationEnergyCharge 234753.22460938
scalar OsgEarthNet.uav[5] utilizationEnergyOverdrawMission 0
scalar OsgEarthNet.uav[5] utilizationEnergyOverdrawMaintenance 0
scalar OsgEarthNet.uav[5] utilizationCountMissions 51
scalar OsgEarthNet.uav[5] utilizationCountManeuversMission 1197
scalar OsgEarthNet.uav[5] utilizationCountManeuversMaintenance 102
scalar OsgEarthNet.uav[5] utilizationCountChargeState 51
scalar OsgEarthNet.uav[5] utilizationCountOverdrawnAfterMission 0
scalar OsgEarthNet.uav[5] utilizationCountIdleState 51
scalar OsgEarthNet.uav[5] utilizationFail 0
scalar OsgEarthNet.uav[5] simulationTime 259200
scalar OsgEarthNet.uav[6] utilizationSecMission 29572.503051606
scalar OsgEarthNet.uav[6] utilizationSecMaintenance 18258.010240299
scalar OsgEarthNet.uav[6] utilizationSecCharge 176157.4817081
scalar OsgEarthNet.uav[6] utilizationSecIdle 35212.004
scalar OsgEarthNet.uav[6] utilizationEnergyMission 143889.69413376
scalar OsgEarthNet.uav[6] utilizationEnergyMaintenance 86679.596683502
scalar OsgEarthNet.uav[6] utilizationEnergyCharge 226949.99682617
scalar OsgEarthNet.uav[6] utilizationEnergyOverdrawMission 0
scalar OsgEarthNet.uav[6] utilizationEnergyOverdrawMaintenance 0
scalar OsgEarthNet.uav[6] utilizationCountMissions 51
scalar OsgEarthNet.uav[6] utilizationCountManeuversMission 958
scalar OsgEarthNet.uav[6] utilizationCountManeuversMaintenance 102
scalar OsgEarthNet.uav[6] utilizationCountChargeState 51
scalar OsgEarthNet.uav[6] utilizationCountOverdrawnAfterMission 0
scalar OsgEarthNet.uav[6] utilizationCountIdleState 51
scalar OsgEarthNet.uav[6] utilizationFail 0
scalar OsgEarthNet.uav[6] simulationTime 259200
scalar OsgEarthNet.uav[7] utilizationSecMission 30262.322102639
scalar OsgEarthNet.uav[7] utilizationSecMaintenance 17280.523894539
scalar OsgEarthNet.uav[7] utilizationSecCharge 181415.14800282
scalar OsgEarthNet.uav[7] utilizationSecIdle 30242.005
scalar OsgEarthNet.uav[7] utilizationEnergyMission 144519.80920792
scalar OsgEarthNet.uav[7] utilizationEnergyMaintenance 82789.637546539
scalar OsgEarthNet.uav[7] utilizationEnergyCharge 222875.99121094
scalar OsgEarthNet.uav[7] utilizationEnergyOverdrawMission 0
scalar OsgEarthNet.uav[7] utilizationEnergyOverdrawMaintenance 0
scalar OsgEarthNet.uav[7] utilizationCountMissions 59
scalar OsgEarthNet.uav[7] utilizationCountManeuversMission 716
scalar OsgEarthNet.uav[7] utilizationCountManeuversMaintenance 118
scalar OsgEarthNet.uav[7] utilizationCountChargeState 59
scalar OsgEarthNet.uav[7] utilizationCountOverdrawnAfterMission 0
scalar OsgEarthNet.uav[7] utilizationCountIdleState 56
scalar OsgEarthNet.uav[7] utilizationFail 0
scalar OsgEarthNet.uav[7] simulationTime 259200
scalar OsgEarthNet.uav[8] utilizationSecMission 35300.309742669
scalar OsgEarthNet.uav[8] utilizationSecMaintenance 14134.086717636
scalar OsgEarthNet.uav[8] utilizationSecCharge 179323.6015397
scalar OsgEarthNet.uav[8] utilizationSecIdle 30442.001
scalar OsgEarthNet.uav[8] utilizationEnergyMission 173121.4611702
scalar OsgEarthNet.uav[8] utilizationEnergyMaintenance 64510.064834595
scalar OsgEarthNet.uav[8] utilizationEnergyCharge 233239.89916992
scalar OsgEarthNet.uav[8] utilizationEnergyOverdrawMission 0
scalar OsgEarthNet.uav[8] utilizationEnergyOverdrawMaintenance 0
scalar OsgEarthNet.uav[8] utilizationCountMissions 51
scalar OsgEarthNet.uav[8] utilizationCountManeuversMission 1069
scalar OsgEarthNet.uav[8] utilizationCountManeuversMaintenance 102
scalar OsgEarthNet.uav[8] utilizationCountChargeState 51
scalar OsgEarthNet.uav[8] utilizationCountOverdrawnAfterMission 0
scalar OsgEarthNet.uav[8] utilizationCountIdleState 50
scalar OsgEarthNet.uav[8] utilizationFail 0
scalar OsgEarthNet.uav[8] simulationTime 259200
scalar OsgEarthNet.uav[9] utilizationSecMission 28239.744402534
scalar OsgEarthNet.uav[9] utilizationSecMaintenance 19570.206335025
scalar OsgEarthNet.uav[9] utilizationSecCharge 178338.85167417
scalar OsgEarthNet.uav[9] utilizationSecIdle 33051.196588268
scalar OsgEarthNet.uav[9] utilizationEnergyMission 138089.13480759
scalar OsgEarthNet.uav[9] utilizationEnergyMaintenance 93613.454837799
scalar OsgEarthNet.uav[9] utilizationEnergyCharge 230712.38793945
scalar OsgEarthNet.uav[9] utilizationEnergyOverdrawMission 0
scalar OsgEarthNet.uav[9] utilizationEnergyOverdrawMaintenance 0
scalar OsgEarthNet.uav[9] utilizationCountMissions 51
scalar OsgEarthNet.uav[9] utilizationCountManeuversMission 1000
scalar OsgEarthNet.uav[9] utilizationCountManeuversMaintenance 102
scalar OsgEarthNet.uav[9] utilizationCountChargeState 51
scalar OsgEarthNet.uav[9] utilizationCountOverdrawnAfterMission 0
scalar OsgEarthNet.uav[9] utilizationCountIdleState 51
scalar OsgEarthNet.uav[9] utilizationFail 0
scalar OsgEarthNet.uav[9] simulationTime 259200
scalar OsgEarthNet.uav[10] utilizationSecMission 32474.294909911
scalar OsgEarthNet.uav[10] utilizationSecMaintenance 16400.44501375
scalar OsgEarthNet.uav[10] utilizationSecCharge 182564.31082067
scalar OsgEarthNet.uav[10] utilizationSecIdle 27760.948255665
scalar OsgEarthNet.uav[10] utilizationEnergyMission 156204.17357254
scalar OsgEarthNet.uav[10] utilizationEnergyMaintenance 77769.954257965
scalar OsgEarthNet.uav[10] utilizationEnergyCharge 231794.63354492
scalar OsgEarthNet.uav[10] utilizationEnergyOverdrawMission 0
scalar OsgEarthNet.uav[10] utilizationEnergyOverdrawMaintenance 0
scalar OsgEarthNet.uav[10] utilizationCountMissions 55
scalar OsgEarthNet.uav[10] utilizationCountManeuversMission 911
scalar OsgEarthNet.uav[10] utilizationCountManeuversMaintenance 110
scalar OsgEarthNet.uav[10] utilizationCountChargeState 55
scalar OsgEarthNet.uav[10] utilizationCountOverdrawnAfterMission 0
scalar OsgEarthNet.uav[10] utilizationCountIdleState 54
scalar OsgEarthNet.uav[10] utilizationFail 0
scalar OsgEarthNet.uav[10] simulationTime 259200
scalar OsgEarthNet.uav[11] utilizationSecMission 32421.186471816
scalar OsgEarthNet.uav[11] utilizationSecMaintenance 16519.753252267
scalar OsgEarthNet.uav[11] utilizationSecCharge 183497.05627592
scalar OsgEarthNet.uav[11] utilizationSecIdle 26762.003
scalar OsgEarthNet.uav[11] utilizationEnergyMission 154753.85903549
scalar OsgEarthNet.uav[11] utilizationEnergyMaintenance 78895.545806885
scalar OsgEarthNet.uav[11] utilizationEnergyCharge 232073.46557617
scalar OsgEarthNet.uav[11] utilizationEnergyOverdrawMission 0
scalar OsgEarthNet.uav[11] utilizationEnergyOverdrawMaintenance 0
scalar OsgEarthNet.uav[11] utilizationCountMissions 56
scalar OsgEarthNet.uav[11] utilizationCountManeuversMission 897
scalar OsgEarthNet.uav[11] utilizationCountManeuversMaintenance 112
scalar OsgEarthNet.uav[11] utilizationCountChargeState 56
scalar OsgEarthNet.uav[11] utilizationCountOverdrawnAfterMission 0
scalar OsgEarthNet.uav[11] utilizationCountIdleState 54
scalar OsgEarthNet.uav[11] utilizationFail 0
scalar OsgEarthNet.uav[11] simulationTime 259200
scalar OsgEarthNet.uav[12] utilizationSecMission 35064.123759247
scalar OsgEarthNet.uav[12] utilizationSecMaintenance 14743.875240753
scalar OsgEarthNet.uav[12] utilizationSecCharge 181330
scalar OsgEarthNet.uav[12] utilizationSecIdle 28062
scalar OsgEarthNet.uav[12] utilizationEnergyMission 170966.05328655
scalar OsgEarthNet.uav[12] utilizationEnergyMaintenance 68428.175998688
scalar OsgEarthNet.uav[12] utilizationEnergyCharge 235906.31689453
scalar OsgEarthNet.uav[12] utilizationEnergyOverdrawMission 0
scalar OsgEarthNet.uav[12] utilizationEnergyOverdrawMaintenance 14.319425582886
scalar OsgEarthNet.uav[12] utilizationCountMissions 51
scalar OsgEarthNet.uav[12] utilizationCountManeuversMission 1104
scalar OsgEarthNet.uav[12] utilizationCountManeuversMaintenance 102
scalar OsgEarthNet.uav[12] utilizationCountChargeState 51
scalar OsgEarthNet.uav[12] utilizationCountOverdrawnAfterMission 1
scalar OsgEarthNet.uav[12] utilizationCountIdleState 51
scalar OsgEarthNet.uav[12] utilizationFail 0
scalar OsgEarthNet.uav[12] simulationTime 259200
scalar OsgEarthNet.uav[13] utilizationSecMission 29633.128204186
scalar OsgEarthNet.uav[13] utilizationSecMaintenance 17556.332996736
scalar OsgEarthNet.uav[13] utilizationSecCharge 175858.52979908
scalar OsgEarthNet.uav[13] utilizationSecIdle 36152.008
scalar OsgEarthNet.uav[13] utilizationEnergyMission 146070.98014832
scalar OsgEarthNet.uav[13] utilizationEnergyMaintenance 83575.226585388
scalar OsgEarthNet.uav[13] utilizationEnergyCharge 226686.76611328
scalar OsgEarthNet.uav[13] utilizationEnergyOverdrawMission 0
scalar OsgEarthNet.uav[13] utilizationEnergyOverdrawMaintenance 0
scalar OsgEarthNet.uav[13] utilizationCountMissions 50
scalar OsgEarthNet.uav[13] utilizationCountManeuversMission 935
scalar OsgEarthNet.uav[13] utilizationCountManeuversMaintenance 100
scalar OsgEarthNet.uav[13] utilizationCountChargeState 50
scalar OsgEarthNet.uav[13] utilizationCountOverdrawnAfterMission 0
scalar OsgEarthNet.uav[13] utilizationCountIdleState 50
scalar OsgEarthNet.uav[13] utilizationFail 0
scalar OsgEarthNet.uav[13] simulationTime 259200
scalar OsgEarthNet.uav[14] utilizationSecMission 31771.812818842
scalar OsgEarthNet.uav[14] utilizationSecMaintenance 16663.480482121
scalar OsgEarthNet.uav[14] utilizationSecCharge 185130
scalar OsgEarthNet.uav[14] utilizationSecIdle 25634.705699036
scalar OsgEarthNet.uav[14] utilizationEnergyMission 152761.80990601
scalar OsgEarthNet.uav[14] utilizationEnergyMaintenance 79253.681564018
scalar OsgEarthNet.uav[14] utilizationEnergyCharge 232959.06665039
scalar OsgEarthNet.uav[14] utilizationEnergyOverdrawMission 0
scalar OsgEarthNet.uav[14] utilizationEnergyOverdrawMaintenance 0
scalar OsgEarthNet.uav[14] utilizationCountMissions 56
scalar OsgEarthNet.uav[14] utilizationCountManeuversMission 818
scalar OsgEarthNet.uav[14] utilizationCountManeuversMaintenance 113
scalar OsgEarthNet.uav[14] utilizationCountChargeState 56
scalar OsgEarthNet.uav[14] utilizationCountOverdrawnAfterMission 0
scalar OsgEarthNet.uav[14] utilizationCountIdleState 55
scalar OsgEarthNet.uav[14] utilizationFail 0
scalar OsgEarthNet.uav[14] simulationTime 259200
scalar OsgEarthNet.uav[15] utilizationSecMission 34616.358829761
scalar OsgEarthNet.uav[15] utilizationSecMaintenance 15047.61791307
scalar OsgEarthNet.uav[15] utilizationSecCharge 183074.02225717
scalar OsgEarthNet.uav[15] utilizationSecIdle 26462
scalar OsgEarthNet.uav[15] utilizationEnergyMission 170903.27062607
scalar OsgEarthNet.uav[15] utilizationEnergyMaintenance 67696.933883667
scalar OsgEarthNet.uav[15] utilizationEnergyCharge 237980.62939453
scalar OsgEarthNet.uav[15] utilizationEnergyOverdrawMission 0
scalar OsgEarthNet.uav[15] utilizationEnergyOverdrawMaintenance 0
scalar OsgEarthNet.uav[15] utilizationCountMissions 52
scalar OsgEarthNet.uav[15] utilizationCountManeuversMission 1301
scalar OsgEarthNet.uav[15] utilizationCountManeuversMaintenance 104
scalar OsgEarthNet.uav[15] utilizationCountChargeState 52
scalar OsgEarthNet.uav[15] utilizationCountOverdrawnAfterMission 0
scalar OsgEarthNet.uav[15] utilizationCountIdleState 51
scalar OsgEarthNet.uav[15] utilizationFail 0
scalar OsgEarthNet.uav[15] simulationTime 259200
scalar OsgEarthNet.uav[16] utilizationSecMission 31124.25903344
scalar OsgEarthNet.uav[16] utilizationSecMaintenance 17208.717781779
scalar OsgEarthNet.uav[16] utilizationSecCharge 183005.02218478
scalar OsgEarthNet.uav[16] utilizationSecIdle 27862
scalar OsgEarthNet.uav[16] utilizationEnergyMission 146603.22519684
scalar OsgEarthNet.uav[16] utilizationEnergyMaintenance 81181.346073151
scalar OsgEarthNet.uav[16] utilizationEnergyCharge 225890.67816162
scalar OsgEarthNet.uav[16] utilizationEnergyOverdrawMission 0
scalar OsgEarthNet.uav[16] utilizationEnergyOverdrawMaintenance 0
scalar OsgEarthNet.uav[16] utilizationCountMissions 59
scalar OsgEarthNet.uav[16] utilizationCountManeuversMission 725
scalar OsgEarthNet.uav[16] utilizationCountManeuversMaintenance 117
scalar OsgEarthNet.uav[16] utilizationCountChargeState 59
scalar OsgEarthNet.uav[16] utilizationCountOverdrawnAfterMission 0
scalar OsgEarthNet.uav[16] utilizationCountIdleState 58
scalar OsgEarthNet.uav[16] utilizationFail 0
scalar OsgEarthNet.uav[16] simulationTime 259200
scalar OsgEarthNet.uav[17] utilizationSecMission 30735.172734795
scalar OsgEarthNet.uav[17] utilizationSecMaintenance 17350.855433026
scalar OsgEarthNet.uav[17] utilizationSecCharge 184651.96683218
scalar OsgEarthNet.uav[17] utilizationSecIdle 26462.004
scalar OsgEarthNet.uav[17] utilizationEnergyMission 147366.74673462
scalar OsgEarthNet.uav[17] utilizationEnergyMaintenance 82556.951091766
scalar OsgEarthNet.uav[17] utilizationEnergyCharge 231663.74829102
scalar OsgEarthNet.uav[17] utilizationEnergyOverdrawMission 0
scalar OsgEarthNet.uav[17] utilizationEnergyOverdrawMaintenance 0
scalar OsgEarthNet.uav[17] utilizationCountMissions 57
scalar OsgEarthNet.uav[17] utilizationCountManeuversMission 853
scalar OsgEarthNet.uav[17] utilizationCountManeuversMaintenance 114
scalar OsgEarthNet.uav[17] utilizationCountChargeState 57
scalar OsgEarthNet.uav[17] utilizationCountOverdrawnAfterMission 0
scalar OsgEarthNet.uav[17] utilizationCountIdleState 56
scalar OsgEarthNet.uav[17] utilizationFail 0
scalar OsgEarthNet.uav[17] simulationTime 259200
scalar OsgEarthNet.uav[18] utilizationSecMission 35422.317894492
scalar OsgEarthNet.uav[18] utilizationSecMaintenance 13829.290735372
scalar OsgEarthNet.uav[18] utilizationSecCharge 179586.9374082
scalar OsgEarthNet.uav[18] utilizationSecIdle 30361.452961934
scalar OsgEarthNet.uav[18] utilizationEnergyMission 172720.04977036
scalar OsgEarthNet.uav[18] utilizationEnergyMaintenance 63909.972183228
scalar OsgEarthNet.uav[18] utilizationEnergyCharge 233431.48242188
scalar OsgEarthNet.uav[18] utilizationEnergyOverdrawMission 0
scalar OsgEarthNet.uav[18] utilizationEnergyOverdrawMaintenance 0
scalar OsgEarthNet.uav[18] utilizationCountMissions 51
scalar OsgEarthNet.uav[18] utilizationCountManeuversMission 1096
scalar OsgEarthNet.uav[18] utilizationCountManeuversMaintenance 102
scalar OsgEarthNet.uav[18] utilizationCountChargeState 51
scalar OsgEarthNet.uav[18] utilizationCountOverdrawnAfterMission 0
scalar OsgEarthNet.uav[18] utilizationCountIdleState 51
scalar OsgEarthNet.uav[18] utilizationFail 0
scalar OsgEarthNet.uav[18] simulationTime 259200
scalar OsgEarthNet.uav[19] utilizationSecMission 28719.744402534
scalar OsgEarthNet.uav[19] utilizationSecMaintenance 19468.245597466
scalar OsgEarthNet.uav[19] utilizationSecCharge 179010
scalar OsgEarthNet.uav[19] utilizationSecIdle 32002.009
scalar OsgEarthNet.uav[19] utilizationEnergyMission 142319.28554535
scalar OsgEarthNet.uav[19] utilizationEnergyMaintenance 92589.88157215
scalar OsgEarthNet.uav[19] utilizationEnergyCharge 230196.21337891
scalar OsgEarthNet.uav[19] utilizationEnergyOverdrawMission 0
scalar OsgEarthNet.uav[19] utilizationEnergyOverdrawMaintenance 0
scalar OsgEarthNet.uav[19] utilizationCountMissions 52
scalar OsgEarthNet.uav[19] utilizationCountManeuversMission 1024
scalar OsgEarthNet.uav[19] utilizationCountManeuversMaintenance 104
scalar OsgEarthNet.uav[19] utilizationCountChargeState 51
scalar OsgEarthNet.uav[19] utilizationCountOverdrawnAfterMission 0
scalar OsgEarthNet.uav[19] utilizationCountIdleState 52
scalar OsgEarthNet.uav[19] utilizationFail 0
scalar OsgEarthNet.uav[19] simulationTime 259200
scalar OsgEarthNet.uav[20] utilizationSecMission 29071.252746445
scalar OsgEarthNet.uav[20] utilizationSecMaintenance 18689.133951757
scalar OsgEarthNet.uav[20] utilizationSecCharge 177987.6073018
scalar OsgEarthNet.uav[20] utilizationSecIdle 33452.005
scalar OsgEarthNet.uav[20] utilizationEnergyMission 140597.44921875
scalar OsgEarthNet.uav[20] utilizationEnergyMaintenance 88774.896133423
scalar OsgEarthNet.uav[20] utilizationEnergyCharge 229874.52880859
scalar OsgEarthNet.uav[20] utilizationEnergyOverdrawMission 0
scalar OsgEarthNet.uav[20] utilizationEnergyOverdrawMaintenance 0
scalar OsgEarthNet.uav[20] utilizationCountMissions 51
scalar OsgEarthNet.uav[20] utilizationCountManeuversMission 985
scalar OsgEarthNet.uav[20] utilizationCountManeuversMaintenance 102
scalar OsgEarthNet.uav[20] utilizationCountChargeState 51
scalar OsgEarthNet.uav[20] utilizationCountOverdrawnAfterMission 0
scalar OsgEarthNet.uav[20] utilizationCountIdleState 51
scalar OsgEarthNet.uav[20] utilizationFail 0
scalar OsgEarthNet.uav[20] simulationTime 259200
scalar OsgEarthNet.uav[21] utilizationSecMission 34658.830034916
scalar OsgEarthNet.uav[21] utilizationSecMaintenance 14450.495875553
scalar OsgEarthNet.uav[21] utilizationSecCharge 178915.22900084
scalar OsgEarthNet.uav[21] utilizationSecIdle 31175.444088691
scalar OsgEarthNet.uav[21] utilizationEnergyMission 169797.08705139
scalar OsgEarthNet.uav[21] utilizationEnergyMaintenance 66031.676010132
scalar OsgEarthNet.uav[21] utilizationEnergyCharge 232256.76049805
scalar OsgEarthNet.uav[21] utilizationEnergyOverdrawMission 0
scalar OsgEarthNet.uav[21] utilizationEnergyOverdrawMaintenance 0
scalar OsgEarthNet.uav[21] utilizationCountMissions 51
scalar OsgEarthNet.uav[21] utilizationCountManeuversMission 1170
scalar OsgEarthNet.uav[21] utilizationCountManeuversMaintenance 102
scalar OsgEarthNet.uav[21] utilizationCountChargeState 51
scalar OsgEarthNet.uav[21] utilizationCountOverdrawnAfterMission 0
scalar OsgEarthNet.uav[21] utilizationCountIdleState 50
scalar OsgEarthNet.uav[21] utilizationFail 0
scalar OsgEarthNet.uav[21] simulationTime 259200
scalar OsgEarthNet.uav[22] utilizationSecMission 34930.261045563
scalar OsgEarthNet.uav[22] utilizationSecMaintenance 14146.212623205
scalar OsgEarthNet.uav[22] utilizationSecCharge 177280
scalar OsgEarthNet.uav[22] utilizationSecIdle 32843.525331232
scalar OsgEarthNet.uav[22] utilizationEnergyMission 170706.22765513
scalar OsgEarthNet.uav[22] utilizationEnergyMaintenance 64689.796653748
scalar OsgEarthNet.uav[22] utilizationEnergyCharge 229324.88867188
scalar OsgEarthNet.uav[22] utilizationEnergyOverdrawMission 0
scalar OsgEarthNet.uav[22] utilizationEnergyOverdrawMaintenance 0
scalar OsgEarthNet.uav[22] utilizationCountMissions 50
scalar OsgEarthNet.uav[22] utilizationCountManeuversMission 1118
scalar OsgEarthNet.uav[22] utilizationCountManeuversMaintenance 101
scalar OsgEarthNet.uav[22] utilizationCountChargeState 50
scalar OsgEarthNet.uav[22] utilizationCountOverdrawnAfterMission 0
scalar OsgEarthNet.uav[22] utilizationCountIdleState 51
scalar OsgEarthNet.uav[22] utilizationFail 0
scalar OsgEarthNet.uav[22] simulationTime 259200
scalar OsgEarthNet.uav[23] utilizationSecMission 34171.637893691
scalar OsgEarthNet.uav[23] utilizationSecMaintenance 15517.479348882
scalar OsgEarthNet.uav[23] utilizationSecCharge 182004.86014623
scalar OsgEarthNet.uav[23] utilizationSecIdle 27506.021611199
scalar OsgEarthNet.uav[23] utilizationEnergyMission 169174.51657104
scalar OsgEarthNet.uav[23] utilizationEnergyMaintenance 71585.102214813
scalar OsgEarthNet.uav[23] utilizationEnergyCharge 236861.50683594
scalar OsgEarthNet.uav[23] utilizationEnergyOverdrawMission 0
scalar OsgEarthNet.uav[23] utilizationEnergyOverdrawMaintenance 0
scalar OsgEarthNet.uav[23] utilizationCountMissions 52
scalar OsgEarthNet.uav[23] utilizationCountManeuversMission 1193
scalar OsgEarthNet.uav[23] utilizationCountManeuversMaintenance 104
scalar OsgEarthNet.uav[23] utilizationCountChargeState 52
scalar OsgEarthNet.uav[23] utilizationCountOverdrawnAfterMission 0
scalar OsgEarthNet.uav[23] utilizationCountIdleState 51
scalar OsgEarthNet.uav[23] utilizationFail 0
scalar OsgEarthNet.uav[23] simulationTime 259200
scalar OsgEarthNet.uav[24] utilizationSecMission 32309.67121528
scalar OsgEarthNet.uav[24] utilizationSecMaintenance 16758.589349188
scalar OsgEarthNet.uav[24] utilizationSecCharge 185469.73843553
scalar OsgEarthNet.uav[24] utilizationSecIdle 24662
scalar OsgEarthNet.uav[24] utilizationEnergyMission 153462.30611801
scalar OsgEarthNet.uav[24] utilizationEnergyMaintenance 80475.62688446
scalar OsgEarthNet.uav[24] utilizationEnergyCharge 233151.62646484
scalar OsgEarthNet.uav[24] utilizationEnergyOverdrawMission 0
scalar OsgEarthNet.uav[24] utilizationEnergyOverdrawMaintenance 0
scalar OsgEarthNet.uav[24] utilizationCountMissions 57
scalar OsgEarthNet.uav[24] utilizationCountManeuversMission 830
scalar OsgEarthNet.uav[24] utilizationCountManeuversMaintenance 114
scalar OsgEarthNet.uav[24] utilizationCountChargeState 57
scalar OsgEarthNet.uav[24] utilizationCountOverdrawnAfterMission 0
scalar OsgEarthNet.uav[24] utilizationCountIdleState 57
scalar OsgEarthNet.uav[24] utilizationFail 0
scalar OsgEarthNet.uav[24] simulationTime 259200
scalar OsgEarthNet.uav[25] utilizationSecMission 34642.006507334
scalar OsgEarthNet.uav[25] utilizationSecMaintenance 14448.174914282
scalar OsgEarthNet.uav[25] utilizationSecCharge 180337.81557838
scalar OsgEarthNet.uav[25] utilizationSecIdle 29772.002
scalar OsgEarthNet.uav[25] utilizationEnergyMission 168933.11039734
scalar OsgEarthNet.uav[25] utilizationEnergyMaintenance 66561.798404694
scalar OsgEarthNet.uav[25] utilizationEnergyCharge 235119.83398438
scalar OsgEarthNet.uav[25] utilizationEnergyOverdrawMission 0
scalar OsgEarthNet.uav[25] utilizationEnergyOverdrawMaintenance 0
scalar OsgEarthNet.uav[25] utilizationCountMissions 51
scalar OsgEarthNet.uav[25] utilizationCountManeuversMission 1186
scalar OsgEarthNet.uav[25] utilizationCountManeuversMaintenance 102
scalar OsgEarthNet.uav[25] utilizationCountChargeState 51
scalar OsgEarthNet.uav[25] utilizationCountOverdrawnAfterMission 0
scalar OsgEarthNet.uav[25] utilizationCountIdleState 50
scalar OsgEarthNet.uav[25] utilizationFail 0
scalar OsgEarthNet.uav[25] simulationTime 259200
scalar OsgEarthNet.uav[26] utilizationSecMission 31284.016229306
scalar OsgEarthNet.uav[26] utilizationSecMaintenance 17222.537147479
scalar OsgEarthNet.uav[26] utilizationSecCharge 183155.30742454
scalar OsgEarthNet.uav[26] utilizationSecIdle 27538.13819868
scalar OsgEarthNet.uav[26] utilizationEnergyMission 148677.59851837
scalar OsgEarthNet.uav[26] utilizationEnergyMaintenance 81276.141838074
scalar OsgEarthNet.uav[26] utilizationEnergyCharge 229495.80932617
scalar OsgEarthNet.uav[26] utilizationEnergyOverdrawMission 0
scalar OsgEarthNet.uav[26] utilizationEnergyOverdrawMaintenance 0
scalar OsgEarthNet.uav[26] utilizationCountMissions 57
scalar OsgEarthNet.uav[26] utilizationCountManeuversMission 814
scalar OsgEarthNet.uav[26] utilizationCountManeuversMaintenance 114
scalar OsgEarthNet.uav[26] utilizationCountChargeState 57
scalar OsgEarthNet.uav[26] utilizationCountOverdrawnAfterMission 0
scalar OsgEarthNet.uav[26] utilizationCountIdleState 56
scalar OsgEarthNet.uav[26] utilizationFail 0
scalar OsgEarthNet.uav[26] simulationTime 259200
scalar OsgEarthNet.uav[27] utilizationSecMission 30443.740159827
scalar OsgEarthNet.uav[27] utilizationSecMaintenance 17238.759209605
scalar OsgEarthNet.uav[27] utilizationSecCharge 182139.69402051
scalar OsgEarthNet.uav[27] utilizationSecIdle 29377.80561006
scalar OsgEarthNet.uav[27] utilizationEnergyMission 148220.17586899
scalar OsgEarthNet.uav[27] utilizationEnergyMaintenance 82335.391246796
scalar OsgEarthNet.uav[27] utilizationEnergyCharge 228690.31298828
scalar OsgEarthNet.uav[27] utilizationEnergyOverdrawMission 0
scalar OsgEarthNet.uav[27] utilizationEnergyOverdrawMaintenance 0
scalar OsgEarthNet.uav[27] utilizationCountMissions 56
scalar OsgEarthNet.uav[27] utilizationCountManeuversMission 922
scalar OsgEarthNet.uav[27] utilizationCountManeuversMaintenance 112
scalar OsgEarthNet.uav[27] utilizationCountChargeState 56
scalar OsgEarthNet.uav[27] utilizationCountOverdrawnAfterMission 0
scalar OsgEarthNet.uav[27] utilizationCountIdleState 55
scalar OsgEarthNet.uav[27] utilizationFail 0
scalar OsgEarthNet.uav[27] simulationTime 259200
scalar OsgEarthNet.uav[28] utilizationSecMission 35123.232736181
scalar OsgEarthNet.uav[28] utilizationSecMaintenance 13944.766263819
scalar OsgEarthNet.uav[28] utilizationSecCharge 180180
scalar OsgEarthNet.uav[28] utilizationSecIdle 29952
scalar OsgEarthNet.uav[28] utilizationEnergyMission 170350.50525224
scalar OsgEarthNet.uav[28] utilizationEnergyMaintenance 63851.257419586
scalar OsgEarthNet.uav[28] utilizationEnergyCharge 233841.99853516
scalar OsgEarthNet.uav[28] utilizationEnergyOverdrawMission 0
scalar OsgEarthNet.uav[28] utilizationEnergyOverdrawMaintenance 0
scalar OsgEarthNet.uav[28] utilizationCountMissions 51
scalar OsgEarthNet.uav[28] utilizationCountManeuversMission 1170
scalar OsgEarthNet.uav[28] utilizationCountManeuversMaintenance 103
scalar OsgEarthNet.uav[28] utilizationCountChargeState 51
scalar OsgEarthNet.uav[28] utilizationCountOverdrawnAfterMission 0
scalar OsgEarthNet.uav[28] utilizationCountIdleState 51
scalar OsgEarthNet.uav[28] utilizationFail 0
scalar OsgEarthNet.uav[28] simulationTime 259200
scalar OsgEarthNet.uav[29] utilizationSecMission 30316.20028189
scalar OsgEarthNet.uav[29] utilizationSecMaintenance 17549.399405295
scalar OsgEarthNet.uav[29] utilizationSecCharge 180240
scalar OsgEarthNet.uav[29] utilizationSecIdle 31094.399312815
scalar OsgEarthNet.uav[29] utilizationEnergyMission 147466.82703073
scalar OsgEarthNet.uav[29] utilizationEnergyMaintenance 82684.908905029
scalar OsgEarthNet.uav[29] utilizationEnergyCharge 225953.18652344
scalar OsgEarthNet.uav[29] utilizationEnergyOverdrawMission 0
scalar OsgEarthNet.uav[29] utilizationEnergyOverdrawMaintenance 0
scalar OsgEarthNet.uav[29] utilizationCountMissions 55
scalar OsgEarthNet.uav[29] utilizationCountManeuversMission 936
scalar OsgEarthNet.uav[29] utilizationCountManeuversMaintenance 111
scalar OsgEarthNet.uav[29] utilizationCountChargeState 55
scalar OsgEarthNet.uav[29] utilizationCountOverdrawnAfterMission 0
scalar OsgEarthNet.uav[29] utilizationCountIdleState 55
scalar OsgEarthNet.uav[29] utilizationFail 0
scalar OsgEarthNet.uav[29] simulationTime 259200
scalar OsgEarthNet.uav[30] utilizationSecMission 30016.659751958
scalar OsgEarthNet.uav[30] utilizationSecMaintenance 17820.890349351
scalar OsgEarthNet.uav[30] utilizationSecCharge 176260
scalar OsgEarthNet.uav[30] utilizationSecIdle 35102.448898691
scalar OsgEarthNet.uav[30] utilizationEnergyMission 143928.97212797
scalar OsgEarthNet.uav[30] utilizationEnergyMaintenance 85080.508964538
scalar OsgEarthNet.uav[30] utilizationEnergyCharge 226911.22021484
scalar OsgEarthNet.uav[30] utilizationEnergyOverdrawMission 0
scalar OsgEarthNet.uav[30] utilizationEnergyOverdrawMaintenance 0
scalar OsgEarthNet.uav[30] utilizationCountMissions 50
scalar OsgEarthNet.uav[30] utilizationCountManeuversMission 936
scalar OsgEarthNet.uav[30] utilizationCountManeuversMaintenance 101
scalar OsgEarthNet.uav[30] utilizationCountChargeState 50
scalar OsgEarthNet.uav[30] utilizationCountOverdrawnAfterMission 0
scalar OsgEarthNet.uav[30] utilizationCountIdleState 51
scalar OsgEarthNet.uav[30] utilizationFail 0
scalar OsgEarthNet.uav[30] simulationTime 259200
scalar OsgEarthNet.uav[31] utilizationSecMission 31258.719994377
scalar OsgEarthNet.uav[31] utilizationSecMaintenance 17182.047809532
scalar OsgEarthNet.uav[31] utilizationSecCharge 185570
scalar OsgEarthNet.uav[31] utilizationSecIdle 25189.23119609
scalar OsgEarthNet.uav[31] utilizationEnergyMission 146461.92348862
scalar OsgEarthNet.uav[31] utilizationEnergyMaintenance 82116.279979706
scalar OsgEarthNet.uav[31] utilizationEnergyCharge 231609.67773438
scalar OsgEarthNet.uav[31] utilizationEnergyOverdrawMission 0
scalar OsgEarthNet.uav[31] utilizationEnergyOverdrawMaintenance 0
scalar OsgEarthNet.uav[31] utilizationCountMissions 57
scalar OsgEarthNet.uav[31] utilizationCountManeuversMission 843
scalar OsgEarthNet.uav[31] utilizationCountManeuversMaintenance 114
scalar OsgEarthNet.uav[31] utilizationCountChargeState 57
scalar OsgEarthNet.uav[31] utilizationCountOverdrawnAfterMission 0
scalar OsgEarthNet.uav[31] utilizationCountIdleState 56
scalar OsgEarthNet.uav[31] utilizationFail 0
scalar OsgEarthNet.uav[31] simulationTime 259200
scalar OsgEarthNet.uav[32] utilizationSecMission 36897.350918559
scalar OsgEarthNet.uav[32] utilizationSecMaintenance 13468.459021877
scalar OsgEarthNet.uav[32] utilizationSecCharge 178254.96944565
scalar OsgEarthNet.uav[32] utilizationSecIdle 30579.219613916
scalar OsgEarthNet.uav[32] utilizationEnergyMission 178831.71073532
scalar OsgEarthNet.uav[32] utilizationEnergyMaintenance 60683.786346436
scalar OsgEarthNet.uav[32] utilizationEnergyCharge 231573.99768066
scalar OsgEarthNet.uav[32] utilizationEnergyOverdrawMission 0
scalar OsgEarthNet.uav[32] utilizationEnergyOverdrawMaintenance 0
scalar OsgEarthNet.uav[32] utilizationCountMissions 51
scalar OsgEarthNet.uav[32] utilizationCountManeuversMission 1050
scalar OsgEarthNet.uav[32] utilizationCountManeuversMaintenance 102
scalar OsgEarthNet.uav[32] utilizationCountChargeState 51
scalar OsgEarthNet.uav[32] utilizationCountOverdrawnAfterMission 0
scalar OsgEarthNet.uav[32] utilizationCountIdleState 50
scalar OsgEarthNet.uav[32] utilizationFail 0
scalar OsgEarthNet.uav[32] simulationTime 259200
scalar OsgEarthNet.uav[33] utilizationSecMission 35962.767138997
scalar OsgEarthNet.uav[33] utilizationSecMaintenance 13425.187036973
scalar OsgEarthNet.uav[33] utilizationSecCharge 180090.04482403
scalar OsgEarthNet.uav[33] utilizationSecIdle 29722
scalar OsgEarthNet.uav[33] utilizationEnergyMission 172765.50421906
scalar OsgEarthNet.uav[33] utilizationEnergyMaintenance 63338.087177277
scalar OsgEarthNet.uav[33] utilizationEnergyCharge 234484.37182617
scalar OsgEarthNet.uav[33] utilizationEnergyOverdrawMission 0
scalar OsgEarthNet.uav[33] utilizationEnergyOverdrawMaintenance 0
scalar OsgEarthNet.uav[33] utilizationCountMissions 51
scalar OsgEarthNet.uav[33] utilizationCountManeuversMission 1111
scalar OsgEarthNet.uav[33] utilizationCountManeuversMaintenance 101
scalar OsgEarthNet.uav[33] utilizationCountChargeState 51
scalar OsgEarthNet.uav[33] utilizationCountOverdrawnAfterMission 0
scalar OsgEarthNet.uav[33] utilizationCountIdleState 50
scalar OsgEarthNet.uav[33] utilizationFail 0
scalar OsgEarthNet.uav[33] simulationTime 259200
scalar OsgEarthNet.uav[34] utilizationSecMission 31187.066703102
scalar OsgEarthNet.uav[34] utilizationSecMaintenance 17345.522704043
scalar OsgEarthNet.uav[34] utilizationSecCharge 186276.44560718
scalar OsgEarthNet.uav[34] utilizationSecIdle 24390.963985674
scalar OsgEarthNet.uav[34] utilizationEnergyMission 149352.32065964
scalar OsgEarthNet.uav[34] utilizationEnergyMaintenance 82386.813346863
scalar OsgEarthNet.uav[34] utilizationEnergyCharge 233138.55444336
scalar OsgEarthNet.uav[34] utilizationEnergyOverdrawMission 0
scalar OsgEarthNet.uav[34] utilizationEnergyOverdrawMaintenance 0
scalar OsgEarthNet.uav[34] utilizationCountMissions 57
scalar OsgEarthNet.uav[34] utilizationCountManeuversMission 853
scalar OsgEarthNet.uav[34] utilizationCountManeuversMaintenance 114
scalar OsgEarthNet.uav[34] utilizationCountChargeState 57
scalar OsgEarthNet.uav[34] utilizationCountOverdrawnAfterMission 0
scalar OsgEarthNet.uav[34] utilizationCountIdleState 56
scalar OsgEarthNet.uav[34] utilizationFail 0
scalar OsgEarthNet.uav[34] simulationTime 259200
scalar OsgEarthNet.uav[35] utilizationSecMission 33676.784857656
scalar OsgEarthNet.uav[35] utilizationSecMaintenance 15689.897570317
scalar OsgEarthNet.uav[35] utilizationSecCharge 180721.31257203
scalar OsgEarthNet.uav[35] utilizationSecIdle 29112.004
scalar OsgEarthNet.uav[35] utilizationEnergyMission 166465.21997833
scalar OsgEarthNet.uav[35] utilizationEnergyMaintenance 71901.157653809
scalar OsgEarthNet.uav[35] utilizationEnergyCharge 233921.28027344
scalar OsgEarthNet.uav[35] utilizationEnergyOverdrawMission 0
scalar OsgEarthNet.uav[35] utilizationEnergyOverdrawMaintenance 0
scalar OsgEarthNet.uav[35] utilizationCountMissions 52
scalar OsgEarthNet.uav[35] utilizationCountManeuversMission 1255
scalar OsgEarthNet.uav[35] utilizationCountManeuversMaintenance 104
scalar OsgEarthNet.uav[35] utilizationCountChargeState 52
scalar OsgEarthNet.uav[35] utilizationCountOverdrawnAfterMission 0
scalar OsgEarthNet.uav[35] utilizationCountIdleState 52
scalar OsgEarthNet.uav[35] utilizationFail 0
scalar OsgEarthNet.uav[35] simulationTime 259200
scalar OsgEarthNet.uav[36] utilizationSecMission 29351.986974105
scalar OsgEarthNet.uav[36] utilizationSecMaintenance 18236.826917846
scalar OsgEarthNet.uav[36] utilizationSecCharge 178290
scalar OsgEarthNet.uav[36] utilizationSecIdle 33321.185108049
scalar OsgEarthNet.uav[36] utilizationEnergyMission 141486.62021255
scalar OsgEarthNet.uav[36] utilizationEnergyMaintenance 86514.106967926
scalar OsgEarthNet.uav[36] utilizationEnergyCharge 228887.70214844
scalar OsgEarthNet.uav[36] utilizationEnergyOverdrawMission 0
scalar OsgEarthNet.uav[36] utilizationEnergyOverdrawMaintenance 0
scalar OsgEarthNet.uav[36] utilizationCountMissions 51
scalar OsgEarthNet.uav[36] utilizationCountManeuversMission 956
scalar OsgEarthNet.uav[36] utilizationCountManeuversMaintenance 102
scalar OsgEarthNet.uav[36] utilizationCountChargeState 51
scalar OsgEarthNet.uav[36] utilizationCountOverdrawnAfterMission 0
scalar OsgEarthNet.uav[36] utilizationCountIdleState 52
scalar OsgEarthNet.uav[36] utilizationFail 0
scalar OsgEarthNet.uav[36] simulationTime 259200
scalar OsgEarthNet.uav[37] utilizationSecMission 32244.374980352
scalar OsgEarthNet.uav[37] utilizationSecMaintenance 16876.910079752
scalar OsgEarthNet.uav[37] utilizationSecCharge 183936.7119399
scalar OsgEarthNet.uav[37] utilizationSecIdle 26142.002
scalar OsgEarthNet.uav[37] utilizationEnergyMission 154490.73208618
scalar OsgEarthNet.uav[37] utilizationEnergyMaintenance 79986.984661102
scalar OsgEarthNet.uav[37] utilizationEnergyCharge 230613.19921875
scalar OsgEarthNet.uav[37] utilizationEnergyOverdrawMission 0
scalar OsgEarthNet.uav[37] utilizationEnergyOverdrawMaintenance 0
scalar OsgEarthNet.uav[37] utilizationCountMissions 57
scalar OsgEarthNet.uav[37] utilizationCountManeuversMission 857
scalar OsgEarthNet.uav[37] utilizationCountManeuversMaintenance 114
scalar OsgEarthNet.uav[37] utilizationCountChargeState 57
scalar OsgEarthNet.uav[37] utilizationCountOverdrawnAfterMission 0
scalar OsgEarthNet.uav[37] utilizationCountIdleState 55
scalar OsgEarthNet.uav[37] utilizationFail 0
scalar OsgEarthNet.uav[37] simulationTime 259200
scalar OsgEarthNet.uav[38] utilizationSecMission 34579.555635912
scalar OsgEarthNet.uav[38] utilizationSecMaintenance 15332.105664479
scalar OsgEarthNet.uav[38] utilizationSecCharge 180846.33569961
scalar OsgEarthNet.uav[38] utilizationSecIdle 28442.002
scalar OsgEarthNet.uav[38] utilizationEnergyMission 169398.43449402
scalar OsgEarthNet.uav[38] utilizationEnergyMaintenance 69450.775539398
scalar OsgEarthNet.uav[38] utilizationEnergyCharge 234479.19958496
scalar OsgEarthNet.uav[38] utilizationEnergyOverdrawMission 0
scalar OsgEarthNet.uav[38] utilizationEnergyOverdrawMaintenance 0
scalar OsgEarthNet.uav[38] utilizationCountMissions 52
scalar OsgEarthNet.uav[38] utilizationCountManeuversMission 1100
scalar OsgEarthNet.uav[38] utilizationCountManeuversMaintenance 104
scalar OsgEarthNet.uav[38] utilizationCountChargeState 52
scalar OsgEarthNet.uav[38] utilizationCountOverdrawnAfterMission 0
scalar OsgEarthNet.uav[38] utilizationCountIdleState 51
scalar OsgEarthNet.uav[38] utilizationFail 0
scalar OsgEarthNet.uav[38] simulationTime 259200
scalar OsgEarthNet.uav[39] utilizationSecMission 33561.69459175
scalar OsgEarthNet.uav[39] utilizationSecMaintenance 15349.612903768
scalar OsgEarthNet.uav[39] utilizationSecCharge 180916.54676453
scalar OsgEarthNet.uav[39] utilizationSecIdle 29372.144739949
scalar OsgEarthNet.uav[39] utilizationEnergyMission 164050.39365387
scalar OsgEarthNet.uav[39] utilizationEnergyMaintenance 70190.624641418
scalar OsgEarthNet.uav[39] utilizationEnergyCharge 234573.74804688
scalar OsgEarthNet.uav[39] utilizationEnergyOverdrawMission 0
scalar OsgEarthNet.uav[39] utilizationEnergyOverdrawMaintenance 0
scalar OsgEarthNet.uav[39] utilizationCountMissions 51
scalar OsgEarthNet.uav[39] utilizationCountManeuversMission 1103
scalar OsgEarthNet.uav[39] utilizationCountManeuversMaintenance 102
scalar OsgEarthNet.uav[39] utilizationCountChargeState 51
scalar OsgEarthNet.uav[39] utilizationCountOverdrawnAfterMission 0
scalar OsgEarthNet.uav[39] utilizationCountIdleState 51
scalar OsgEarthNet.uav[39] utilizationFail 0
scalar OsgEarthNet.uav[39] simulationTime 259200
scalar OsgEarthNet.uav[40] utilizationSecMission 29801.728935354
scalar OsgEarthNet.uav[40] utilizationSecMaintenance 18866.264064646
scalar OsgEarthNet.uav[40] utilizationSecCharge 178310
scalar OsgEarthNet.uav[40] utilizationSecIdle 32222.006
scalar OsgEarthNet.uav[40] utilizationEnergyMission 144827.66553879
scalar OsgEarthNet.uav[40] utilizationEnergyMaintenance 89322.475507429
scalar OsgEarthNet.uav[40] utilizationEnergyCharge 228902.48681641
scalar OsgEarthNet.uav[40] utilizationEnergyOverdrawMission 0
scalar OsgEarthNet.uav[40] utilizationEnergyOverdrawMaintenance 0
scalar OsgEarthNet.uav[40] utilizationCountMissions 52
scalar OsgEarthNet.uav[40] utilizationCountManeuversMission 983
scalar OsgEarthNet.uav[40] utilizationCountManeuversMaintenance 104
scalar OsgEarthNet.uav[40] utilizationCountChargeState 51
scalar OsgEarthNet.uav[40] utilizationCountOverdrawnAfterMission 0
scalar OsgEarthNet.uav[40] utilizationCountIdleState 52
scalar OsgEarthNet.uav[40] utilizationFail 0
scalar OsgEarthNet.uav[40] simulationTime 259200
scalar OsgEarthNet.uav[41] utilizationSecMission 30202.695639278
scalar OsgEarthNet.uav[41] utilizationSecMaintenance 18645.303360722
scalar OsgEarthNet.uav[41] utilizationSecCharge 186290
scalar OsgEarthNet.uav[41] utilizationSecIdle 24062
scalar OsgEarthNet.uav[41] utilizationEnergyMission 147780.88352585
scalar OsgEarthNet.uav[41] utilizationEnergyMaintenance 87860.68251384
scalar OsgEarthNet.uav[41] utilizationEnergyCharge 234707.48999023
scalar OsgEarthNet.uav[41] utilizationEnergyOverdrawMission 0
scalar OsgEarthNet.uav[41] utilizationEnergyOverdrawMaintenance 0
scalar OsgEarthNet.uav[41] utilizationCountMissions 56
scalar OsgEarthNet.uav[41] utilizationCountManeuversMission 1029
scalar OsgEarthNet.uav[41] utilizationCountManeuversMaintenance 112
scalar OsgEarthNet.uav[41] utilizationCountChargeState 56
scalar OsgEarthNet.uav[41] utilizationCountOverdrawnAfterMission 0
scalar OsgEarthNet.uav[41] utilizationCountIdleState 57
scalar OsgEarthNet.uav[41] utilizationFail 0
scalar OsgEarthNet.uav[41] simulationTime 259200
scalar OsgEarthNet.uav[42] utilizationSecMission 35306.944425513
scalar OsgEarthNet.uav[42] utilizationSecMaintenance 14125.649875658
scalar OsgEarthNet.uav[42] utilizationSecCharge 181090
scalar OsgEarthNet.uav[42] utilizationSecIdle 28677.404698829
scalar OsgEarthNet.uav[42] utilizationEnergyMission 169319.21278
scalar OsgEarthNet.uav[42] utilizationEnergyMaintenance 63887.571201324
scalar OsgEarthNet.uav[42] utilizationEnergyCharge 235348.64160156
scalar OsgEarthNet.uav[42] utilizationEnergyOverdrawMission 0
scalar OsgEarthNet.uav[42] utilizationEnergyOverdrawMaintenance 0
scalar OsgEarthNet.uav[42] utilizationCountMissions 51
scalar OsgEarthNet.uav[42] utilizationCountManeuversMission 1028
scalar OsgEarthNet.uav[42] utilizationCountManeuversMaintenance 102
scalar OsgEarthNet.uav[42] utilizationCountChargeState 51
scalar OsgEarthNet.uav[42] utilizationCountOverdrawnAfterMission 0
scalar OsgEarthNet.uav[42] utilizationCountIdleState 51
scalar OsgEarthNet.uav[42] utilizationFail 0
scalar OsgEarthNet.uav[42] simulationTime 259200
scalar OsgEarthNet.uav[43] utilizationSecMission 30474.699623067
scalar OsgEarthNet.uav[43] utilizationSecMaintenance 18697.605733432
scalar OsgEarthNet.uav[43] utilizationSecCharge 180381.1763632
scalar OsgEarthNet.uav[43] utilizationSecIdle 29646.517280303
scalar OsgEarthNet.uav[43] utilizationEnergyMission 147244.73887253
scalar OsgEarthNet.uav[43] utilizationEnergyMaintenance 88667.40083313
scalar OsgEarthNet.uav[43] utilizationEnergyCharge 232398.65551758
scalar OsgEarthNet.uav[43] utilizationEnergyOverdrawMission 0
scalar OsgEarthNet.uav[43] utilizationEnergyOverdrawMaintenance 0
scalar OsgEarthNet.uav[43] utilizationCountMissions 52
scalar OsgEarthNet.uav[43] utilizationCountManeuversMission 979
scalar OsgEarthNet.uav[43] utilizationCountManeuversMaintenance 104
scalar OsgEarthNet.uav[43] utilizationCountChargeState 52
scalar OsgEarthNet.uav[43] utilizationCountOverdrawnAfterMission 0
scalar OsgEarthNet.uav[43] utilizationCountIdleState 52
scalar OsgEarthNet.uav[43] utilizationFail 0
scalar OsgEarthNet.uav[43] simulationTime 259200
scalar OsgEarthNet.uav[44] utilizationSecMission 30787.868574424
scalar OsgEarthNet.uav[44] utilizationSecMaintenance 18270.127877148
scalar OsgEarthNet.uav[44] utilizationSecCharge 185070
scalar OsgEarthNet.uav[44] utilizationSecIdle 25072.002548427
scalar OsgEarthNet.uav[44] utilizationEnergyMission 149806.83075704
scalar OsgEarthNet.uav[44] utilizationEnergyMaintenance 86588.952056885
scalar OsgEarthNet.uav[44] utilizationEnergyCharge 234130.49072266
scalar OsgEarthNet.uav[44] utilizationEnergyOverdrawMission 0
scalar OsgEarthNet.uav[44] utilizationEnergyOverdrawMaintenance 0
scalar OsgEarthNet.uav[44] utilizationCountMissions 55
scalar OsgEarthNet.uav[44] utilizationCountManeuversMission 1003
scalar OsgEarthNet.uav[44] utilizationCountManeuversMaintenance 111
scalar OsgEarthNet.uav[44] utilizationCountChargeState 55
scalar OsgEarthNet.uav[44] utilizationCountOverdrawnAfterMission 0
scalar OsgEarthNet.uav[44] utilizationCountIdleState 55
scalar OsgEarthNet.uav[44] utilizationFail 0
scalar OsgEarthNet.uav[44] simulationTime 259200
scalar OsgEarthNet.uav[45] utilizationSecMission 30276.039105464
scalar OsgEarthNet.uav[45] utilizationSecMaintenance 17774.310080983
scalar OsgEarthNet.uav[45] utilizationSecCharge 178646.27397171
scalar OsgEarthNet.uav[45] utilizationSecIdle 32503.375841838
scalar OsgEarthNet.uav[45] utilizationEnergyMission 146299.00791931
scalar OsgEarthNet.uav[45] utilizationEnergyMaintenance 84541.001277923
scalar OsgEarthNet.uav[45] utilizationEnergyCharge 230966.36181641
scalar OsgEarthNet.uav[45] utilizationEnergyOverdrawMission 0
scalar OsgEarthNet.uav[45] utilizationEnergyOverdrawMaintenance 0
scalar OsgEarthNet.uav[45] utilizationCountMissions 51
scalar OsgEarthNet.uav[45] utilizationCountManeuversMission 920
scalar OsgEarthNet.uav[45] utilizationCountManeuversMaintenance 102
scalar OsgEarthNet.uav[45] utilizationCountChargeState 51
scalar OsgEarthNet.uav[45] utilizationCountOverdrawnAfterMission 0
scalar OsgEarthNet.uav[45] utilizationCountIdleState 51
scalar OsgEarthNet.uav[45] utilizationFail 0
scalar OsgEarthNet.uav[45] simulationTime 259200
scalar OsgEarthNet.uav[46] utilizationSecMission 33445.633481487
scalar OsgEarthNet.uav[46] utilizationSecMaintenance 15174.241591707
scalar OsgEarthNet.uav[46] utilizationSecCharge 178257.68980508
scalar OsgEarthNet.uav[46] utilizationSecIdle 32322.434121723
scalar OsgEarthNet.uav[46] utilizationEnergyMission 163176.8127327
scalar OsgEarthNet.uav[46] utilizationEnergyMaintenance 69471.836624146
scalar OsgEarthNet.uav[46] utilizationEnergyCharge 230992.16577148
scalar OsgEarthNet.uav[46] utilizationEnergyOverdrawMission 0
scalar OsgEarthNet.uav[46] utilizationEnergyOverdrawMaintenance 0
scalar OsgEarthNet.uav[46] utilizationCountMissions 51
scalar OsgEarthNet.uav[46] utilizationCountManeuversMission 1116
scalar OsgEarthNet.uav[46] utilizationCountManeuversMaintenance 102
scalar OsgEarthNet.uav[46] utilizationCountChargeState 51
scalar OsgEarthNet.uav[46] utilizationCountOverdrawnAfterMission 0
scalar OsgEarthNet.uav[46] utilizationCountIdleState 51
scalar OsgEarthNet.uav[46] utilizationFail 0
scalar OsgEarthNet.uav[46] simulationTime 259200
scalar OsgEarthNet.uav[47] utilizationSecMission 31596.02675635
scalar OsgEarthNet.uav[47] utilizationSecMaintenance 17081.03233099
scalar OsgEarthNet.uav[47] utilizationSecCharge 181881.88211747
scalar OsgEarthNet.uav[47] utilizationSecIdle 28641.057795193
scalar OsgEarthNet.uav[47] utilizationEnergyMission 150979.49361038
scalar OsgEarthNet.uav[47] utilizationEnergyMaintenance 80699.20223999
scalar OsgEarthNet.uav[47] utilizationEnergyCharge 230552.80664062
scalar OsgEarthNet.uav[47] utilizationEnergyOverdrawMission 0
scalar OsgEarthNet.uav[47] utilizationEnergyOverdrawMaintenance 0
scalar OsgEarthNet.uav[47] utilizationCountMissions 55
scalar OsgEarthNet.uav[47] utilizationCountManeuversMission 966
scalar OsgEarthNet.uav[47] utilizationCountManeuversMaintenance 110
scalar OsgEarthNet.uav[47] utilizationCountChargeState 55
scalar OsgEarthNet.uav[47] utilizationCountOverdrawnAfterMission 0
scalar OsgEarthNet.uav[47] utilizationCountIdleState 55
scalar OsgEarthNet.uav[47] utilizationFail 0
scalar OsgEarthNet.uav[47] simulationTime 259200
scalar OsgEarthNet.uav[48] utilizationSecMission 36313.767824923
scalar OsgEarthNet.uav[48] utilizationSecMaintenance 13734.086610616
scalar OsgEarthNet.uav[48] utilizationSecCharge 180802.96945405
scalar OsgEarthNet.uav[48] utilizationSecIdle 28349.175110411
scalar OsgEarthNet.uav[48] utilizationEnergyMission 176342.68678665
scalar OsgEarthNet.uav[48] utilizationEnergyMaintenance 63501.56709671
scalar OsgEarthNet.uav[48] utilizationEnergyCharge 235558.74414062
scalar OsgEarthNet.uav[48] utilizationEnergyOverdrawMission 0
scalar OsgEarthNet.uav[48] utilizationEnergyOverdrawMaintenance 0
scalar OsgEarthNet.uav[48] utilizationCountMissions 51
scalar OsgEarthNet.uav[48] utilizationCountManeuversMission 1035
scalar OsgEarthNet.uav[48] utilizationCountManeuversMaintenance 102
scalar OsgEarthNet.uav[48] utilizationCountChargeState 51
scalar OsgEarthNet.uav[48] utilizationCountOverdrawnAfterMission 0
scalar OsgEarthNet.uav[48] utilizationCountIdleState 49
scalar OsgEarthNet.uav[48] utilizationFail 0
scalar OsgEarthNet.uav[48] simulationTime 259200
scalar OsgEarthNet.uav[49] utilizationSecMission 30624.636548097
scalar OsgEarthNet.uav[49] utilizationSecMaintenance 17811.650978278
scalar OsgEarthNet.uav[49] utilizationSecCharge 178051.70847363
scalar OsgEarthNet.uav[49] utilizationSecIdle 32712.003
scalar OsgEarthNet.uav[49] utilizationEnergyMission 146985.81188202
scalar OsgEarthNet.uav[49] utilizationEnergyMaintenance 84352.967350006
scalar OsgEarthNet.uav[49] utilizationEnergyCharge 230574.57177734
scalar OsgEarthNet.uav[49] utilizationEnergyOverdrawMission 0
scalar OsgEarthNet.uav[49] utilizationEnergyOverdrawMaintenance 0
scalar OsgEarthNet.uav[49] utilizationCountMissions 51
scalar OsgEarthNet.uav[49] utilizationCountManeuversMission 928
scalar OsgEarthNet.uav[49] utilizationCountManeuversMaintenance 102
scalar OsgEarthNet.uav[49] utilizationCountChargeState 51
scalar OsgEarthNet.uav[49] utilizationCountOverdrawnAfterMission 0
scalar OsgEarthNet.uav[49] utilizationCountIdleState 51
scalar OsgEarthNet.uav[49] utilizationFail 0
scalar OsgEarthNet.uav[49] simulationTime 259200
scalar OsgEarthNet.uav[50] utilizationSecMission 34652.058856507
scalar OsgEarthNet.uav[50] utilizationSecMaintenance 14691.539809222
scalar OsgEarthNet.uav[50] utilizationSecCharge 180515.45007861
scalar OsgEarthNet.uav[50] utilizationSecIdle 29340.950255665
scalar OsgEarthNet.uav[50] utilizationEnergyMission 168608.03516769
scalar OsgEarthNet.uav[50] utilizationEnergyMaintenance 67625.306354523
scalar OsgEarthNet.uav[50] utilizationEnergyCharge 234578.80126953
scalar OsgEarthNet.uav[50] utilizationEnergyOverdrawMission 0
scalar OsgEarthNet.uav[50] utilizationEnergyOverdrawMaintenance 0
scalar OsgEarthNet.uav[50] utilizationCountMissions 51
scalar OsgEarthNet.uav[50] utilizationCountManeuversMission 1057
scalar OsgEarthNet.uav[50] utilizationCountManeuversMaintenance 102
scalar OsgEarthNet.uav[50] utilizationCountChargeState 51
scalar OsgEarthNet.uav[50] utilizationCountOverdrawnAfterMission 0
scalar OsgEarthNet.uav[50] utilizationCountIdleState 51
scalar OsgEarthNet.uav[50] utilizationFail 0
scalar OsgEarthNet.uav[50] simulationTime 259200
scalar OsgEarthNet.uav[51] utilizationSecMission 33120.624727694
scalar OsgEarthNet.uav[51] utilizationSecMaintenance 15521.467670993
scalar OsgEarthNet.uav[51] utilizationSecCharge 181750
scalar OsgEarthNet.uav[51] utilizationSecIdle 28807.906601314
scalar OsgEarthNet.uav[51] utilizationEnergyMission 161507.33225632
scalar OsgEarthNet.uav[51] utilizationEnergyMaintenance 72425.095615387
scalar OsgEarthNet.uav[51] utilizationEnergyCharge 235444.49194336
scalar OsgEarthNet.uav[51] utilizationEnergyOverdrawMission 0
scalar OsgEarthNet.uav[51] utilizationEnergyOverdrawMaintenance 0
scalar OsgEarthNet.uav[51] utilizationCountMissions 51
scalar OsgEarthNet.uav[51] utilizationCountManeuversMission 1160
scalar OsgEarthNet.uav[51] utilizationCountManeuversMaintenance 102
scalar OsgEarthNet.uav[51] utilizationCountChargeState 51
scalar OsgEarthNet.uav[51] utilizationCountOverdrawnAfterMission 0
scalar OsgEarthNet.uav[51] utilizationCountIdleState 52
scalar OsgEarthNet.uav[51] utilizationFail 0
scalar OsgEarthNet.uav[51] simulationTime 259200
scalar OsgEarthNet.uav[52] utilizationSecMission 34439.447179262
scalar OsgEarthNet.uav[52] utilizationSecMaintenance 14356.896965556
scalar OsgEarthNet.uav[52] utilizationSecCharge 180914.22950789
scalar OsgEarthNet.uav[52] utilizationSecIdle 29489.42534729
scalar OsgEarthNet.uav[52] utilizationEnergyMission 167872.79224014
scalar OsgEarthNet.uav[52] utilizationEnergyMaintenance 67632.724369049
scalar OsgEarthNet.uav[52] utilizationEnergyCharge 235779.82763672
scalar OsgEarthNet.uav[52] utilizationEnergyOverdrawMission 0
scalar OsgEarthNet.uav[52] utilizationEnergyOverdrawMaintenance 0
scalar OsgEarthNet.uav[52] utilizationCountMissions 51
scalar OsgEarthNet.uav[52] utilizationCountManeuversMission 1084
scalar OsgEarthNet.uav[52] utilizationCountManeuversMaintenance 102
scalar OsgEarthNet.uav[52] utilizationCountChargeState 51
scalar OsgEarthNet.uav[52] utilizationCountOverdrawnAfterMission 0
scalar OsgEarthNet.uav[52] utilizationCountIdleState 50
scalar OsgEarthNet.uav[52] utilizationFail 0
scalar OsgEarthNet.uav[52] simulationTime 259200
scalar OsgEarthNet.uav[53] utilizationSecMission 30412.503051606
scalar OsgEarthNet.uav[53] utilizationSecMaintenance 18792.809289118
scalar OsgEarthNet.uav[53] utilizationSecCharge 180112.68465928
scalar OsgEarthNet.uav[53] utilizationSecIdle 29882.002
scalar OsgEarthNet.uav[53] utilizationEnergyMission 148510.47214127
scalar OsgEarthNet.uav[53] utilizationEnergyMaintenance 89477.479995727
scalar OsgEarthNet.uav[53] utilizationEnergyCharge 232180.26391602
scalar OsgEarthNet.uav[53] utilizationEnergyOverdrawMission 0
scalar OsgEarthNet.uav[53] utilizationEnergyOverdrawMaintenance 0
scalar OsgEarthNet.uav[53] utilizationCountMissions 52
scalar OsgEarthNet.uav[53] utilizationCountManeuversMission 1000
scalar OsgEarthNet.uav[53] utilizationCountManeuversMaintenance 104
scalar OsgEarthNet.uav[53] utilizationCountChargeState 52
scalar OsgEarthNet.uav[53] utilizationCountOverdrawnAfterMission 0
scalar OsgEarthNet.uav[53] utilizationCountIdleState 52
scalar OsgEarthNet.uav[53] utilizationFail 0
scalar OsgEarthNet.uav[53] simulationTime 259200
scalar OsgEarthNet.uav[54] utilizationSecMission 31164.852066551
scalar OsgEarthNet.uav[54] utilizationSecMaintenance 16952.857757178
scalar OsgEarthNet.uav[54] utilizationSecCharge 181920.28317627
scalar OsgEarthNet.uav[54] utilizationSecIdle 29162.006
scalar OsgEarthNet.uav[54] utilizationEnergyMission 149645.27630615
scalar OsgEarthNet.uav[54] utilizationEnergyMaintenance 80578.110027313
scalar OsgEarthNet.uav[54] utilizationEnergyCharge 227117.07092285
scalar OsgEarthNet.uav[54] utilizationEnergyOverdrawMission 0
scalar OsgEarthNet.uav[54] utilizationEnergyOverdrawMaintenance 0
scalar OsgEarthNet.uav[54] utilizationCountMissions 57
scalar OsgEarthNet.uav[54] utilizationCountManeuversMission 842
scalar OsgEarthNet.uav[54] utilizationCountManeuversMaintenance 114
scalar OsgEarthNet.uav[54] utilizationCountChargeState 57
scalar OsgEarthNet.uav[54] utilizationCountOverdrawnAfterMission 0
scalar OsgEarthNet.uav[54] utilizationCountIdleState 55
scalar OsgEarthNet.uav[54] utilizationFail 0
scalar OsgEarthNet.uav[54] simulationTime 259200
scalar OsgEarthNet.uav[55] utilizationSecMission 33095.224934823
scalar OsgEarthNet.uav[55] utilizationSecMaintenance 15762.771065177
scalar OsgEarthNet.uav[55] utilizationSecCharge 181520
scalar OsgEarthNet.uav[55] utilizationSecIdle 28822.003
scalar OsgEarthNet.uav[55] utilizationEnergyMission 161432.16165161
scalar OsgEarthNet.uav[55] utilizationEnergyMaintenance 73333.12409208
scalar OsgEarthNet.uav[55] utilizationEnergyCharge 235164.50097656
scalar OsgEarthNet.uav[55] utilizationEnergyOverdrawMission 0
scalar OsgEarthNet.uav[55] utilizationEnergyOverdrawMaintenance 0
scalar OsgEarthNet.uav[55] utilizationCountMissions 51
scalar OsgEarthNet.uav[55] utilizationCountManeuversMission 1131
scalar OsgEarthNet.uav[55] utilizationCountManeuversMaintenance 103
scalar OsgEarthNet.uav[55] utilizationCountChargeState 51
scalar OsgEarthNet.uav[55] utilizationCountOverdrawnAfterMission 0
scalar OsgEarthNet.uav[55] utilizationCountIdleState 51
scalar OsgEarthNet.uav[55] utilizationFail 0
scalar OsgEarthNet.uav[55] simulationTime 259200
scalar OsgEarthNet.uav[56] utilizationSecMission 28174.019362308
scalar OsgEarthNet.uav[56] utilizationSecMaintenance 18703.968637692
scalar OsgEarthNet.uav[56] utilizationSecCharge 182420
scalar OsgEarthNet.uav[56] utilizationSecIdle 29902.011
scalar OsgEarthNet.uav[56] utilizationEnergyMission 135676.18900792
scalar OsgEarthNet.uav[56] utilizationEnergyMaintenance 89069.996776581
scalar OsgEarthNet.uav[56] utilizationEnergyCharge 225807.43505859
scalar OsgEarthNet.uav[56] utilizationEnergyOverdrawMission 0
scalar OsgEarthNet.uav[56] utilizationEnergyOverdrawMaintenance 0
scalar OsgEarthNet.uav[56] utilizationCountMissions 57
scalar OsgEarthNet.uav[56] utilizationCountManeuversMission 917
scalar OsgEarthNet.uav[56] utilizationCountManeuversMaintenance 115
scalar OsgEarthNet.uav[56] utilizationCountChargeState 57
scalar OsgEarthNet.uav[56] utilizationCountOverdrawnAfterMission 0
scalar OsgEarthNet.uav[56] utilizationCountIdleState 58
scalar OsgEarthNet.uav[56] utilizationFail 0
scalar OsgEarthNet.uav[56] simulationTime 259200
scalar OsgEarthNet.uav[57] utilizationSecMission 30804.580264938
scalar OsgEarthNet.uav[57] utilizationSecMaintenance 17663.935496862
scalar OsgEarthNet.uav[57] utilizationSecCharge 185324.16715637
scalar OsgEarthNet.uav[57] utilizationSecIdle 25407.316081831
scalar OsgEarthNet.uav[57] utilizationEnergyMission 148287.72841263
scalar OsgEarthNet.uav[57] utilizationEnergyMaintenance 84561.440361023
scalar OsgEarthNet.uav[57] utilizationEnergyCharge 232842.49353027
scalar OsgEarthNet.uav[57] utilizationEnergyOverdrawMission 0
scalar OsgEarthNet.uav[57] utilizationEnergyOverdrawMaintenance 0
scalar OsgEarthNet.uav[57] utilizationCountMissions 57
scalar OsgEarthNet.uav[57] utilizationCountManeuversMission 917
scalar OsgEarthNet.uav[57] utilizationCountManeuversMaintenance 114
scalar OsgEarthNet.uav[57] utilizationCountChargeState 57
scalar OsgEarthNet.uav[57] utilizationCountOverdrawnAfterMission 0
scalar OsgEarthNet.uav[57] utilizationCountIdleState 56
scalar OsgEarthNet.uav[57] utilizationFail 0
scalar OsgEarthNet.uav[57] simulationTime 259200
scalar OsgEarthNet.uav[58] utilizationSecMission 35754.867232813
scalar OsgEarthNet.uav[58] utilizationSecMaintenance 13458.398885081
scalar OsgEarthNet.uav[58] utilizationSecCharge 178447.10180144
scalar OsgEarthNet.uav[58] utilizationSecIdle 31539.631080665
scalar OsgEarthNet.uav[58] utilizationEnergyMission 174717.97681808
scalar OsgEarthNet.uav[58] utilizationEnergyMaintenance 61720.848133087
scalar OsgEarthNet.uav[58] utilizationEnergyCharge 231028.60534668
scalar OsgEarthNet.uav[58] utilizationEnergyOverdrawMission 0
scalar OsgEarthNet.uav[58] utilizationEnergyOverdrawMaintenance 0
scalar OsgEarthNet.uav[58] utilizationCountMissions 51
scalar OsgEarthNet.uav[58] utilizationCountManeuversMission 1098
scalar OsgEarthNet.uav[58] utilizationCountManeuversMaintenance 102
scalar OsgEarthNet.uav[58] utilizationCountChargeState 51
scalar OsgEarthNet.uav[58] utilizationCountOverdrawnAfterMission 0
scalar OsgEarthNet.uav[58] utilizationCountIdleState 51
scalar OsgEarthNet.uav[58] utilizationFail 0
scalar OsgEarthNet.uav[58] simulationTime 259200
scalar OsgEarthNet.uav[59] utilizationSecMission 35561.790440444
scalar OsgEarthNet.uav[59] utilizationSecMaintenance 13325.134417406
scalar OsgEarthNet.uav[59] utilizationSecCharge 179280
scalar OsgEarthNet.uav[59] utilizationSecIdle 31033.07414215
scalar OsgEarthNet.uav[59] utilizationEnergyMission 171737.99883652
scalar OsgEarthNet.uav[59] utilizationEnergyMaintenance 60548.313926697
scalar OsgEarthNet.uav[59] utilizationEnergyCharge 232820.86914062
scalar OsgEarthNet.uav[59] utilizationEnergyOverdrawMission 0
scalar OsgEarthNet.uav[59] utilizationEnergyOverdrawMaintenance 0
scalar OsgEarthNet.uav[59] utilizationCountMissions 50
scalar OsgEarthNet.uav[59] utilizationCountManeuversMission 1029
scalar OsgEarthNet.uav[59] utilizationCountManeuversMaintenance 100
scalar OsgEarthNet.uav[59] utilizationCountChargeState 50
scalar OsgEarthNet.uav[59] utilizationCountOverdrawnAfterMission 0
scalar OsgEarthNet.uav[59] utilizationCountIdleState 51
scalar OsgEarthNet.uav[59] utilizationFail 0
scalar OsgEarthNet.uav[59] simulationTime 259200
scalar OsgEarthNet.uav[60] utilizationSecMission 29722.761090356
scalar OsgEarthNet.uav[60] utilizationSecMaintenance 18177.57098078
scalar OsgEarthNet.uav[60] utilizationSecCharge 176147.84418538
scalar OsgEarthNet.uav[60] utilizationSecIdle 35151.82274348
scalar OsgEarthNet.uav[60] utilizationEnergyMission 145267.02275085
scalar OsgEarthNet.uav[60] utilizationEnergyMaintenance 85972.33195877
scalar OsgEarthNet.uav[60] utilizationEnergyCharge 226914.86352539
scalar OsgEarthNet.uav[60] utilizationEnergyOverdrawMission 0
scalar OsgEarthNet.uav[60] utilizationEnergyOverdrawMaintenance 0
scalar OsgEarthNet.uav[60] utilizationCountMissions 51
scalar OsgEarthNet.uav[60] utilizationCountManeuversMission 961
scalar OsgEarthNet.uav[60] utilizationCountManeuversMaintenance 102
scalar OsgEarthNet.uav[60] utilizationCountChargeState 51
scalar OsgEarthNet.uav[60] utilizationCountOverdrawnAfterMission 0
scalar OsgEarthNet.uav[60] utilizationCountIdleState 51
scalar OsgEarthNet.uav[60] utilizationFail 0
scalar OsgEarthNet.uav[60] simulationTime 259200
scalar OsgEarthNet.uav[61] utilizationSecMission 31810.834678992
scalar OsgEarthNet.uav[61] utilizationSecMaintenance 16901.143962619
scalar OsgEarthNet.uav[61] utilizationSecCharge 181994.21744188
scalar OsgEarthNet.uav[61] utilizationSecIdle 28493.802916509
scalar OsgEarthNet.uav[61] utilizationEnergyMission 153891.35287857
scalar OsgEarthNet.uav[61] utilizationEnergyMaintenance 79750.797771454
scalar OsgEarthNet.uav[61] utilizationEnergyCharge 228911.49243164
scalar OsgEarthNet.uav[61] utilizationEnergyOverdrawMission 0
scalar OsgEarthNet.uav[61] utilizationEnergyOverdrawMaintenance 0
scalar OsgEarthNet.uav[61] utilizationCountMissions 56
scalar OsgEarthNet.uav[61] utilizationCountManeuversMission 918
scalar OsgEarthNet.uav[61] utilizationCountManeuversMaintenance 112
scalar OsgEarthNet.uav[61] utilizationCountChargeState 56
scalar OsgEarthNet.uav[61] utilizationCountOverdrawnAfterMission 0
scalar OsgEarthNet.uav[61] utilizationCountIdleState 55
scalar OsgEarthNet.uav[61] utilizationFail 0
scalar OsgEarthNet.uav[61] simulationTime 259200
scalar OsgEarthNet.uav[62] utilizationSecMission 35166.481147281
scalar OsgEarthNet.uav[62] utilizationSecMaintenance 14366.909923824
scalar OsgEarthNet.uav[62] utilizationSecCharge 180517.71155375
scalar OsgEarthNet.uav[62] utilizationSecIdle 29148.896375144
scalar OsgEarthNet.uav[62] utilizationEnergyMission 172335.81631851
scalar OsgEarthNet.uav[62] utilizationEnergyMaintenance 64680.014743805
scalar OsgEarthNet.uav[62] utilizationEnergyCharge 234744.41894531
scalar OsgEarthNet.uav[62] utilizationEnergyOverdrawMission 0
scalar OsgEarthNet.uav[62] utilizationEnergyOverdrawMaintenance 0
scalar OsgEarthNet.uav[62] utilizationCountMissions 51
scalar OsgEarthNet.uav[62] utilizationCountManeuversMission 1157
scalar OsgEarthNet.uav[62] utilizationCountManeuversMaintenance 102
scalar OsgEarthNet.uav[62] utilizationCountChargeState 51
scalar OsgEarthNet.uav[62] utilizationCountOverdrawnAfterMission 0
scalar OsgEarthNet.uav[62] utilizationCountIdleState 50
scalar OsgEarthNet.uav[62] utilizationFail 0
scalar OsgEarthNet.uav[62] simulationTime 259200
scalar OsgEarthNet.uav[63] utilizationSecMission 30042.985042453
scalar OsgEarthNet.uav[63] utilizationSecMaintenance 18307.069679702
scalar OsgEarthNet.uav[63] utilizationSecCharge 180420
scalar OsgEarthNet.uav[63] utilizationSecIdle 30429.944277845
scalar OsgEarthNet.uav[63] utilizationEnergyMission 144577.60684868
scalar OsgEarthNet.uav[63] utilizationEnergyMaintenance 86793.135971069
scalar OsgEarthNet.uav[63] utilizationEnergyCharge 231101.33911133
scalar OsgEarthNet.uav[63] utilizationEnergyOverdrawMission 0
scalar OsgEarthNet.uav[63] utilizationEnergyOverdrawMaintenance 0
scalar OsgEarthNet.uav[63] utilizationCountMissions 52
scalar OsgEarthNet.uav[63] utilizationCountManeuversMission 918
scalar OsgEarthNet.uav[63] utilizationCountManeuversMaintenance 105
scalar OsgEarthNet.uav[63] utilizationCountChargeState 52
scalar OsgEarthNet.uav[63] utilizationCountOverdrawnAfterMission 0
scalar OsgEarthNet.uav[63] utilizationCountIdleState 53
scalar OsgEarthNet.uav[63] utilizationFail 0
scalar OsgEarthNet.uav[63] simulationTime 259200
scalar OsgEarthNet.uav[64] utilizationSecMission 30634.935557564
scalar OsgEarthNet.uav[64] utilizationSecMaintenance 17408.445554352
scalar OsgEarthNet.uav[64] utilizationSecCharge 183882.9497101
scalar OsgEarthNet.uav[64] utilizationSecIdle 27273.668177988
scalar OsgEarthNet.uav[64] utilizationEnergyMission 146720.99482727
scalar OsgEarthNet.uav[64] utilizationEnergyMaintenance 82164.292930603
scalar OsgEarthNet.uav[64] utilizationEnergyCharge 228899.64282227
scalar OsgEarthNet.uav[64] utilizationEnergyOverdrawMission 0
scalar OsgEarthNet.uav[64] utilizationEnergyOverdrawMaintenance 0
scalar OsgEarthNet.uav[64] utilizationCountMissions 57
scalar OsgEarthNet.uav[64] utilizationCountManeuversMission 864
scalar OsgEarthNet.uav[64] utilizationCountManeuversMaintenance 114
scalar OsgEarthNet.uav[64] utilizationCountChargeState 57
scalar OsgEarthNet.uav[64] utilizationCountOverdrawnAfterMission 0
scalar OsgEarthNet.uav[64] utilizationCountIdleState 56
scalar OsgEarthNet.uav[64] utilizationFail 0
scalar OsgEarthNet.uav[64] simulationTime 259200
scalar OsgEarthNet.uav[65] utilizationSecMission 35139.338514931
scalar OsgEarthNet.uav[65] utilizationSecMaintenance 14097.416659981
scalar OsgEarthNet.uav[65] utilizationSecCharge 179877.78816847
scalar OsgEarthNet.uav[65] utilizationSecIdle 30085.45565662
scalar OsgEarthNet.uav[65] utilizationEnergyMission 169362.67808914
scalar OsgEarthNet.uav[65] utilizationEnergyMaintenance 64896.270431519
scalar OsgEarthNet.uav[65] utilizationEnergyCharge 233782.06640625
scalar OsgEarthNet.uav[65] utilizationEnergyOverdrawMission 0
scalar OsgEarthNet.uav[65] utilizationEnergyOverdrawMaintenance 0
scalar OsgEarthNet.uav[65] utilizationCountMissions 51
scalar OsgEarthNet.uav[65] utilizationCountManeuversMission 1079
scalar OsgEarthNet.uav[65] utilizationCountManeuversMaintenance 102
scalar OsgEarthNet.uav[65] utilizationCountChargeState 51
scalar OsgEarthNet.uav[65] utilizationCountOverdrawnAfterMission 0
scalar OsgEarthNet.uav[65] utilizationCountIdleState 51
scalar OsgEarthNet.uav[65] utilizationFail 0
scalar OsgEarthNet.uav[65] simulationTime 259200
scalar OsgEarthNet.uav[66] utilizationSecMission 28566.169136432
scalar OsgEarthNet.uav[66] utilizationSecMaintenance 17975.77803207
scalar OsgEarthNet.uav[66] utilizationSecCharge 183067.48139844
scalar OsgEarthNet.uav[66] utilizationSecIdle 29590.570433056
scalar OsgEarthNet.uav[66] utilizationEnergyMission 138807.89419174
scalar OsgEarthNet.uav[66] utilizationEnergyMaintenance 85442.545230865
scalar OsgEarthNet.uav[66] utilizationEnergyCharge 224183.57324219
scalar OsgEarthNet.uav[66] utilizationEnergyOverdrawMission 0
scalar OsgEarthNet.uav[66] utilizationEnergyOverdrawMaintenance 0
scalar OsgEarthNet.uav[66] utilizationCountMissions 59
scalar OsgEarthNet.uav[66] utilizationCountManeuversMission 767
scalar OsgEarthNet.uav[66] utilizationCountManeuversMaintenance 118
scalar OsgEarthNet.uav[66] utilizationCountChargeState 59
scalar OsgEarthNet.uav[66] utilizationCountOverdrawnAfterMission 0
scalar OsgEarthNet.uav[66] utilizationCountIdleState 59
scalar OsgEarthNet.uav[66] utilizationFail 0
scalar OsgEarthNet.uav[66] simulationTime 259200
scalar OsgEarthNet.uav[67] utilizationSecMission 34227.244910531
scalar OsgEarthNet.uav[67] utilizationSecMaintenance 14976.454816856
scalar OsgEarthNet.uav[67] utilizationSecCharge 180140.85718392
scalar OsgEarthNet.uav[67] utilizationSecIdle 29855.442088691
scalar OsgEarthNet.uav[67] utilizationEnergyMission 166882.12031174
scalar OsgEarthNet.uav[67] utilizationEnergyMaintenance 69371.848373413
scalar OsgEarthNet.uav[67] utilizationEnergyCharge 234175.60742188
scalar OsgEarthNet.uav[67] utilizationEnergyOverdrawMission 0
scalar OsgEarthNet.uav[67] utilizationEnergyOverdrawMaintenance 0
scalar OsgEarthNet.uav[67] utilizationCountMissions 51
scalar OsgEarthNet.uav[67] utilizationCountManeuversMission 1132
scalar OsgEarthNet.uav[67] utilizationCountManeuversMaintenance 102
scalar OsgEarthNet.uav[67] utilizationCountChargeState 51
scalar OsgEarthNet.uav[67] utilizationCountOverdrawnAfterMission 0
scalar OsgEarthNet.uav[67] utilizationCountIdleState 51
scalar OsgEarthNet.uav[67] utilizationFail 0
scalar OsgEarthNet.uav[67] simulationTime 259200
scalar OsgEarthNet.uav[68] utilizationSecMission 33823.590155015
scalar OsgEarthNet.uav[68] utilizationSecMaintenance 15659.210450138
scalar OsgEarthNet.uav[68] utilizationSecCharge 182265.19539485
scalar OsgEarthNet.uav[68] utilizationSecIdle 27452.003
scalar OsgEarthNet.uav[68] utilizationEnergyMission 165799.27510452
scalar OsgEarthNet.uav[68] utilizationEnergyMaintenance 72405.816360474
scalar OsgEarthNet.uav[68] utilizationEnergyCharge 236707.05126953
scalar OsgEarthNet.uav[68] utilizationEnergyOverdrawMission 0
scalar OsgEarthNet.uav[68] utilizationEnergyOverdrawMaintenance 0
scalar OsgEarthNet.uav[68] utilizationCountMissions 52
scalar OsgEarthNet.uav[68] utilizationCountManeuversMission 1239
scalar OsgEarthNet.uav[68] utilizationCountManeuversMaintenance 104
scalar OsgEarthNet.uav[68] utilizationCountChargeState 52
scalar OsgEarthNet.uav[68] utilizationCountOverdrawnAfterMission 0
scalar OsgEarthNet.uav[68] utilizationCountIdleState 52
scalar OsgEarthNet.uav[68] utilizationFail 0
scalar OsgEarthNet.uav[68] simulationTime 259200
scalar OsgEarthNet.uav[69] utilizationSecMission 29066.642175868
scalar OsgEarthNet.uav[69] utilizationSecMaintenance 19051.349824132
scalar OsgEarthNet.uav[69] utilizationSecCharge 181710
scalar OsgEarthNet.uav[69] utilizationSecIdle 29372.007
scalar OsgEarthNet.uav[69] utilizationEnergyMission 143077.73025894
scalar OsgEarthNet.uav[69] utilizationEnergyMaintenance 90375.429688289
scalar OsgEarthNet.uav[69] utilizationEnergyCharge 229854.77416992
scalar OsgEarthNet.uav[69] utilizationEnergyOverdrawMission 0
scalar OsgEarthNet.uav[69] utilizationEnergyOverdrawMaintenance 0
scalar OsgEarthNet.uav[69] utilizationCountMissions 55
scalar OsgEarthNet.uav[69] utilizationCountManeuversMission 963
scalar OsgEarthNet.uav[69] utilizationCountManeuversMaintenance 110
scalar OsgEarthNet.uav[69] utilizationCountChargeState 54
scalar OsgEarthNet.uav[69] utilizationCountOverdrawnAfterMission 0
scalar OsgEarthNet.uav[69] utilizationCountIdleState 55
scalar OsgEarthNet.uav[69] utilizationFail 0
scalar OsgEarthNet.uav[69] simulationTime 259200
scalar OsgEarthNet.uav[70] utilizationSecMission 28770.518518786
scalar OsgEarthNet.uav[70] utilizationSecMaintenance 19296.175629606
scalar OsgEarthNet.uav[70] utilizationSecCharge 179090
scalar OsgEarthNet.uav[70] utilizationSecIdle 32043.304851609
scalar OsgEarthNet.uav[70] utilizationEnergyMission 140587.84304047
scalar OsgEarthNet.uav[70] utilizationEnergyMaintenance 91075.878360748
scalar OsgEarthNet.uav[70] utilizationEnergyCharge 230290.72460938
scalar OsgEarthNet.uav[70] utilizationEnergyOverdrawMission 0
scalar OsgEarthNet.uav[70] utilizationEnergyOverdrawMaintenance 0
scalar OsgEarthNet.uav[70] utilizationCountMissions 51
scalar OsgEarthNet.uav[70] utilizationCountManeuversMission 1013
scalar OsgEarthNet.uav[70] utilizationCountManeuversMaintenance 102
scalar OsgEarthNet.uav[70] utilizationCountChargeState 51
scalar OsgEarthNet.uav[70] utilizationCountOverdrawnAfterMission 0
scalar OsgEarthNet.uav[70] utilizationCountIdleState 52
scalar OsgEarthNet.uav[70] utilizationFail 0
scalar OsgEarthNet.uav[70] simulationTime 259200
scalar OsgEarthNet.uav[71] utilizationSecMission 32015.428365702
scalar OsgEarthNet.uav[71] utilizationSecMaintenance 16652.826890185
scalar OsgEarthNet.uav[71] utilizationSecCharge 182197.1318546
scalar OsgEarthNet.uav[71] utilizationSecIdle 28334.611889516
scalar OsgEarthNet.uav[71] utilizationEnergyMission 156747.99005508
scalar OsgEarthNet.uav[71] utilizationEnergyMaintenance 78656.925830841
scalar OsgEarthNet.uav[71] utilizationEnergyCharge 233182.13031006
scalar OsgEarthNet.uav[71] utilizationEnergyOverdrawMission 0
scalar OsgEarthNet.uav[71] utilizationEnergyOverdrawMaintenance 0
scalar OsgEarthNet.uav[71] utilizationCountMissions 54
scalar OsgEarthNet.uav[71] utilizationCountManeuversMission 1099
scalar OsgEarthNet.uav[71] utilizationCountManeuversMaintenance 108
scalar OsgEarthNet.uav[71] utilizationCountChargeState 54
scalar OsgEarthNet.uav[71] utilizationCountOverdrawnAfterMission 0
scalar OsgEarthNet.uav[71] utilizationCountIdleState 53
scalar OsgEarthNet.uav[71] utilizationFail 0
scalar OsgEarthNet.uav[71] simulationTime 259200
scalar OsgEarthNet.cs[0] usedPower 3991164.3683719
scalar OsgEarthNet.cs[0] chargedPower 3991164.3683719
scalar OsgEarthNet.cs[0] chargedMobileNodes 876
scalar OsgEarthNet.cs[0] reservations 889
scalar OsgEarthNet.cs[1] usedPower 5720411.818054
scalar OsgEarthNet.cs[1] chargedPower 5720411.818054
scalar OsgEarthNet.cs[1] chargedMobileNodes 1368
scalar OsgEarthNet.cs[1] reservations 1413
scalar OsgEarthNet.cs[2] usedPower 6959262.0829084
scalar OsgEarthNet.cs[2] chargedPower 6959262.0829084
scalar OsgEarthNet.cs[2] chargedMobileNodes 1481
scalar OsgEarthNet.cs[2] reservations 1519

