version 2
run Szenario_Hotel_Gabelbach-395-20180719-16:23:24-13104
attr configname Szenario_Hotel_Gabelbach
attr datetime 20180719-16:23:24
attr experiment Szenario_Hotel_Gabelbach
attr inifile omnetpp.ini
attr iterationvars "$replM=2, $biWeight=0.35, $replSearchM=1, $numUAVs=85"
attr iterationvarsf replM=2,biWeight=0.35,replSearchM=1,numUAVs=85-
attr measurement "$replM=2, $biWeight=0.35, $replSearchM=1, $numUAVs=85"
attr network OsgEarthNet
attr processid 13104
attr repetition 11
attr replication #11
attr resultdir results
attr runnumber 395
attr seedset 395
itervar biWeight 0.35
itervar numUAVs 85
itervar replM 2
itervar replSearchM 1
param *.osgEarthScene.scene "\"Szenario_Hotel_Gabelbach.earth\""
param *.playgroundLatitude 50.6830269
param *.playgroundLongitude 10.8538055
param *.playgroundWidth 3500m
param *.playgroundHeight 3500m
param *.cs[0].posX 3537m
param *.cs[0].posY 965m
param *.cs[0].posZ 538m
param *.cs[1].posX 312m
param *.cs[1].posY 1262m
param *.cs[1].posZ 539m
param *.cs[2].posX 2185m
param *.cs[2].posY 3026m
param *.cs[2].posZ 777m
param *.cs[3].posX 10m
param *.cs[3].posY 2200m
param *.cs[3].posZ 560m
param *.cs[4].posX 750m
param *.cs[4].posY 200m
param *.cs[4].posZ 540m
param *.cs[5].posX 2450m
param *.cs[5].posY 180m
param *.cs[5].posZ 524m
param *.cs[6].posX 3140m
param *.cs[6].posY 1790m
param *.cs[6].posZ 606m
param *.numCSs 3
param *.uav[*].replacementMethod 2
param *.uav[*].weightedSumWeight 0.35
param *.missionControl.replacementSearchMethod 1
param *.numUAVs 85
param *.*.timeStep 10s
param *.uav[*].commandPreviewCommandCount 20
param *.missionControl.missionFiles "\"missions\\\\Szenario_WB_Hotel_Gabelbach_Mission_Hotel.waypoints,missions\\\\Szenario_WB_Hotel_Gabelbach_Mission_Kickelhahn.waypoints,missions\\\\Szenario_WB_Hotel_Gabelbach_Mission_Ilmenau_Sportplatz.waypoints,missions\\\\Szenario_WB_Hotel_Gabelbach_Mission_Manebach_Mitte.waypoints,missions\\\\Szenario_WB_Hotel_Gabelbach_Mission_Manebach_Sued.waypoints,missions\\\\Szenario_WB_Hotel_Gabelbach_Hover_HoheSchlaufe.waypoints,missions\\\\Szenario_WB_Hotel_Gabelbach_Hover_Kickelhahn.waypoints,missions\\\\Szenario_WB_Hotel_Gabelbach_Hover_Gabelbachskopf.waypoints,missions\\\\Szenario_WB_Hotel_Gabelbach_Hover_Dachskopf.waypoints\""
param *.uav[0].startX 3537m
param *.uav[0].startY 965m
param *.uav[0].startZ 539m
param *.uav[1].startX 312m
param *.uav[1].startY 1262m
param *.uav[1].startZ 540m
param *.uav[2].startX 2185m
param *.uav[2].startY 3026m
param *.uav[2].startZ 778m
param *.uav[3].startX 3537m
param *.uav[3].startY 965m
param *.uav[3].startZ 539m
param *.uav[4].startX 312m
param *.uav[4].startY 1262m
param *.uav[4].startZ 540m
param *.uav[5].startX 2185m
param *.uav[5].startY 3026m
param *.uav[5].startZ 778m
param *.uav[6].startX 3537m
param *.uav[6].startY 965m
param *.uav[6].startZ 539m
param *.uav[7].startX 312m
param *.uav[7].startY 1262m
param *.uav[7].startZ 540m
param *.uav[8].startX 2185m
param *.uav[8].startY 3026m
param *.uav[8].startZ 778m
param *.uav[9].startX 3537m
param *.uav[9].startY 965m
param *.uav[9].startZ 539m
param *.uav[10].startX 3537m
param *.uav[10].startY 965m
param *.uav[10].startZ 539m
param *.uav[11].startX 312m
param *.uav[11].startY 1262m
param *.uav[11].startZ 540m
param *.uav[12].startX 2185m
param *.uav[12].startY 3026m
param *.uav[12].startZ 778m
param *.uav[13].startX 3537m
param *.uav[13].startY 965m
param *.uav[13].startZ 539m
param *.uav[14].startX 312m
param *.uav[14].startY 1262m
param *.uav[14].startZ 540m
param *.uav[15].startX 2185m
param *.uav[15].startY 3026m
param *.uav[15].startZ 778m
param *.uav[16].startX 3537m
param *.uav[16].startY 965m
param *.uav[16].startZ 539m
param *.uav[17].startX 312m
param *.uav[17].startY 1262m
param *.uav[17].startZ 540m
param *.uav[18].startX 2185m
param *.uav[18].startY 3026m
param *.uav[18].startZ 778m
param *.uav[19].startX 3537m
param *.uav[19].startY 965m
param *.uav[19].startZ 539m
param *.uav[20].startX 3537m
param *.uav[20].startY 965m
param *.uav[20].startZ 539m
param *.uav[21].startX 312m
param *.uav[21].startY 1262m
param *.uav[21].startZ 540m
param *.uav[22].startX 2185m
param *.uav[22].startY 3026m
param *.uav[22].startZ 778m
param *.uav[23].startX 3537m
param *.uav[23].startY 965m
param *.uav[23].startZ 539m
param *.uav[24].startX 312m
param *.uav[24].startY 1262m
param *.uav[24].startZ 540m
param *.uav[25].startX 2185m
param *.uav[25].startY 3026m
param *.uav[25].startZ 778m
param *.uav[26].startX 3537m
param *.uav[26].startY 965m
param *.uav[26].startZ 539m
param *.uav[27].startX 312m
param *.uav[27].startY 1262m
param *.uav[27].startZ 540m
param *.uav[28].startX 2185m
param *.uav[28].startY 3026m
param *.uav[28].startZ 778m
param *.uav[29].startX 3537m
param *.uav[29].startY 965m
param *.uav[29].startZ 539m
param *.uav[30].startX 3537m
param *.uav[30].startY 965m
param *.uav[30].startZ 539m
param *.uav[31].startX 312m
param *.uav[31].startY 1262m
param *.uav[31].startZ 540m
param *.uav[32].startX 2185m
param *.uav[32].startY 3026m
param *.uav[32].startZ 778m
param *.uav[33].startX 3537m
param *.uav[33].startY 965m
param *.uav[33].startZ 539m
param *.uav[34].startX 312m
param *.uav[34].startY 1262m
param *.uav[34].startZ 540m
param *.uav[35].startX 2185m
param *.uav[35].startY 3026m
param *.uav[35].startZ 778m
param *.uav[36].startX 3537m
param *.uav[36].startY 965m
param *.uav[36].startZ 539m
param *.uav[37].startX 312m
param *.uav[37].startY 1262m
param *.uav[37].startZ 540m
param *.uav[38].startX 2185m
param *.uav[38].startY 3026m
param *.uav[38].startZ 778m
param *.uav[39].startX 3537m
param *.uav[39].startY 965m
param *.uav[39].startZ 539m
param *.uav[40].startX 3537m
param *.uav[40].startY 965m
param *.uav[40].startZ 539m
param *.uav[41].startX 312m
param *.uav[41].startY 1262m
param *.uav[41].startZ 540m
param *.uav[42].startX 2185m
param *.uav[42].startY 3026m
param *.uav[42].startZ 778m
param *.uav[43].startX 3537m
param *.uav[43].startY 965m
param *.uav[43].startZ 539m
param *.uav[44].startX 312m
param *.uav[44].startY 1262m
param *.uav[44].startZ 540m
param *.uav[45].startX 2185m
param *.uav[45].startY 3026m
param *.uav[45].startZ 778m
param *.uav[46].startX 3537m
param *.uav[46].startY 965m
param *.uav[46].startZ 539m
param *.uav[47].startX 312m
param *.uav[47].startY 1262m
param *.uav[47].startZ 540m
param *.uav[48].startX 2185m
param *.uav[48].startY 3026m
param *.uav[48].startZ 778m
param *.uav[49].startX 3537m
param *.uav[49].startY 965m
param *.uav[49].startZ 539m
param *.uav[50].startX 3537m
param *.uav[50].startY 965m
param *.uav[50].startZ 539m
param *.uav[51].startX 312m
param *.uav[51].startY 1262m
param *.uav[51].startZ 540m
param *.uav[52].startX 2185m
param *.uav[52].startY 3026m
param *.uav[52].startZ 778m
param *.uav[53].startX 3537m
param *.uav[53].startY 965m
param *.uav[53].startZ 539m
param *.uav[54].startX 312m
param *.uav[54].startY 1262m
param *.uav[54].startZ 540m
param *.uav[55].startX 2185m
param *.uav[55].startY 3026m
param *.uav[55].startZ 778m
param *.uav[56].startX 3537m
param *.uav[56].startY 965m
param *.uav[56].startZ 539m
param *.uav[57].startX 312m
param *.uav[57].startY 1262m
param *.uav[57].startZ 540m
param *.uav[58].startX 2185m
param *.uav[58].startY 3026m
param *.uav[58].startZ 778m
param *.uav[59].startX 3537m
param *.uav[59].startY 965m
param *.uav[59].startZ 539m
param *.uav[60].startX 3537m
param *.uav[60].startY 965m
param *.uav[60].startZ 539m
param *.uav[61].startX 312m
param *.uav[61].startY 1262m
param *.uav[61].startZ 540m
param *.uav[62].startX 2185m
param *.uav[62].startY 3026m
param *.uav[62].startZ 778m
param *.uav[63].startX 3537m
param *.uav[63].startY 965m
param *.uav[63].startZ 539m
param *.uav[64].startX 312m
param *.uav[64].startY 1262m
param *.uav[64].startZ 540m
param *.uav[65].startX 2185m
param *.uav[65].startY 3026m
param *.uav[65].startZ 778m
param *.uav[66].startX 3537m
param *.uav[66].startY 965m
param *.uav[66].startZ 539m
param *.uav[67].startX 312m
param *.uav[67].startY 1262m
param *.uav[67].startZ 540m
param *.uav[68].startX 2185m
param *.uav[68].startY 3026m
param *.uav[68].startZ 778m
param *.uav[69].startX 3537m
param *.uav[69].startY 965m
param *.uav[69].startZ 539m
param *.uav[70].startX 3537m
param *.uav[70].startY 965m
param *.uav[70].startZ 539m
param *.uav[71].startX 312m
param *.uav[71].startY 1262m
param *.uav[71].startZ 540m
param *.uav[72].startX 2185m
param *.uav[72].startY 3026m
param *.uav[72].startZ 778m
param *.uav[73].startX 3537m
param *.uav[73].startY 965m
param *.uav[73].startZ 539m
param *.uav[74].startX 312m
param *.uav[74].startY 1262m
param *.uav[74].startZ 540m
param *.uav[75].startX 2185m
param *.uav[75].startY 3026m
param *.uav[75].startZ 778m
param *.uav[76].startX 3537m
param *.uav[76].startY 965m
param *.uav[76].startZ 539m
param *.uav[77].startX 312m
param *.uav[77].startY 1262m
param *.uav[77].startZ 540m
param *.uav[78].startX 2185m
param *.uav[78].startY 3026m
param *.uav[78].startZ 778m
param *.uav[79].startX 3537m
param *.uav[79].startY 965m
param *.uav[79].startZ 539m
param *.uav[80].startX 3537m
param *.uav[80].startY 965m
param *.uav[80].startZ 539m
param *.uav[81].startX 312m
param *.uav[81].startY 1262m
param *.uav[81].startZ 540m
param *.uav[82].startX 2185m
param *.uav[82].startY 3026m
param *.uav[82].startZ 778m
param *.uav[83].startX 3537m
param *.uav[83].startY 965m
param *.uav[83].startZ 539m
param *.uav[84].startX 312m
param *.uav[84].startY 1262m
param *.uav[84].startZ 540m
param *.uav[85].startX 2185m
param *.uav[85].startY 3026m
param *.uav[85].startZ 778m
param *.uav[86].startX 3537m
param *.uav[86].startY 965m
param *.uav[86].startZ 539m
param *.uav[87].startX 312m
param *.uav[87].startY 1262m
param *.uav[87].startZ 540m
param *.uav[88].startX 2185m
param *.uav[88].startY 3026m
param *.uav[88].startZ 778m
param *.uav[89].startX 3537m
param *.uav[89].startY 965m
param *.uav[89].startZ 539m
param *.uav[90].startX 3537m
param *.uav[90].startY 965m
param *.uav[90].startZ 539m
param *.uav[91].startX 312m
param *.uav[91].startY 1262m
param *.uav[91].startZ 540m
param *.uav[92].startX 2185m
param *.uav[92].startY 3026m
param *.uav[92].startZ 778m
param *.uav[93].startX 3537m
param *.uav[93].startY 965m
param *.uav[93].startZ 539m
param *.uav[94].startX 312m
param *.uav[94].startY 1262m
param *.uav[94].startZ 540m
param *.uav[95].startX 2185m
param *.uav[95].startY 3026m
param *.uav[95].startZ 778m
param *.uav[96].startX 3537m
param *.uav[96].startY 965m
param *.uav[96].startZ 539m
param *.uav[97].startX 312m
param *.uav[97].startY 1262m
param *.uav[97].startZ 540m
param *.uav[98].startX 2185m
param *.uav[98].startY 3026m
param *.uav[98].startZ 778m
param *.uav[99].startX 3537m
param *.uav[99].startY 965m
param *.uav[99].startZ 539m
param *.osgEarthScene.scene "\"boston.earth\""
param *.playgroundLatitude 42.3558
param *.playgroundLongitude -71.0677
param *.playgroundWidth 400m
param *.playgroundHeight 200m
param *.channelController.connectionColor "\"#0000FF40\""
param *.channelController.showConnections false
param *.uav[*].modelURL "\"quadrocopter.small.obj.15.scale.0,0,90.rot\""
param *.uav[*].labelColor "\"#FF7C00CC\""
param *.uav[*].label2Color "\"#FF7C00EE\""
param *.uav[*].batteryCapacity 5200mAh
param *.uav[*].batteryRemaining uav[index].batteryCapacity
param *.uav[*].predictionQuantile 0.95
param *.uav[*].replacementMethod 2
param *.uav[*].weightedSumWeight 0.5
param *.cs[*].modelURL "\"chargingstation_v1.osgt.2.scale.0,0,0.rot.0,0,-15e-1.trans\""
param *.cs[*].spotsWaiting 999
param *.cs[*].spotsCharging 999
param *.cs[*].chargeEffectivenessPercentage 100
param *.cs[*].nonLinearPhaseStartPercentage 85
param *.cs[*].chargeCurrent 6.0A
param *.cs[*].prioritizeFastCharge true
param *.missionControl.replacementSearchMethod 0
param *.*.timeStep 9s

scalar OsgEarthNet.uav[0] utilizationSecMission 440
scalar OsgEarthNet.uav[0] utilizationSecMaintenance 447.1303002674
scalar OsgEarthNet.uav[0] utilizationSecCharge 3460
scalar OsgEarthNet.uav[0] utilizationSecIdle 254852.86869973
scalar OsgEarthNet.uav[0] utilizationEnergyMission 2450.0890197754
scalar OsgEarthNet.uav[0] utilizationEnergyMaintenance 2133.7049064636
scalar OsgEarthNet.uav[0] utilizationEnergyCharge 4535.2690429688
scalar OsgEarthNet.uav[0] utilizationEnergyOverdrawMission 0
scalar OsgEarthNet.uav[0] utilizationEnergyOverdrawMaintenance 0
scalar OsgEarthNet.uav[0] utilizationCountMissions 1
scalar OsgEarthNet.uav[0] utilizationCountManeuversMission 22
scalar OsgEarthNet.uav[0] utilizationCountManeuversMaintenance 2
scalar OsgEarthNet.uav[0] utilizationCountChargeState 1
scalar OsgEarthNet.uav[0] utilizationCountOverdrawnAfterMission 0
scalar OsgEarthNet.uav[0] utilizationCountIdleState 2
scalar OsgEarthNet.uav[0] utilizationFail 0
scalar OsgEarthNet.uav[0] simulationTime 259200
scalar OsgEarthNet.uav[1] utilizationSecMission 31025.779121096
scalar OsgEarthNet.uav[1] utilizationSecMaintenance 16748.486548077
scalar OsgEarthNet.uav[1] utilizationSecCharge 180248.32343948
scalar OsgEarthNet.uav[1] utilizationSecIdle 31177.40989135
scalar OsgEarthNet.uav[1] utilizationEnergyMission 147039.38881683
scalar OsgEarthNet.uav[1] utilizationEnergyMaintenance 79173.434020996
scalar OsgEarthNet.uav[1] utilizationEnergyCharge 227273.33300781
scalar OsgEarthNet.uav[1] utilizationEnergyOverdrawMission 0
scalar OsgEarthNet.uav[1] utilizationEnergyOverdrawMaintenance 0
scalar OsgEarthNet.uav[1] utilizationCountMissions 55
scalar OsgEarthNet.uav[1] utilizationCountManeuversMission 900
scalar OsgEarthNet.uav[1] utilizationCountManeuversMaintenance 110
scalar OsgEarthNet.uav[1] utilizationCountChargeState 55
scalar OsgEarthNet.uav[1] utilizationCountOverdrawnAfterMission 0
scalar OsgEarthNet.uav[1] utilizationCountIdleState 54
scalar OsgEarthNet.uav[1] utilizationFail 0
scalar OsgEarthNet.uav[1] simulationTime 259200
scalar OsgEarthNet.uav[2] utilizationSecMission 31224.604042004
scalar OsgEarthNet.uav[2] utilizationSecMaintenance 12681.256818931
scalar OsgEarthNet.uav[2] utilizationSecCharge 157544.30132502
scalar OsgEarthNet.uav[2] utilizationSecIdle 57749.83681404
scalar OsgEarthNet.uav[2] utilizationEnergyMission 149811.06850052
scalar OsgEarthNet.uav[2] utilizationEnergyMaintenance 57914.392269135
scalar OsgEarthNet.uav[2] utilizationEnergyCharge 204355.42749023
scalar OsgEarthNet.uav[2] utilizationEnergyOverdrawMission 0
scalar OsgEarthNet.uav[2] utilizationEnergyOverdrawMaintenance 0
scalar OsgEarthNet.uav[2] utilizationCountMissions 45
scalar OsgEarthNet.uav[2] utilizationCountManeuversMission 837
scalar OsgEarthNet.uav[2] utilizationCountManeuversMaintenance 90
scalar OsgEarthNet.uav[2] utilizationCountChargeState 45
scalar OsgEarthNet.uav[2] utilizationCountOverdrawnAfterMission 0
scalar OsgEarthNet.uav[2] utilizationCountIdleState 45
scalar OsgEarthNet.uav[2] utilizationFail 0
scalar OsgEarthNet.uav[2] simulationTime 259200
scalar OsgEarthNet.uav[3] utilizationSecMission 17877.243792213
scalar OsgEarthNet.uav[3] utilizationSecMaintenance 11201.697192832
scalar OsgEarthNet.uav[3] utilizationSecCharge 107909.05701496
scalar OsgEarthNet.uav[3] utilizationSecIdle 122212.001
scalar OsgEarthNet.uav[3] utilizationEnergyMission 86804.026390076
scalar OsgEarthNet.uav[3] utilizationEnergyMaintenance 53293.40806961
scalar OsgEarthNet.uav[3] utilizationEnergyCharge 139120.421875
scalar OsgEarthNet.uav[3] utilizationEnergyOverdrawMission 0
scalar OsgEarthNet.uav[3] utilizationEnergyOverdrawMaintenance 0
scalar OsgEarthNet.uav[3] utilizationCountMissions 31
scalar OsgEarthNet.uav[3] utilizationCountManeuversMission 586
scalar OsgEarthNet.uav[3] utilizationCountManeuversMaintenance 62
scalar OsgEarthNet.uav[3] utilizationCountChargeState 31
scalar OsgEarthNet.uav[3] utilizationCountOverdrawnAfterMission 0
scalar OsgEarthNet.uav[3] utilizationCountIdleState 31
scalar OsgEarthNet.uav[3] utilizationFail 0
scalar OsgEarthNet.uav[3] simulationTime 259200
scalar OsgEarthNet.uav[4] utilizationSecMission 29872.822816093
scalar OsgEarthNet.uav[4] utilizationSecMaintenance 17720.20108692
scalar OsgEarthNet.uav[4] utilizationSecCharge 181524.96609699
scalar OsgEarthNet.uav[4] utilizationSecIdle 30082.009
scalar OsgEarthNet.uav[4] utilizationEnergyMission 145150.26465607
scalar OsgEarthNet.uav[4] utilizationEnergyMaintenance 84670.241107941
scalar OsgEarthNet.uav[4] utilizationEnergyCharge 229457.03564453
scalar OsgEarthNet.uav[4] utilizationEnergyOverdrawMission 0
scalar OsgEarthNet.uav[4] utilizationEnergyOverdrawMaintenance 0
scalar OsgEarthNet.uav[4] utilizationCountMissions 55
scalar OsgEarthNet.uav[4] utilizationCountManeuversMission 973
scalar OsgEarthNet.uav[4] utilizationCountManeuversMaintenance 110
scalar OsgEarthNet.uav[4] utilizationCountChargeState 55
scalar OsgEarthNet.uav[4] utilizationCountOverdrawnAfterMission 0
scalar OsgEarthNet.uav[4] utilizationCountIdleState 55
scalar OsgEarthNet.uav[4] utilizationFail 0
scalar OsgEarthNet.uav[4] simulationTime 259200
scalar OsgEarthNet.uav[5] utilizationSecMission 27395.688682657
scalar OsgEarthNet.uav[5] utilizationSecMaintenance 12483.781902023
scalar OsgEarthNet.uav[5] utilizationSecCharge 146108.52741532
scalar OsgEarthNet.uav[5] utilizationSecIdle 73212.001
scalar OsgEarthNet.uav[5] utilizationEnergyMission 137010.19305038
scalar OsgEarthNet.uav[5] utilizationEnergyMaintenance 57643.549186707
scalar OsgEarthNet.uav[5] utilizationEnergyCharge 190462.42651367
scalar OsgEarthNet.uav[5] utilizationEnergyOverdrawMission 0
scalar OsgEarthNet.uav[5] utilizationEnergyOverdrawMaintenance 0
scalar OsgEarthNet.uav[5] utilizationCountMissions 42
scalar OsgEarthNet.uav[5] utilizationCountManeuversMission 973
scalar OsgEarthNet.uav[5] utilizationCountManeuversMaintenance 84
scalar OsgEarthNet.uav[5] utilizationCountChargeState 42
scalar OsgEarthNet.uav[5] utilizationCountOverdrawnAfterMission 0
scalar OsgEarthNet.uav[5] utilizationCountIdleState 41
scalar OsgEarthNet.uav[5] utilizationFail 0
scalar OsgEarthNet.uav[5] simulationTime 259200
scalar OsgEarthNet.uav[6] utilizationSecMission 10623.750915482
scalar OsgEarthNet.uav[6] utilizationSecMaintenance 7160.1942477622
scalar OsgEarthNet.uav[6] utilizationSecCharge 66850
scalar OsgEarthNet.uav[6] utilizationSecIdle 174566.05383676
scalar OsgEarthNet.uav[6] utilizationEnergyMission 52462.848854065
scalar OsgEarthNet.uav[6] utilizationEnergyMaintenance 34074.682144165
scalar OsgEarthNet.uav[6] utilizationEnergyCharge 86408.968261719
scalar OsgEarthNet.uav[6] utilizationEnergyOverdrawMission 0
scalar OsgEarthNet.uav[6] utilizationEnergyOverdrawMaintenance 0
scalar OsgEarthNet.uav[6] utilizationCountMissions 19
scalar OsgEarthNet.uav[6] utilizationCountManeuversMission 375
scalar OsgEarthNet.uav[6] utilizationCountManeuversMaintenance 38
scalar OsgEarthNet.uav[6] utilizationCountChargeState 19
scalar OsgEarthNet.uav[6] utilizationCountOverdrawnAfterMission 0
scalar OsgEarthNet.uav[6] utilizationCountIdleState 20
scalar OsgEarthNet.uav[6] utilizationFail 0
scalar OsgEarthNet.uav[6] simulationTime 259200
scalar OsgEarthNet.uav[7] utilizationSecMission 31180.587043737
scalar OsgEarthNet.uav[7] utilizationSecMaintenance 16568.332326137
scalar OsgEarthNet.uav[7] utilizationSecCharge 182970
scalar OsgEarthNet.uav[7] utilizationSecIdle 28481.079630125
scalar OsgEarthNet.uav[7] utilizationEnergyMission 150303.02652359
scalar OsgEarthNet.uav[7] utilizationEnergyMaintenance 78708.935436249
scalar OsgEarthNet.uav[7] utilizationEnergyCharge 228571.88500977
scalar OsgEarthNet.uav[7] utilizationEnergyOverdrawMission 0
scalar OsgEarthNet.uav[7] utilizationEnergyOverdrawMaintenance 0
scalar OsgEarthNet.uav[7] utilizationCountMissions 56
scalar OsgEarthNet.uav[7] utilizationCountManeuversMission 849
scalar OsgEarthNet.uav[7] utilizationCountManeuversMaintenance 112
scalar OsgEarthNet.uav[7] utilizationCountChargeState 56
scalar OsgEarthNet.uav[7] utilizationCountOverdrawnAfterMission 0
scalar OsgEarthNet.uav[7] utilizationCountIdleState 57
scalar OsgEarthNet.uav[7] utilizationFail 0
scalar OsgEarthNet.uav[7] simulationTime 259200
scalar OsgEarthNet.uav[8] utilizationSecMission 31225.573096304
scalar OsgEarthNet.uav[8] utilizationSecMaintenance 13548.399225366
scalar OsgEarthNet.uav[8] utilizationSecCharge 166190
scalar OsgEarthNet.uav[8] utilizationSecIdle 48236.02667833
scalar OsgEarthNet.uav[8] utilizationEnergyMission 153174.11378098
scalar OsgEarthNet.uav[8] utilizationEnergyMaintenance 62181.008579254
scalar OsgEarthNet.uav[8] utilizationEnergyCharge 214602.94384766
scalar OsgEarthNet.uav[8] utilizationEnergyOverdrawMission 0
scalar OsgEarthNet.uav[8] utilizationEnergyOverdrawMaintenance 0
scalar OsgEarthNet.uav[8] utilizationCountMissions 47
scalar OsgEarthNet.uav[8] utilizationCountManeuversMission 1111
scalar OsgEarthNet.uav[8] utilizationCountManeuversMaintenance 94
scalar OsgEarthNet.uav[8] utilizationCountChargeState 47
scalar OsgEarthNet.uav[8] utilizationCountOverdrawnAfterMission 0
scalar OsgEarthNet.uav[8] utilizationCountIdleState 48
scalar OsgEarthNet.uav[8] utilizationFail 0
scalar OsgEarthNet.uav[8] simulationTime 259200
scalar OsgEarthNet.uav[9] utilizationSecMission 11285.001220642
scalar OsgEarthNet.uav[9] utilizationSecMaintenance 6641.6718937932
scalar OsgEarthNet.uav[9] utilizationSecCharge 66580
scalar OsgEarthNet.uav[9] utilizationSecIdle 174693.32588556
scalar OsgEarthNet.uav[9] utilizationEnergyMission 54099.811855316
scalar OsgEarthNet.uav[9] utilizationEnergyMaintenance 31451.092075348
scalar OsgEarthNet.uav[9] utilizationEnergyCharge 85811.23046875
scalar OsgEarthNet.uav[9] utilizationEnergyOverdrawMission 0
scalar OsgEarthNet.uav[9] utilizationEnergyOverdrawMaintenance 0
scalar OsgEarthNet.uav[9] utilizationCountMissions 19
scalar OsgEarthNet.uav[9] utilizationCountManeuversMission 356
scalar OsgEarthNet.uav[9] utilizationCountManeuversMaintenance 38
scalar OsgEarthNet.uav[9] utilizationCountChargeState 19
scalar OsgEarthNet.uav[9] utilizationCountOverdrawnAfterMission 0
scalar OsgEarthNet.uav[9] utilizationCountIdleState 20
scalar OsgEarthNet.uav[9] utilizationFail 0
scalar OsgEarthNet.uav[9] simulationTime 259200
scalar OsgEarthNet.uav[10] utilizationSecMission 12565.001220642
scalar OsgEarthNet.uav[10] utilizationSecMaintenance 8246.0690402493
scalar OsgEarthNet.uav[10] utilizationSecCharge 77320
scalar OsgEarthNet.uav[10] utilizationSecIdle 161068.92873911
scalar OsgEarthNet.uav[10] utilizationEnergyMission 61325.098049164
scalar OsgEarthNet.uav[10] utilizationEnergyMaintenance 39122.609321594
scalar OsgEarthNet.uav[10] utilizationEnergyCharge 99969.184570312
scalar OsgEarthNet.uav[10] utilizationEnergyOverdrawMission 0
scalar OsgEarthNet.uav[10] utilizationEnergyOverdrawMaintenance 0
scalar OsgEarthNet.uav[10] utilizationCountMissions 22
scalar OsgEarthNet.uav[10] utilizationCountManeuversMission 420
scalar OsgEarthNet.uav[10] utilizationCountManeuversMaintenance 44
scalar OsgEarthNet.uav[10] utilizationCountChargeState 22
scalar OsgEarthNet.uav[10] utilizationCountOverdrawnAfterMission 0
scalar OsgEarthNet.uav[10] utilizationCountIdleState 23
scalar OsgEarthNet.uav[10] utilizationFail 0
scalar OsgEarthNet.uav[10] simulationTime 259200
scalar OsgEarthNet.uav[11] utilizationSecMission 31621.922419358
scalar OsgEarthNet.uav[11] utilizationSecMaintenance 16867.499961545
scalar OsgEarthNet.uav[11] utilizationSecCharge 181589.5188239
scalar OsgEarthNet.uav[11] utilizationSecIdle 29121.057795193
scalar OsgEarthNet.uav[11] utilizationEnergyMission 153878.05984497
scalar OsgEarthNet.uav[11] utilizationEnergyMaintenance 79215.347991943
scalar OsgEarthNet.uav[11] utilizationEnergyCharge 229791.55126953
scalar OsgEarthNet.uav[11] utilizationEnergyOverdrawMission 0
scalar OsgEarthNet.uav[11] utilizationEnergyOverdrawMaintenance 0
scalar OsgEarthNet.uav[11] utilizationCountMissions 55
scalar OsgEarthNet.uav[11] utilizationCountManeuversMission 923
scalar OsgEarthNet.uav[11] utilizationCountManeuversMaintenance 110
scalar OsgEarthNet.uav[11] utilizationCountChargeState 55
scalar OsgEarthNet.uav[11] utilizationCountOverdrawnAfterMission 0
scalar OsgEarthNet.uav[11] utilizationCountIdleState 55
scalar OsgEarthNet.uav[11] utilizationFail 0
scalar OsgEarthNet.uav[11] simulationTime 259200
scalar OsgEarthNet.uav[12] utilizationSecMission 30368.18773546
scalar OsgEarthNet.uav[12] utilizationSecMaintenance 13518.987961535
scalar OsgEarthNet.uav[12] utilizationSecCharge 163870.818303
scalar OsgEarthNet.uav[12] utilizationSecIdle 51442.005
scalar OsgEarthNet.uav[12] utilizationEnergyMission 148641.56225967
scalar OsgEarthNet.uav[12] utilizationEnergyMaintenance 63065.339393616
scalar OsgEarthNet.uav[12] utilizationEnergyCharge 212460.59960938
scalar OsgEarthNet.uav[12] utilizationEnergyOverdrawMission 0
scalar OsgEarthNet.uav[12] utilizationEnergyOverdrawMaintenance 0
scalar OsgEarthNet.uav[12] utilizationCountMissions 46
scalar OsgEarthNet.uav[12] utilizationCountManeuversMission 1035
scalar OsgEarthNet.uav[12] utilizationCountManeuversMaintenance 92
scalar OsgEarthNet.uav[12] utilizationCountChargeState 46
scalar OsgEarthNet.uav[12] utilizationCountOverdrawnAfterMission 0
scalar OsgEarthNet.uav[12] utilizationCountIdleState 46
scalar OsgEarthNet.uav[12] utilizationFail 0
scalar OsgEarthNet.uav[12] simulationTime 259200
scalar OsgEarthNet.uav[13] utilizationSecMission 13286.251525803
scalar OsgEarthNet.uav[13] utilizationSecMaintenance 7747.5980690305
scalar OsgEarthNet.uav[13] utilizationSecCharge 77610
scalar OsgEarthNet.uav[13] utilizationSecIdle 160556.14940517
scalar OsgEarthNet.uav[13] utilizationEnergyMission 64206.097236633
scalar OsgEarthNet.uav[13] utilizationEnergyMaintenance 37006.680866241
scalar OsgEarthNet.uav[13] utilizationEnergyCharge 100511.28222656
scalar OsgEarthNet.uav[13] utilizationEnergyOverdrawMission 0
scalar OsgEarthNet.uav[13] utilizationEnergyOverdrawMaintenance 0
scalar OsgEarthNet.uav[13] utilizationCountMissions 22
scalar OsgEarthNet.uav[13] utilizationCountManeuversMission 404
scalar OsgEarthNet.uav[13] utilizationCountManeuversMaintenance 44
scalar OsgEarthNet.uav[13] utilizationCountChargeState 22
scalar OsgEarthNet.uav[13] utilizationCountOverdrawnAfterMission 0
scalar OsgEarthNet.uav[13] utilizationCountIdleState 23
scalar OsgEarthNet.uav[13] utilizationFail 0
scalar OsgEarthNet.uav[13] simulationTime 259200
scalar OsgEarthNet.uav[14] utilizationSecMission 29642.478956613
scalar OsgEarthNet.uav[14] utilizationSecMaintenance 16485.228551935
scalar OsgEarthNet.uav[14] utilizationSecCharge 176010
scalar OsgEarthNet.uav[14] utilizationSecIdle 37062.291491452
scalar OsgEarthNet.uav[14] utilizationEnergyMission 141255.30223465
scalar OsgEarthNet.uav[14] utilizationEnergyMaintenance 77439.305957794
scalar OsgEarthNet.uav[14] utilizationEnergyCharge 219662.17163086
scalar OsgEarthNet.uav[14] utilizationEnergyOverdrawMission 0
scalar OsgEarthNet.uav[14] utilizationEnergyOverdrawMaintenance 0
scalar OsgEarthNet.uav[14] utilizationCountMissions 54
scalar OsgEarthNet.uav[14] utilizationCountManeuversMission 896
scalar OsgEarthNet.uav[14] utilizationCountManeuversMaintenance 108
scalar OsgEarthNet.uav[14] utilizationCountChargeState 54
scalar OsgEarthNet.uav[14] utilizationCountOverdrawnAfterMission 0
scalar OsgEarthNet.uav[14] utilizationCountIdleState 55
scalar OsgEarthNet.uav[14] utilizationFail 0
scalar OsgEarthNet.uav[14] simulationTime 259200
scalar OsgEarthNet.uav[15] utilizationSecMission 31241.522916178
scalar OsgEarthNet.uav[15] utilizationSecMaintenance 14054.460198818
scalar OsgEarthNet.uav[15] utilizationSecCharge 164292.014885
scalar OsgEarthNet.uav[15] utilizationSecIdle 49612.001
scalar OsgEarthNet.uav[15] utilizationEnergyMission 155051.67525864
scalar OsgEarthNet.uav[15] utilizationEnergyMaintenance 64286.286682129
scalar OsgEarthNet.uav[15] utilizationEnergyCharge 213413.22265625
scalar OsgEarthNet.uav[15] utilizationEnergyOverdrawMission 0
scalar OsgEarthNet.uav[15] utilizationEnergyOverdrawMaintenance 0
scalar OsgEarthNet.uav[15] utilizationCountMissions 47
scalar OsgEarthNet.uav[15] utilizationCountManeuversMission 1106
scalar OsgEarthNet.uav[15] utilizationCountManeuversMaintenance 94
scalar OsgEarthNet.uav[15] utilizationCountChargeState 47
scalar OsgEarthNet.uav[15] utilizationCountOverdrawnAfterMission 0
scalar OsgEarthNet.uav[15] utilizationCountIdleState 46
scalar OsgEarthNet.uav[15] utilizationFail 0
scalar OsgEarthNet.uav[15] simulationTime 259200
scalar OsgEarthNet.uav[16] utilizationSecMission 13224.376068062
scalar OsgEarthNet.uav[16] utilizationSecMaintenance 9133.0760447548
scalar OsgEarthNet.uav[16] utilizationSecCharge 83320
scalar OsgEarthNet.uav[16] utilizationSecIdle 153522.54688718
scalar OsgEarthNet.uav[16] utilizationEnergyMission 65498.544815063
scalar OsgEarthNet.uav[16] utilizationEnergyMaintenance 43295.970977783
scalar OsgEarthNet.uav[16] utilizationEnergyCharge 106972.0390625
scalar OsgEarthNet.uav[16] utilizationEnergyOverdrawMission 0
scalar OsgEarthNet.uav[16] utilizationEnergyOverdrawMaintenance 0
scalar OsgEarthNet.uav[16] utilizationCountMissions 24
scalar OsgEarthNet.uav[16] utilizationCountManeuversMission 479
scalar OsgEarthNet.uav[16] utilizationCountManeuversMaintenance 48
scalar OsgEarthNet.uav[16] utilizationCountChargeState 24
scalar OsgEarthNet.uav[16] utilizationCountOverdrawnAfterMission 0
scalar OsgEarthNet.uav[16] utilizationCountIdleState 25
scalar OsgEarthNet.uav[16] utilizationFail 0
scalar OsgEarthNet.uav[16] simulationTime 259200
scalar OsgEarthNet.uav[17] utilizationSecMission 32298.975290865
scalar OsgEarthNet.uav[17] utilizationSecMaintenance 13199.017709135
scalar OsgEarthNet.uav[17] utilizationSecCharge 165130
scalar OsgEarthNet.uav[17] utilizationSecIdle 48572.006
scalar OsgEarthNet.uav[17] utilizationEnergyMission 154902.88460514
scalar OsgEarthNet.uav[17] utilizationEnergyMaintenance 60219.987628937
scalar OsgEarthNet.uav[17] utilizationEnergyCharge 212425.95385742
scalar OsgEarthNet.uav[17] utilizationEnergyOverdrawMission 0
scalar OsgEarthNet.uav[17] utilizationEnergyOverdrawMaintenance 0
scalar OsgEarthNet.uav[17] utilizationCountMissions 47
scalar OsgEarthNet.uav[17] utilizationCountManeuversMission 962
scalar OsgEarthNet.uav[17] utilizationCountManeuversMaintenance 95
scalar OsgEarthNet.uav[17] utilizationCountChargeState 47
scalar OsgEarthNet.uav[17] utilizationCountOverdrawnAfterMission 0
scalar OsgEarthNet.uav[17] utilizationCountIdleState 48
scalar OsgEarthNet.uav[17] utilizationFail 0
scalar OsgEarthNet.uav[17] simulationTime 259200
scalar OsgEarthNet.uav[18] utilizationSecMission 33128.731143388
scalar OsgEarthNet.uav[18] utilizationSecMaintenance 13327.185037001
scalar OsgEarthNet.uav[18] utilizationSecCharge 169492.07981961
scalar OsgEarthNet.uav[18] utilizationSecIdle 43252.003
scalar OsgEarthNet.uav[18] utilizationEnergyMission 160968.19429779
scalar OsgEarthNet.uav[18] utilizationEnergyMaintenance 61826.851776123
scalar OsgEarthNet.uav[18] utilizationEnergyCharge 220353.76831055
scalar OsgEarthNet.uav[18] utilizationEnergyOverdrawMission 0
scalar OsgEarthNet.uav[18] utilizationEnergyOverdrawMaintenance 0
scalar OsgEarthNet.uav[18] utilizationCountMissions 48
scalar OsgEarthNet.uav[18] utilizationCountManeuversMission 1034
scalar OsgEarthNet.uav[18] utilizationCountManeuversMaintenance 96
scalar OsgEarthNet.uav[18] utilizationCountChargeState 48
scalar OsgEarthNet.uav[18] utilizationCountOverdrawnAfterMission 0
scalar OsgEarthNet.uav[18] utilizationCountIdleState 48
scalar OsgEarthNet.uav[18] utilizationFail 0
scalar OsgEarthNet.uav[18] simulationTime 259200
scalar OsgEarthNet.uav[19] utilizationSecMission 15248.752136124
scalar OsgEarthNet.uav[19] utilizationSecMaintenance 7877.5814217838
scalar OsgEarthNet.uav[19] utilizationSecCharge 85010
scalar OsgEarthNet.uav[19] utilizationSecIdle 151063.66544209
scalar OsgEarthNet.uav[19] utilizationEnergyMission 72157.457294464
scalar OsgEarthNet.uav[19] utilizationEnergyMaintenance 37606.489624023
scalar OsgEarthNet.uav[19] utilizationEnergyCharge 110025.11523438
scalar OsgEarthNet.uav[19] utilizationEnergyOverdrawMission 0
scalar OsgEarthNet.uav[19] utilizationEnergyOverdrawMaintenance 0
scalar OsgEarthNet.uav[19] utilizationCountMissions 24
scalar OsgEarthNet.uav[19] utilizationCountManeuversMission 398
scalar OsgEarthNet.uav[19] utilizationCountManeuversMaintenance 48
scalar OsgEarthNet.uav[19] utilizationCountChargeState 24
scalar OsgEarthNet.uav[19] utilizationCountOverdrawnAfterMission 0
scalar OsgEarthNet.uav[19] utilizationCountIdleState 25
scalar OsgEarthNet.uav[19] utilizationFail 0
scalar OsgEarthNet.uav[19] simulationTime 259200
scalar OsgEarthNet.uav[20] utilizationSecMission 11503.750915482
scalar OsgEarthNet.uav[20] utilizationSecMaintenance 8132.3937028882
scalar OsgEarthNet.uav[20] utilizationSecCharge 69981.84338163
scalar OsgEarthNet.uav[20] utilizationSecIdle 169582.011
scalar OsgEarthNet.uav[20] utilizationEnergyMission 55598.654937744
scalar OsgEarthNet.uav[20] utilizationEnergyMaintenance 38869.876644134
scalar OsgEarthNet.uav[20] utilizationEnergyCharge 90397.1796875
scalar OsgEarthNet.uav[20] utilizationEnergyOverdrawMission 0
scalar OsgEarthNet.uav[20] utilizationEnergyOverdrawMaintenance 0
scalar OsgEarthNet.uav[20] utilizationCountMissions 21
scalar OsgEarthNet.uav[20] utilizationCountManeuversMission 419
scalar OsgEarthNet.uav[20] utilizationCountManeuversMaintenance 42
scalar OsgEarthNet.uav[20] utilizationCountChargeState 21
scalar OsgEarthNet.uav[20] utilizationCountOverdrawnAfterMission 0
scalar OsgEarthNet.uav[20] utilizationCountIdleState 21
scalar OsgEarthNet.uav[20] utilizationFail 0
scalar OsgEarthNet.uav[20] simulationTime 259200
scalar OsgEarthNet.uav[21] utilizationSecMission 31104.232542013
scalar OsgEarthNet.uav[21] utilizationSecMaintenance 17211.154568471
scalar OsgEarthNet.uav[21] utilizationSecCharge 183300
scalar OsgEarthNet.uav[21] utilizationSecIdle 27584.611889516
scalar OsgEarthNet.uav[21] utilizationEnergyMission 145942.08245382
scalar OsgEarthNet.uav[21] utilizationEnergyMaintenance 81597.205295563
scalar OsgEarthNet.uav[21] utilizationEnergyCharge 227390.07080078
scalar OsgEarthNet.uav[21] utilizationEnergyOverdrawMission 0
scalar OsgEarthNet.uav[21] utilizationEnergyOverdrawMaintenance 0
scalar OsgEarthNet.uav[21] utilizationCountMissions 57
scalar OsgEarthNet.uav[21] utilizationCountManeuversMission 801
scalar OsgEarthNet.uav[21] utilizationCountManeuversMaintenance 115
scalar OsgEarthNet.uav[21] utilizationCountChargeState 57
scalar OsgEarthNet.uav[21] utilizationCountOverdrawnAfterMission 0
scalar OsgEarthNet.uav[21] utilizationCountIdleState 57
scalar OsgEarthNet.uav[21] utilizationFail 0
scalar OsgEarthNet.uav[21] simulationTime 259200
scalar OsgEarthNet.uav[22] utilizationSecMission 32445.968518099
scalar OsgEarthNet.uav[22] utilizationSecMaintenance 12202.155795635
scalar OsgEarthNet.uav[22] utilizationSecCharge 164399.87268627
scalar OsgEarthNet.uav[22] utilizationSecIdle 50152.002
scalar OsgEarthNet.uav[22] utilizationEnergyMission 155798.98469162
scalar OsgEarthNet.uav[22] utilizationEnergyMaintenance 56938.468727112
scalar OsgEarthNet.uav[22] utilizationEnergyCharge 214738.18359375
scalar OsgEarthNet.uav[22] utilizationEnergyOverdrawMission 0
scalar OsgEarthNet.uav[22] utilizationEnergyOverdrawMaintenance 0
scalar OsgEarthNet.uav[22] utilizationCountMissions 46
scalar OsgEarthNet.uav[22] utilizationCountManeuversMission 931
scalar OsgEarthNet.uav[22] utilizationCountManeuversMaintenance 92
scalar OsgEarthNet.uav[22] utilizationCountChargeState 46
scalar OsgEarthNet.uav[22] utilizationCountOverdrawnAfterMission 0
scalar OsgEarthNet.uav[22] utilizationCountIdleState 45
scalar OsgEarthNet.uav[22] utilizationFail 0
scalar OsgEarthNet.uav[22] simulationTime 259200
scalar OsgEarthNet.uav[23] utilizationSecMission 24601.402149307
scalar OsgEarthNet.uav[23] utilizationSecMaintenance 15234.890239746
scalar OsgEarthNet.uav[23] utilizationSecCharge 153900
scalar OsgEarthNet.uav[23] utilizationSecIdle 65463.706610946
scalar OsgEarthNet.uav[23] utilizationEnergyMission 117933.70299911
scalar OsgEarthNet.uav[23] utilizationEnergyMaintenance 72432.095600128
scalar OsgEarthNet.uav[23] utilizationEnergyCharge 192638.43774414
scalar OsgEarthNet.uav[23] utilizationEnergyOverdrawMission 0
scalar OsgEarthNet.uav[23] utilizationEnergyOverdrawMaintenance 0
scalar OsgEarthNet.uav[23] utilizationCountMissions 47
scalar OsgEarthNet.uav[23] utilizationCountManeuversMission 712
scalar OsgEarthNet.uav[23] utilizationCountManeuversMaintenance 94
scalar OsgEarthNet.uav[23] utilizationCountChargeState 47
scalar OsgEarthNet.uav[23] utilizationCountOverdrawnAfterMission 0
scalar OsgEarthNet.uav[23] utilizationCountIdleState 48
scalar OsgEarthNet.uav[23] utilizationFail 0
scalar OsgEarthNet.uav[23] simulationTime 259200
scalar OsgEarthNet.uav[24] utilizationSecMission 30533.181147064
scalar OsgEarthNet.uav[24] utilizationSecMaintenance 17769.80882983
scalar OsgEarthNet.uav[24] utilizationSecCharge 183268.46889292
scalar OsgEarthNet.uav[24] utilizationSecIdle 27628.540130183
scalar OsgEarthNet.uav[24] utilizationEnergyMission 147323.63788605
scalar OsgEarthNet.uav[24] utilizationEnergyMaintenance 83913.482158661
scalar OsgEarthNet.uav[24] utilizationEnergyCharge 230107.82543945
scalar OsgEarthNet.uav[24] utilizationEnergyOverdrawMission 0
scalar OsgEarthNet.uav[24] utilizationEnergyOverdrawMaintenance 0
scalar OsgEarthNet.uav[24] utilizationCountMissions 56
scalar OsgEarthNet.uav[24] utilizationCountManeuversMission 919
scalar OsgEarthNet.uav[24] utilizationCountManeuversMaintenance 112
scalar OsgEarthNet.uav[24] utilizationCountChargeState 56
scalar OsgEarthNet.uav[24] utilizationCountOverdrawnAfterMission 0
scalar OsgEarthNet.uav[24] utilizationCountIdleState 55
scalar OsgEarthNet.uav[24] utilizationFail 0
scalar OsgEarthNet.uav[24] simulationTime 259200
scalar OsgEarthNet.uav[25] utilizationSecMission 32626.224540659
scalar OsgEarthNet.uav[25] utilizationSecMaintenance 11591.122209133
scalar OsgEarthNet.uav[25] utilizationSecCharge 161130
scalar OsgEarthNet.uav[25] utilizationSecIdle 53852.652250207
scalar OsgEarthNet.uav[25] utilizationEnergyMission 156870.13155365
scalar OsgEarthNet.uav[25] utilizationEnergyMaintenance 53393.474422455
scalar OsgEarthNet.uav[25] utilizationEnergyCharge 209466.07714844
scalar OsgEarthNet.uav[25] utilizationEnergyOverdrawMission 0
scalar OsgEarthNet.uav[25] utilizationEnergyOverdrawMaintenance 0
scalar OsgEarthNet.uav[25] utilizationCountMissions 45
scalar OsgEarthNet.uav[25] utilizationCountManeuversMission 938
scalar OsgEarthNet.uav[25] utilizationCountManeuversMaintenance 90
scalar OsgEarthNet.uav[25] utilizationCountChargeState 45
scalar OsgEarthNet.uav[25] utilizationCountOverdrawnAfterMission 0
scalar OsgEarthNet.uav[25] utilizationCountIdleState 45
scalar OsgEarthNet.uav[25] utilizationFail 0
scalar OsgEarthNet.uav[25] simulationTime 259200
scalar OsgEarthNet.uav[26] utilizationSecMission 31295.855596226
scalar OsgEarthNet.uav[26] utilizationSecMaintenance 13346.559286727
scalar OsgEarthNet.uav[26] utilizationSecCharge 164470
scalar OsgEarthNet.uav[26] utilizationSecIdle 50087.584117047
scalar OsgEarthNet.uav[26] utilizationEnergyMission 151543.330616
scalar OsgEarthNet.uav[26] utilizationEnergyMaintenance 61792.482959747
scalar OsgEarthNet.uav[26] utilizationEnergyCharge 213217.78320312
scalar OsgEarthNet.uav[26] utilizationEnergyOverdrawMission 0
scalar OsgEarthNet.uav[26] utilizationEnergyOverdrawMaintenance 0
scalar OsgEarthNet.uav[26] utilizationCountMissions 46
scalar OsgEarthNet.uav[26] utilizationCountManeuversMission 1000
scalar OsgEarthNet.uav[26] utilizationCountManeuversMaintenance 92
scalar OsgEarthNet.uav[26] utilizationCountChargeState 46
scalar OsgEarthNet.uav[26] utilizationCountOverdrawnAfterMission 0
scalar OsgEarthNet.uav[26] utilizationCountIdleState 47
scalar OsgEarthNet.uav[26] utilizationFail 0
scalar OsgEarthNet.uav[26] simulationTime 259200
scalar OsgEarthNet.uav[27] utilizationSecMission 31970.881090954
scalar OsgEarthNet.uav[27] utilizationSecMaintenance 15927.309606841
scalar OsgEarthNet.uav[27] utilizationSecCharge 179480
scalar OsgEarthNet.uav[27] utilizationSecIdle 31821.808302205
scalar OsgEarthNet.uav[27] utilizationEnergyMission 151389.98648861
scalar OsgEarthNet.uav[27] utilizationEnergyMaintenance 75373.056121826
scalar OsgEarthNet.uav[27] utilizationEnergyCharge 224247.99438477
scalar OsgEarthNet.uav[27] utilizationEnergyOverdrawMission 0
scalar OsgEarthNet.uav[27] utilizationEnergyOverdrawMaintenance 0
scalar OsgEarthNet.uav[27] utilizationCountMissions 55
scalar OsgEarthNet.uav[27] utilizationCountManeuversMission 787
scalar OsgEarthNet.uav[27] utilizationCountManeuversMaintenance 111
scalar OsgEarthNet.uav[27] utilizationCountChargeState 55
scalar OsgEarthNet.uav[27] utilizationCountOverdrawnAfterMission 0
scalar OsgEarthNet.uav[27] utilizationCountIdleState 56
scalar OsgEarthNet.uav[27] utilizationFail 0
scalar OsgEarthNet.uav[27] simulationTime 259200
scalar OsgEarthNet.uav[28] utilizationSecMission 32432.840513481
scalar OsgEarthNet.uav[28] utilizationSecMaintenance 13046.104598464
scalar OsgEarthNet.uav[28] utilizationSecCharge 165109.05388805
scalar OsgEarthNet.uav[28] utilizationSecIdle 48612
scalar OsgEarthNet.uav[28] utilizationEnergyMission 159215.10106277
scalar OsgEarthNet.uav[28] utilizationEnergyMaintenance 59828.155857086
scalar OsgEarthNet.uav[28] utilizationEnergyCharge 214795.1184082
scalar OsgEarthNet.uav[28] utilizationEnergyOverdrawMission 0
scalar OsgEarthNet.uav[28] utilizationEnergyOverdrawMaintenance 0
scalar OsgEarthNet.uav[28] utilizationCountMissions 47
scalar OsgEarthNet.uav[28] utilizationCountManeuversMission 1101
scalar OsgEarthNet.uav[28] utilizationCountManeuversMaintenance 94
scalar OsgEarthNet.uav[28] utilizationCountChargeState 47
scalar OsgEarthNet.uav[28] utilizationCountOverdrawnAfterMission 0
scalar OsgEarthNet.uav[28] utilizationCountIdleState 46
scalar OsgEarthNet.uav[28] utilizationFail 0
scalar OsgEarthNet.uav[28] simulationTime 259200
scalar OsgEarthNet.uav[29] utilizationSecMission 32007.640335141
scalar OsgEarthNet.uav[29] utilizationSecMaintenance 14577.902054419
scalar OsgEarthNet.uav[29] utilizationSecCharge 170993.50735477
scalar OsgEarthNet.uav[29] utilizationSecIdle 41620.949255665
scalar OsgEarthNet.uav[29] utilizationEnergyMission 157756.07781601
scalar OsgEarthNet.uav[29] utilizationEnergyMaintenance 67587.339977264
scalar OsgEarthNet.uav[29] utilizationEnergyCharge 220739.93981934
scalar OsgEarthNet.uav[29] utilizationEnergyOverdrawMission 0
scalar OsgEarthNet.uav[29] utilizationEnergyOverdrawMaintenance 0
scalar OsgEarthNet.uav[29] utilizationCountMissions 49
scalar OsgEarthNet.uav[29] utilizationCountManeuversMission 1154
scalar OsgEarthNet.uav[29] utilizationCountManeuversMaintenance 98
scalar OsgEarthNet.uav[29] utilizationCountChargeState 49
scalar OsgEarthNet.uav[29] utilizationCountOverdrawnAfterMission 0
scalar OsgEarthNet.uav[29] utilizationCountIdleState 49
scalar OsgEarthNet.uav[29] utilizationFail 0
scalar OsgEarthNet.uav[29] simulationTime 259200
scalar OsgEarthNet.uav[30] utilizationSecMission 16654.743181892
scalar OsgEarthNet.uav[30] utilizationSecMaintenance 11596.512888897
scalar OsgEarthNet.uav[30] utilizationSecCharge 104266.73892921
scalar OsgEarthNet.uav[30] utilizationSecIdle 126682.004
scalar OsgEarthNet.uav[30] utilizationEnergyMission 81654.838703156
scalar OsgEarthNet.uav[30] utilizationEnergyMaintenance 54830.225318909
scalar OsgEarthNet.uav[30] utilizationEnergyCharge 135433.47631836
scalar OsgEarthNet.uav[30] utilizationEnergyOverdrawMission 0
scalar OsgEarthNet.uav[30] utilizationEnergyOverdrawMaintenance 0
scalar OsgEarthNet.uav[30] utilizationCountMissions 30
scalar OsgEarthNet.uav[30] utilizationCountManeuversMission 629
scalar OsgEarthNet.uav[30] utilizationCountManeuversMaintenance 60
scalar OsgEarthNet.uav[30] utilizationCountChargeState 30
scalar OsgEarthNet.uav[30] utilizationCountOverdrawnAfterMission 0
scalar OsgEarthNet.uav[30] utilizationCountIdleState 30
scalar OsgEarthNet.uav[30] utilizationFail 0
scalar OsgEarthNet.uav[30] simulationTime 259200
scalar OsgEarthNet.uav[31] utilizationSecMission 30609.879999668
scalar OsgEarthNet.uav[31] utilizationSecMaintenance 18023.469129956
scalar OsgEarthNet.uav[31] utilizationSecCharge 184454.64836365
scalar OsgEarthNet.uav[31] utilizationSecIdle 26112.001506722
scalar OsgEarthNet.uav[31] utilizationEnergyMission 147858.94132233
scalar OsgEarthNet.uav[31] utilizationEnergyMaintenance 85950.264987946
scalar OsgEarthNet.uav[31] utilizationEnergyCharge 229449.85839844
scalar OsgEarthNet.uav[31] utilizationEnergyOverdrawMission 0
scalar OsgEarthNet.uav[31] utilizationEnergyOverdrawMaintenance 0
scalar OsgEarthNet.uav[31] utilizationCountMissions 58
scalar OsgEarthNet.uav[31] utilizationCountManeuversMission 884
scalar OsgEarthNet.uav[31] utilizationCountManeuversMaintenance 116
scalar OsgEarthNet.uav[31] utilizationCountChargeState 58
scalar OsgEarthNet.uav[31] utilizationCountOverdrawnAfterMission 0
scalar OsgEarthNet.uav[31] utilizationCountIdleState 58
scalar OsgEarthNet.uav[31] utilizationFail 0
scalar OsgEarthNet.uav[31] simulationTime 259200
scalar OsgEarthNet.uav[32] utilizationSecMission 31932.529377936
scalar OsgEarthNet.uav[32] utilizationSecMaintenance 14290.019358033
scalar OsgEarthNet.uav[32] utilizationSecCharge 170510
scalar OsgEarthNet.uav[32] utilizationSecIdle 42467.450264031
scalar OsgEarthNet.uav[32] utilizationEnergyMission 157990.19847107
scalar OsgEarthNet.uav[32] utilizationEnergyMaintenance 65834.69893947
scalar OsgEarthNet.uav[32] utilizationEnergyCharge 221090.89404297
scalar OsgEarthNet.uav[32] utilizationEnergyOverdrawMission 0
scalar OsgEarthNet.uav[32] utilizationEnergyOverdrawMaintenance 0
scalar OsgEarthNet.uav[32] utilizationCountMissions 48
scalar OsgEarthNet.uav[32] utilizationCountManeuversMission 1180
scalar OsgEarthNet.uav[32] utilizationCountManeuversMaintenance 97
scalar OsgEarthNet.uav[32] utilizationCountChargeState 48
scalar OsgEarthNet.uav[32] utilizationCountOverdrawnAfterMission 0
scalar OsgEarthNet.uav[32] utilizationCountIdleState 48
scalar OsgEarthNet.uav[32] utilizationFail 0
scalar OsgEarthNet.uav[32] simulationTime 259200
scalar OsgEarthNet.uav[33] utilizationSecMission 13103.125762901
scalar OsgEarthNet.uav[33] utilizationSecMaintenance 10176.386189208
scalar OsgEarthNet.uav[33] utilizationSecCharge 87890
scalar OsgEarthNet.uav[33] utilizationSecIdle 148030.48704789
scalar OsgEarthNet.uav[33] utilizationEnergyMission 66028.939342499
scalar OsgEarthNet.uav[33] utilizationEnergyMaintenance 48702.701152801
scalar OsgEarthNet.uav[33] utilizationEnergyCharge 113524.08740234
scalar OsgEarthNet.uav[33] utilizationEnergyOverdrawMission 0
scalar OsgEarthNet.uav[33] utilizationEnergyOverdrawMaintenance 0
scalar OsgEarthNet.uav[33] utilizationCountMissions 25
scalar OsgEarthNet.uav[33] utilizationCountManeuversMission 525
scalar OsgEarthNet.uav[33] utilizationCountManeuversMaintenance 50
scalar OsgEarthNet.uav[33] utilizationCountChargeState 25
scalar OsgEarthNet.uav[33] utilizationCountOverdrawnAfterMission 0
scalar OsgEarthNet.uav[33] utilizationCountIdleState 26
scalar OsgEarthNet.uav[33] utilizationFail 0
scalar OsgEarthNet.uav[33] simulationTime 259200
scalar OsgEarthNet.uav[34] utilizationSecMission 30783.51944352
scalar OsgEarthNet.uav[34] utilizationSecMaintenance 17513.939960258
scalar OsgEarthNet.uav[34] utilizationSecCharge 183357.83389719
scalar OsgEarthNet.uav[34] utilizationSecIdle 27544.705699036
scalar OsgEarthNet.uav[34] utilizationEnergyMission 146227.18521881
scalar OsgEarthNet.uav[34] utilizationEnergyMaintenance 83526.009361267
scalar OsgEarthNet.uav[34] utilizationEnergyCharge 229245.34326172
scalar OsgEarthNet.uav[34] utilizationEnergyOverdrawMission 0
scalar OsgEarthNet.uav[34] utilizationEnergyOverdrawMaintenance 0
scalar OsgEarthNet.uav[34] utilizationCountMissions 57
scalar OsgEarthNet.uav[34] utilizationCountManeuversMission 869
scalar OsgEarthNet.uav[34] utilizationCountManeuversMaintenance 114
scalar OsgEarthNet.uav[34] utilizationCountChargeState 57
scalar OsgEarthNet.uav[34] utilizationCountOverdrawnAfterMission 0
scalar OsgEarthNet.uav[34] utilizationCountIdleState 57
scalar OsgEarthNet.uav[34] utilizationFail 0
scalar OsgEarthNet.uav[34] simulationTime 259200
scalar OsgEarthNet.uav[35] utilizationSecMission 32110.754073308
scalar OsgEarthNet.uav[35] utilizationSecMaintenance 13317.241926692
scalar OsgEarthNet.uav[35] utilizationSecCharge 167190
scalar OsgEarthNet.uav[35] utilizationSecIdle 46582.003
scalar OsgEarthNet.uav[35] utilizationEnergyMission 156000.83182094
scalar OsgEarthNet.uav[35] utilizationEnergyMaintenance 62203.733921051
scalar OsgEarthNet.uav[35] utilizationEnergyCharge 216931.71728516
scalar OsgEarthNet.uav[35] utilizationEnergyOverdrawMission 0
scalar OsgEarthNet.uav[35] utilizationEnergyOverdrawMaintenance 0
scalar OsgEarthNet.uav[35] utilizationCountMissions 47
scalar OsgEarthNet.uav[35] utilizationCountManeuversMission 1101
scalar OsgEarthNet.uav[35] utilizationCountManeuversMaintenance 95
scalar OsgEarthNet.uav[35] utilizationCountChargeState 47
scalar OsgEarthNet.uav[35] utilizationCountOverdrawnAfterMission 0
scalar OsgEarthNet.uav[35] utilizationCountIdleState 47
scalar OsgEarthNet.uav[35] utilizationFail 0
scalar OsgEarthNet.uav[35] simulationTime 259200
scalar OsgEarthNet.uav[36] utilizationSecMission 18957.759869714
scalar OsgEarthNet.uav[36] utilizationSecMaintenance 12430.099319735
scalar OsgEarthNet.uav[36] utilizationSecCharge 116320
scalar OsgEarthNet.uav[36] utilizationSecIdle 111492.13981055
scalar OsgEarthNet.uav[36] utilizationEnergyMission 91310.10496521
scalar OsgEarthNet.uav[36] utilizationEnergyMaintenance 59242.912525868
scalar OsgEarthNet.uav[36] utilizationEnergyCharge 150231.42236328
scalar OsgEarthNet.uav[36] utilizationEnergyOverdrawMission 0
scalar OsgEarthNet.uav[36] utilizationEnergyOverdrawMaintenance 0
scalar OsgEarthNet.uav[36] utilizationCountMissions 33
scalar OsgEarthNet.uav[36] utilizationCountManeuversMission 631
scalar OsgEarthNet.uav[36] utilizationCountManeuversMaintenance 67
scalar OsgEarthNet.uav[36] utilizationCountChargeState 33
scalar OsgEarthNet.uav[36] utilizationCountOverdrawnAfterMission 0
scalar OsgEarthNet.uav[36] utilizationCountIdleState 34
scalar OsgEarthNet.uav[36] utilizationFail 0
scalar OsgEarthNet.uav[36] simulationTime 259200
scalar OsgEarthNet.uav[37] utilizationSecMission 30792.258780461
scalar OsgEarthNet.uav[37] utilizationSecMaintenance 17502.506725874
scalar OsgEarthNet.uav[37] utilizationSecCharge 183138.86112336
scalar OsgEarthNet.uav[37] utilizationSecIdle 27766.372370302
scalar OsgEarthNet.uav[37] utilizationEnergyMission 148219.8552742
scalar OsgEarthNet.uav[37] utilizationEnergyMaintenance 82876.503520966
scalar OsgEarthNet.uav[37] utilizationEnergyCharge 229208.55126953
scalar OsgEarthNet.uav[37] utilizationEnergyOverdrawMission 0
scalar OsgEarthNet.uav[37] utilizationEnergyOverdrawMaintenance 0
scalar OsgEarthNet.uav[37] utilizationCountMissions 56
scalar OsgEarthNet.uav[37] utilizationCountManeuversMission 892
scalar OsgEarthNet.uav[37] utilizationCountManeuversMaintenance 112
scalar OsgEarthNet.uav[37] utilizationCountChargeState 56
scalar OsgEarthNet.uav[37] utilizationCountOverdrawnAfterMission 0
scalar OsgEarthNet.uav[37] utilizationCountIdleState 55
scalar OsgEarthNet.uav[37] utilizationFail 0
scalar OsgEarthNet.uav[37] simulationTime 259200
scalar OsgEarthNet.uav[38] utilizationSecMission 32018.662341313
scalar OsgEarthNet.uav[38] utilizationSecMaintenance 13646.125355589
scalar OsgEarthNet.uav[38] utilizationSecCharge 167674.50324573
scalar OsgEarthNet.uav[38] utilizationSecIdle 45860.708057366
scalar OsgEarthNet.uav[38] utilizationEnergyMission 155993.84968948
scalar OsgEarthNet.uav[38] utilizationEnergyMaintenance 63965.13458252
scalar OsgEarthNet.uav[38] utilizationEnergyCharge 217186.92834473
scalar OsgEarthNet.uav[38] utilizationEnergyOverdrawMission 0
scalar OsgEarthNet.uav[38] utilizationEnergyOverdrawMaintenance 0
scalar OsgEarthNet.uav[38] utilizationCountMissions 48
scalar OsgEarthNet.uav[38] utilizationCountManeuversMission 1080
scalar OsgEarthNet.uav[38] utilizationCountManeuversMaintenance 96
scalar OsgEarthNet.uav[38] utilizationCountChargeState 48
scalar OsgEarthNet.uav[38] utilizationCountOverdrawnAfterMission 0
scalar OsgEarthNet.uav[38] utilizationCountIdleState 48
scalar OsgEarthNet.uav[38] utilizationFail 0
scalar OsgEarthNet.uav[38] simulationTime 259200
scalar OsgEarthNet.uav[39] utilizationSecMission 28971.444399851
scalar OsgEarthNet.uav[39] utilizationSecMaintenance 16931.234030404
scalar OsgEarthNet.uav[39] utilizationSecCharge 173530.17152957
scalar OsgEarthNet.uav[39] utilizationSecIdle 39767.149040176
scalar OsgEarthNet.uav[39] utilizationEnergyMission 140661.69377899
scalar OsgEarthNet.uav[39] utilizationEnergyMaintenance 80693.759937286
scalar OsgEarthNet.uav[39] utilizationEnergyCharge 217143.54125977
scalar OsgEarthNet.uav[39] utilizationEnergyOverdrawMission 0
scalar OsgEarthNet.uav[39] utilizationEnergyOverdrawMaintenance 0
scalar OsgEarthNet.uav[39] utilizationCountMissions 54
scalar OsgEarthNet.uav[39] utilizationCountManeuversMission 812
scalar OsgEarthNet.uav[39] utilizationCountManeuversMaintenance 108
scalar OsgEarthNet.uav[39] utilizationCountChargeState 54
scalar OsgEarthNet.uav[39] utilizationCountOverdrawnAfterMission 0
scalar OsgEarthNet.uav[39] utilizationCountIdleState 54
scalar OsgEarthNet.uav[39] utilizationFail 0
scalar OsgEarthNet.uav[39] simulationTime 259200
scalar OsgEarthNet.uav[40] utilizationSecMission 20921.840368812
scalar OsgEarthNet.uav[40] utilizationSecMaintenance 12526.336902463
scalar OsgEarthNet.uav[40] utilizationSecCharge 123400
scalar OsgEarthNet.uav[40] utilizationSecIdle 102351.82172873
scalar OsgEarthNet.uav[40] utilizationEnergyMission 100756.07515696
scalar OsgEarthNet.uav[40] utilizationEnergyMaintenance 59517.834323883
scalar OsgEarthNet.uav[40] utilizationEnergyCharge 159718.12573242
scalar OsgEarthNet.uav[40] utilizationEnergyOverdrawMission 0
scalar OsgEarthNet.uav[40] utilizationEnergyOverdrawMaintenance 0
scalar OsgEarthNet.uav[40] utilizationCountMissions 35
scalar OsgEarthNet.uav[40] utilizationCountManeuversMission 649
scalar OsgEarthNet.uav[40] utilizationCountManeuversMaintenance 71
scalar OsgEarthNet.uav[40] utilizationCountChargeState 35
scalar OsgEarthNet.uav[40] utilizationCountOverdrawnAfterMission 0
scalar OsgEarthNet.uav[40] utilizationCountIdleState 36
scalar OsgEarthNet.uav[40] utilizationFail 0
scalar OsgEarthNet.uav[40] simulationTime 259200
scalar OsgEarthNet.uav[41] utilizationSecMission 31104.927160788
scalar OsgEarthNet.uav[41] utilizationSecMaintenance 15670.643495991
scalar OsgEarthNet.uav[41] utilizationSecCharge 175162.42834322
scalar OsgEarthNet.uav[41] utilizationSecIdle 37262
scalar OsgEarthNet.uav[41] utilizationEnergyMission 151921.61017609
scalar OsgEarthNet.uav[41] utilizationEnergyMaintenance 72274.854404449
scalar OsgEarthNet.uav[41] utilizationEnergyCharge 224361.1027832
scalar OsgEarthNet.uav[41] utilizationEnergyOverdrawMission 0
scalar OsgEarthNet.uav[41] utilizationEnergyOverdrawMaintenance 0
scalar OsgEarthNet.uav[41] utilizationCountMissions 51
scalar OsgEarthNet.uav[41] utilizationCountManeuversMission 1018
scalar OsgEarthNet.uav[41] utilizationCountManeuversMaintenance 102
scalar OsgEarthNet.uav[41] utilizationCountChargeState 51
scalar OsgEarthNet.uav[41] utilizationCountOverdrawnAfterMission 0
scalar OsgEarthNet.uav[41] utilizationCountIdleState 51
scalar OsgEarthNet.uav[41] utilizationFail 0
scalar OsgEarthNet.uav[41] simulationTime 259200
scalar OsgEarthNet.uav[42] utilizationSecMission 34021.478793022
scalar OsgEarthNet.uav[42] utilizationSecMaintenance 12548.405713362
scalar OsgEarthNet.uav[42] utilizationSecCharge 170900
scalar OsgEarthNet.uav[42] utilizationSecIdle 41730.114493616
scalar OsgEarthNet.uav[42] utilizationEnergyMission 163785.03546524
scalar OsgEarthNet.uav[42] utilizationEnergyMaintenance 58394.207134247
scalar OsgEarthNet.uav[42] utilizationEnergyCharge 222191.13476562
scalar OsgEarthNet.uav[42] utilizationEnergyOverdrawMission 0
scalar OsgEarthNet.uav[42] utilizationEnergyOverdrawMaintenance 0
scalar OsgEarthNet.uav[42] utilizationCountMissions 48
scalar OsgEarthNet.uav[42] utilizationCountManeuversMission 969
scalar OsgEarthNet.uav[42] utilizationCountManeuversMaintenance 96
scalar OsgEarthNet.uav[42] utilizationCountChargeState 48
scalar OsgEarthNet.uav[42] utilizationCountOverdrawnAfterMission 0
scalar OsgEarthNet.uav[42] utilizationCountIdleState 48
scalar OsgEarthNet.uav[42] utilizationFail 0
scalar OsgEarthNet.uav[42] simulationTime 259200
scalar OsgEarthNet.uav[43] utilizationSecMission 18585.29645756
scalar OsgEarthNet.uav[43] utilizationSecMaintenance 12002.68754244
scalar OsgEarthNet.uav[43] utilizationSecCharge 112480
scalar OsgEarthNet.uav[43] utilizationSecIdle 116132.015
scalar OsgEarthNet.uav[43] utilizationEnergyMission 90261.475120243
scalar OsgEarthNet.uav[43] utilizationEnergyMaintenance 56786.695251465
scalar OsgEarthNet.uav[43] utilizationEnergyCharge 145191.00537109
scalar OsgEarthNet.uav[43] utilizationEnergyOverdrawMission 0
scalar OsgEarthNet.uav[43] utilizationEnergyOverdrawMaintenance 0
scalar OsgEarthNet.uav[43] utilizationCountMissions 32
scalar OsgEarthNet.uav[43] utilizationCountManeuversMission 639
scalar OsgEarthNet.uav[43] utilizationCountManeuversMaintenance 65
scalar OsgEarthNet.uav[43] utilizationCountChargeState 32
scalar OsgEarthNet.uav[43] utilizationCountOverdrawnAfterMission 0
scalar OsgEarthNet.uav[43] utilizationCountIdleState 33
scalar OsgEarthNet.uav[43] utilizationFail 0
scalar OsgEarthNet.uav[43] simulationTime 259200
scalar OsgEarthNet.uav[44] utilizationSecMission 31943.705271873
scalar OsgEarthNet.uav[44] utilizationSecMaintenance 17710.871428757
scalar OsgEarthNet.uav[44] utilizationSecCharge 185803.42129937
scalar OsgEarthNet.uav[44] utilizationSecIdle 23742.001
scalar OsgEarthNet.uav[44] utilizationEnergyMission 153632.89040375
scalar OsgEarthNet.uav[44] utilizationEnergyMaintenance 83635.831890106
scalar OsgEarthNet.uav[44] utilizationEnergyCharge 235215.13110352
scalar OsgEarthNet.uav[44] utilizationEnergyOverdrawMission 0
scalar OsgEarthNet.uav[44] utilizationEnergyOverdrawMaintenance 0
scalar OsgEarthNet.uav[44] utilizationCountMissions 56
scalar OsgEarthNet.uav[44] utilizationCountManeuversMission 959
scalar OsgEarthNet.uav[44] utilizationCountManeuversMaintenance 112
scalar OsgEarthNet.uav[44] utilizationCountChargeState 56
scalar OsgEarthNet.uav[44] utilizationCountOverdrawnAfterMission 0
scalar OsgEarthNet.uav[44] utilizationCountIdleState 54
scalar OsgEarthNet.uav[44] utilizationFail 0
scalar OsgEarthNet.uav[44] simulationTime 259200
scalar OsgEarthNet.uav[45] utilizationSecMission 33753.271732122
scalar OsgEarthNet.uav[45] utilizationSecMaintenance 13444.024600161
scalar OsgEarthNet.uav[45] utilizationSecCharge 171630
scalar OsgEarthNet.uav[45] utilizationSecIdle 40372.702667718
scalar OsgEarthNet.uav[45] utilizationEnergyMission 162337.01016729
scalar OsgEarthNet.uav[45] utilizationEnergyMaintenance 62347.841720581
scalar OsgEarthNet.uav[45] utilizationEnergyCharge 222779.65771484
scalar OsgEarthNet.uav[45] utilizationEnergyOverdrawMission 0
scalar OsgEarthNet.uav[45] utilizationEnergyOverdrawMaintenance 0
scalar OsgEarthNet.uav[45] utilizationCountMissions 48
scalar OsgEarthNet.uav[45] utilizationCountManeuversMission 957
scalar OsgEarthNet.uav[45] utilizationCountManeuversMaintenance 97
scalar OsgEarthNet.uav[45] utilizationCountChargeState 48
scalar OsgEarthNet.uav[45] utilizationCountOverdrawnAfterMission 0
scalar OsgEarthNet.uav[45] utilizationCountIdleState 49
scalar OsgEarthNet.uav[45] utilizationFail 0
scalar OsgEarthNet.uav[45] simulationTime 259200
scalar OsgEarthNet.uav[46] utilizationSecMission 34048.894092504
scalar OsgEarthNet.uav[46] utilizationSecMaintenance 13989.104907496
scalar OsgEarthNet.uav[46] utilizationSecCharge 173090
scalar OsgEarthNet.uav[46] utilizationSecIdle 38072
scalar OsgEarthNet.uav[46] utilizationEnergyMission 167405.83039856
scalar OsgEarthNet.uav[46] utilizationEnergyMaintenance 64380.790328035
scalar OsgEarthNet.uav[46] utilizationEnergyCharge 224680.21582031
scalar OsgEarthNet.uav[46] utilizationEnergyOverdrawMission 0
scalar OsgEarthNet.uav[46] utilizationEnergyOverdrawMaintenance 0
scalar OsgEarthNet.uav[46] utilizationCountMissions 50
scalar OsgEarthNet.uav[46] utilizationCountManeuversMission 1209
scalar OsgEarthNet.uav[46] utilizationCountManeuversMaintenance 99
scalar OsgEarthNet.uav[46] utilizationCountChargeState 49
scalar OsgEarthNet.uav[46] utilizationCountOverdrawnAfterMission 0
scalar OsgEarthNet.uav[46] utilizationCountIdleState 49
scalar OsgEarthNet.uav[46] utilizationFail 0
scalar OsgEarthNet.uav[46] simulationTime 259200
scalar OsgEarthNet.uav[47] utilizationSecMission 30364.325671461
scalar OsgEarthNet.uav[47] utilizationSecMaintenance 17475.838940866
scalar OsgEarthNet.uav[47] utilizationSecCharge 183137.83038767
scalar OsgEarthNet.uav[47] utilizationSecIdle 28222.004
scalar OsgEarthNet.uav[47] utilizationEnergyMission 145600.29774475
scalar OsgEarthNet.uav[47] utilizationEnergyMaintenance 82950.99181366
scalar OsgEarthNet.uav[47] utilizationEnergyCharge 226951.41601562
scalar OsgEarthNet.uav[47] utilizationEnergyOverdrawMission 0
scalar OsgEarthNet.uav[47] utilizationEnergyOverdrawMaintenance 0
scalar OsgEarthNet.uav[47] utilizationCountMissions 58
scalar OsgEarthNet.uav[47] utilizationCountManeuversMission 811
scalar OsgEarthNet.uav[47] utilizationCountManeuversMaintenance 116
scalar OsgEarthNet.uav[47] utilizationCountChargeState 58
scalar OsgEarthNet.uav[47] utilizationCountOverdrawnAfterMission 0
scalar OsgEarthNet.uav[47] utilizationCountIdleState 58
scalar OsgEarthNet.uav[47] utilizationFail 0
scalar OsgEarthNet.uav[47] simulationTime 259200
scalar OsgEarthNet.uav[48] utilizationSecMission 32903.949431373
scalar OsgEarthNet.uav[48] utilizationSecMaintenance 13233.043451511
scalar OsgEarthNet.uav[48] utilizationSecCharge 169551.33306773
scalar OsgEarthNet.uav[48] utilizationSecIdle 43511.673049383
scalar OsgEarthNet.uav[48] utilizationEnergyMission 160138.25100327
scalar OsgEarthNet.uav[48] utilizationEnergyMaintenance 61916.014568329
scalar OsgEarthNet.uav[48] utilizationEnergyCharge 220964.41235352
scalar OsgEarthNet.uav[48] utilizationEnergyOverdrawMission 0
scalar OsgEarthNet.uav[48] utilizationEnergyOverdrawMaintenance 0
scalar OsgEarthNet.uav[48] utilizationCountMissions 48
scalar OsgEarthNet.uav[48] utilizationCountManeuversMission 1002
scalar OsgEarthNet.uav[48] utilizationCountManeuversMaintenance 96
scalar OsgEarthNet.uav[48] utilizationCountChargeState 48
scalar OsgEarthNet.uav[48] utilizationCountOverdrawnAfterMission 0
scalar OsgEarthNet.uav[48] utilizationCountIdleState 47
scalar OsgEarthNet.uav[48] utilizationFail 0
scalar OsgEarthNet.uav[48] simulationTime 259200
scalar OsgEarthNet.uav[49] utilizationSecMission 21339.744402534
scalar OsgEarthNet.uav[49] utilizationSecMaintenance 12946.077692041
scalar OsgEarthNet.uav[49] utilizationSecCharge 124282.17390542
scalar OsgEarthNet.uav[49] utilizationSecIdle 100632.003
scalar OsgEarthNet.uav[49] utilizationEnergyMission 102513.99546814
scalar OsgEarthNet.uav[49] utilizationEnergyMaintenance 60699.919418335
scalar OsgEarthNet.uav[49] utilizationEnergyCharge 161169.08044434
scalar OsgEarthNet.uav[49] utilizationEnergyOverdrawMission 0
scalar OsgEarthNet.uav[49] utilizationEnergyOverdrawMaintenance 0
scalar OsgEarthNet.uav[49] utilizationCountMissions 36
scalar OsgEarthNet.uav[49] utilizationCountManeuversMission 655
scalar OsgEarthNet.uav[49] utilizationCountManeuversMaintenance 72
scalar OsgEarthNet.uav[49] utilizationCountChargeState 36
scalar OsgEarthNet.uav[49] utilizationCountOverdrawnAfterMission 0
scalar OsgEarthNet.uav[49] utilizationCountIdleState 36
scalar OsgEarthNet.uav[49] utilizationFail 0
scalar OsgEarthNet.uav[49] simulationTime 259200
scalar OsgEarthNet.uav[50] utilizationSecMission 21508.126983544
scalar OsgEarthNet.uav[50] utilizationSecMaintenance 14221.116408247
scalar OsgEarthNet.uav[50] utilizationSecCharge 133640
scalar OsgEarthNet.uav[50] utilizationSecIdle 89830.75560821
scalar OsgEarthNet.uav[50] utilizationEnergyMission 105182.02965164
scalar OsgEarthNet.uav[50] utilizationEnergyMaintenance 67660.416755676
scalar OsgEarthNet.uav[50] utilizationEnergyCharge 172357.97753906
scalar OsgEarthNet.uav[50] utilizationEnergyOverdrawMission 0
scalar OsgEarthNet.uav[50] utilizationEnergyOverdrawMaintenance 0
scalar OsgEarthNet.uav[50] utilizationCountMissions 38
scalar OsgEarthNet.uav[50] utilizationCountManeuversMission 737
scalar OsgEarthNet.uav[50] utilizationCountManeuversMaintenance 76
scalar OsgEarthNet.uav[50] utilizationCountChargeState 38
scalar OsgEarthNet.uav[50] utilizationCountOverdrawnAfterMission 0
scalar OsgEarthNet.uav[50] utilizationCountIdleState 39
scalar OsgEarthNet.uav[50] utilizationFail 0
scalar OsgEarthNet.uav[50] simulationTime 259200
scalar OsgEarthNet.uav[51] utilizationSecMission 31101.154979072
scalar OsgEarthNet.uav[51] utilizationSecMaintenance 17844.647829671
scalar OsgEarthNet.uav[51] utilizationSecCharge 184912.19619126
scalar OsgEarthNet.uav[51] utilizationSecIdle 25342
scalar OsgEarthNet.uav[51] utilizationEnergyMission 149505.53186417
scalar OsgEarthNet.uav[51] utilizationEnergyMaintenance 85023.028648376
scalar OsgEarthNet.uav[51] utilizationEnergyCharge 230435.53973389
scalar OsgEarthNet.uav[51] utilizationEnergyOverdrawMission 0
scalar OsgEarthNet.uav[51] utilizationEnergyOverdrawMaintenance 0
scalar OsgEarthNet.uav[51] utilizationCountMissions 58
scalar OsgEarthNet.uav[51] utilizationCountManeuversMission 890
scalar OsgEarthNet.uav[51] utilizationCountManeuversMaintenance 115
scalar OsgEarthNet.uav[51] utilizationCountChargeState 58
scalar OsgEarthNet.uav[51] utilizationCountOverdrawnAfterMission 0
scalar OsgEarthNet.uav[51] utilizationCountIdleState 58
scalar OsgEarthNet.uav[51] utilizationFail 0
scalar OsgEarthNet.uav[51] simulationTime 259200
scalar OsgEarthNet.uav[52] utilizationSecMission 32113.718146515
scalar OsgEarthNet.uav[52] utilizationSecMaintenance 14918.497159545
scalar OsgEarthNet.uav[52] utilizationSecCharge 173215.78369394
scalar OsgEarthNet.uav[52] utilizationSecIdle 38952
scalar OsgEarthNet.uav[52] utilizationEnergyMission 157880.00150681
scalar OsgEarthNet.uav[52] utilizationEnergyMaintenance 68451.792972565
scalar OsgEarthNet.uav[52] utilizationEnergyCharge 224460.72158813
scalar OsgEarthNet.uav[52] utilizationEnergyOverdrawMission 0
scalar OsgEarthNet.uav[52] utilizationEnergyOverdrawMaintenance 0
scalar OsgEarthNet.uav[52] utilizationCountMissions 50
scalar OsgEarthNet.uav[52] utilizationCountManeuversMission 1221
scalar OsgEarthNet.uav[52] utilizationCountManeuversMaintenance 100
scalar OsgEarthNet.uav[52] utilizationCountChargeState 50
scalar OsgEarthNet.uav[52] utilizationCountOverdrawnAfterMission 0
scalar OsgEarthNet.uav[52] utilizationCountIdleState 49
scalar OsgEarthNet.uav[52] utilizationFail 0
scalar OsgEarthNet.uav[52] simulationTime 259200
scalar OsgEarthNet.uav[53] utilizationSecMission 24031.252746445
scalar OsgEarthNet.uav[53] utilizationSecMaintenance 14116.854244287
scalar OsgEarthNet.uav[53] utilizationSecCharge 137049.89200927
scalar OsgEarthNet.uav[53] utilizationSecIdle 84002
scalar OsgEarthNet.uav[53] utilizationEnergyMission 114561.91745758
scalar OsgEarthNet.uav[53] utilizationEnergyMaintenance 67363.553844452
scalar OsgEarthNet.uav[53] utilizationEnergyCharge 176782.59008789
scalar OsgEarthNet.uav[53] utilizationEnergyOverdrawMission 0
scalar OsgEarthNet.uav[53] utilizationEnergyOverdrawMaintenance 0
scalar OsgEarthNet.uav[53] utilizationCountMissions 40
scalar OsgEarthNet.uav[53] utilizationCountManeuversMission 733
scalar OsgEarthNet.uav[53] utilizationCountManeuversMaintenance 80
scalar OsgEarthNet.uav[53] utilizationCountChargeState 40
scalar OsgEarthNet.uav[53] utilizationCountOverdrawnAfterMission 0
scalar OsgEarthNet.uav[53] utilizationCountIdleState 40
scalar OsgEarthNet.uav[53] utilizationFail 0
scalar OsgEarthNet.uav[53] simulationTime 259200
scalar OsgEarthNet.uav[54] utilizationSecMission 29738.175414978
scalar OsgEarthNet.uav[54] utilizationSecMaintenance 17834.507503192
scalar OsgEarthNet.uav[54] utilizationSecCharge 182580
scalar OsgEarthNet.uav[54] utilizationSecIdle 29047.316081831
scalar OsgEarthNet.uav[54] utilizationEnergyMission 143189.77703857
scalar OsgEarthNet.uav[54] utilizationEnergyMaintenance 84838.719884575
scalar OsgEarthNet.uav[54] utilizationEnergyCharge 222697.91479492
scalar OsgEarthNet.uav[54] utilizationEnergyOverdrawMission 0
scalar OsgEarthNet.uav[54] utilizationEnergyOverdrawMaintenance 0
scalar OsgEarthNet.uav[54] utilizationCountMissions 60
scalar OsgEarthNet.uav[54] utilizationCountManeuversMission 740
scalar OsgEarthNet.uav[54] utilizationCountManeuversMaintenance 120
scalar OsgEarthNet.uav[54] utilizationCountChargeState 59
scalar OsgEarthNet.uav[54] utilizationCountOverdrawnAfterMission 0
scalar OsgEarthNet.uav[54] utilizationCountIdleState 59
scalar OsgEarthNet.uav[54] utilizationFail 0
scalar OsgEarthNet.uav[54] simulationTime 259200
scalar OsgEarthNet.uav[55] utilizationSecMission 33954.251912161
scalar OsgEarthNet.uav[55] utilizationSecMaintenance 13108.267960254
scalar OsgEarthNet.uav[55] utilizationSecCharge 171575.47912759
scalar OsgEarthNet.uav[55] utilizationSecIdle 40562
scalar OsgEarthNet.uav[55] utilizationEnergyMission 166003.69121016
scalar OsgEarthNet.uav[55] utilizationEnergyMaintenance 61128.01090622
scalar OsgEarthNet.uav[55] utilizationEnergyCharge 222693.09484863
scalar OsgEarthNet.uav[55] utilizationEnergyOverdrawMission 0
scalar OsgEarthNet.uav[55] utilizationEnergyOverdrawMaintenance 0
scalar OsgEarthNet.uav[55] utilizationCountMissions 49
scalar OsgEarthNet.uav[55] utilizationCountManeuversMission 1074
scalar OsgEarthNet.uav[55] utilizationCountManeuversMaintenance 97
scalar OsgEarthNet.uav[55] utilizationCountChargeState 49
scalar OsgEarthNet.uav[55] utilizationCountOverdrawnAfterMission 0
scalar OsgEarthNet.uav[55] utilizationCountIdleState 48
scalar OsgEarthNet.uav[55] utilizationFail 0
scalar OsgEarthNet.uav[55] simulationTime 259200
scalar OsgEarthNet.uav[56] utilizationSecMission 22856.618639633
scalar OsgEarthNet.uav[56] utilizationSecMaintenance 16465.059026861
scalar OsgEarthNet.uav[56] utilizationSecCharge 145636.31933351
scalar OsgEarthNet.uav[56] utilizationSecIdle 74242.002
scalar OsgEarthNet.uav[56] utilizationEnergyMission 113871.53712845
scalar OsgEarthNet.uav[56] utilizationEnergyMaintenance 78509.609855652
scalar OsgEarthNet.uav[56] utilizationEnergyCharge 188455.40783691
scalar OsgEarthNet.uav[56] utilizationEnergyOverdrawMission 0
scalar OsgEarthNet.uav[56] utilizationEnergyOverdrawMaintenance 0
scalar OsgEarthNet.uav[56] utilizationCountMissions 42
scalar OsgEarthNet.uav[56] utilizationCountManeuversMission 861
scalar OsgEarthNet.uav[56] utilizationCountManeuversMaintenance 84
scalar OsgEarthNet.uav[56] utilizationCountChargeState 42
scalar OsgEarthNet.uav[56] utilizationCountOverdrawnAfterMission 0
scalar OsgEarthNet.uav[56] utilizationCountIdleState 42
scalar OsgEarthNet.uav[56] utilizationFail 0
scalar OsgEarthNet.uav[56] simulationTime 259200
scalar OsgEarthNet.uav[57] utilizationSecMission 31701.148698718
scalar OsgEarthNet.uav[57] utilizationSecMaintenance 14523.406212591
scalar OsgEarthNet.uav[57] utilizationSecCharge 170680
scalar OsgEarthNet.uav[57] utilizationSecIdle 42295.444088691
scalar OsgEarthNet.uav[57] utilizationEnergyMission 153073.74641849
scalar OsgEarthNet.uav[57] utilizationEnergyMaintenance 67347.871551514
scalar OsgEarthNet.uav[57] utilizationEnergyCharge 220625.27099609
scalar OsgEarthNet.uav[57] utilizationEnergyOverdrawMission 0
scalar OsgEarthNet.uav[57] utilizationEnergyOverdrawMaintenance 0
scalar OsgEarthNet.uav[57] utilizationCountMissions 48
scalar OsgEarthNet.uav[57] utilizationCountManeuversMission 1095
scalar OsgEarthNet.uav[57] utilizationCountManeuversMaintenance 97
scalar OsgEarthNet.uav[57] utilizationCountChargeState 48
scalar OsgEarthNet.uav[57] utilizationCountOverdrawnAfterMission 0
scalar OsgEarthNet.uav[57] utilizationCountIdleState 49
scalar OsgEarthNet.uav[57] utilizationFail 0
scalar OsgEarthNet.uav[57] simulationTime 259200
scalar OsgEarthNet.uav[58] utilizationSecMission 33123.81449545
scalar OsgEarthNet.uav[58] utilizationSecMaintenance 13263.795944788
scalar OsgEarthNet.uav[58] utilizationSecCharge 170770.38455976
scalar OsgEarthNet.uav[58] utilizationSecIdle 42042.004
scalar OsgEarthNet.uav[58] utilizationEnergyMission 160955.83675385
scalar OsgEarthNet.uav[58] utilizationEnergyMaintenance 61362.949779511
scalar OsgEarthNet.uav[58] utilizationEnergyCharge 221922.81005859
scalar OsgEarthNet.uav[58] utilizationEnergyOverdrawMission 0
scalar OsgEarthNet.uav[58] utilizationEnergyOverdrawMaintenance 0
scalar OsgEarthNet.uav[58] utilizationCountMissions 48
scalar OsgEarthNet.uav[58] utilizationCountManeuversMission 1091
scalar OsgEarthNet.uav[58] utilizationCountManeuversMaintenance 96
scalar OsgEarthNet.uav[58] utilizationCountChargeState 48
scalar OsgEarthNet.uav[58] utilizationCountOverdrawnAfterMission 0
scalar OsgEarthNet.uav[58] utilizationCountIdleState 47
scalar OsgEarthNet.uav[58] utilizationFail 0
scalar OsgEarthNet.uav[58] simulationTime 259200
scalar OsgEarthNet.uav[59] utilizationSecMission 21879.010174875
scalar OsgEarthNet.uav[59] utilizationSecMaintenance 14108.513535714
scalar OsgEarthNet.uav[59] utilizationSecCharge 132230.47028941
scalar OsgEarthNet.uav[59] utilizationSecIdle 90982.005
scalar OsgEarthNet.uav[59] utilizationEnergyMission 106582.36047745
scalar OsgEarthNet.uav[59] utilizationEnergyMaintenance 66964.885383606
scalar OsgEarthNet.uav[59] utilizationEnergyCharge 171657.78417969
scalar OsgEarthNet.uav[59] utilizationEnergyOverdrawMission 0
scalar OsgEarthNet.uav[59] utilizationEnergyOverdrawMaintenance 0
scalar OsgEarthNet.uav[59] utilizationCountMissions 38
scalar OsgEarthNet.uav[59] utilizationCountManeuversMission 725
scalar OsgEarthNet.uav[59] utilizationCountManeuversMaintenance 76
scalar OsgEarthNet.uav[59] utilizationCountChargeState 38
scalar OsgEarthNet.uav[59] utilizationCountOverdrawnAfterMission 0
scalar OsgEarthNet.uav[59] utilizationCountIdleState 38
scalar OsgEarthNet.uav[59] utilizationFail 0
scalar OsgEarthNet.uav[59] simulationTime 259200
scalar OsgEarthNet.uav[60] utilizationSecMission 22681.869076062
scalar OsgEarthNet.uav[60] utilizationSecMaintenance 16037.094256127
scalar OsgEarthNet.uav[60] utilizationSecCharge 148043.26047544
scalar OsgEarthNet.uav[60] utilizationSecIdle 72437.775192371
scalar OsgEarthNet.uav[60] utilizationEnergyMission 110362.15305328
scalar OsgEarthNet.uav[60] utilizationEnergyMaintenance 76562.263771057
scalar OsgEarthNet.uav[60] utilizationEnergyCharge 185814.05444336
scalar OsgEarthNet.uav[60] utilizationEnergyOverdrawMission 0
scalar OsgEarthNet.uav[60] utilizationEnergyOverdrawMaintenance 0
scalar OsgEarthNet.uav[60] utilizationCountMissions 45
scalar OsgEarthNet.uav[60] utilizationCountManeuversMission 761
scalar OsgEarthNet.uav[60] utilizationCountManeuversMaintenance 90
scalar OsgEarthNet.uav[60] utilizationCountChargeState 45
scalar OsgEarthNet.uav[60] utilizationCountOverdrawnAfterMission 0
scalar OsgEarthNet.uav[60] utilizationCountIdleState 45
scalar OsgEarthNet.uav[60] utilizationFail 0
scalar OsgEarthNet.uav[60] simulationTime 259200
scalar OsgEarthNet.uav[61] utilizationSecMission 31272.687811907
scalar OsgEarthNet.uav[61] utilizationSecMaintenance 16972.329666029
scalar OsgEarthNet.uav[61] utilizationSecCharge 182282.97852206
scalar OsgEarthNet.uav[61] utilizationSecIdle 28672.003
scalar OsgEarthNet.uav[61] utilizationEnergyMission 148634.0164299
scalar OsgEarthNet.uav[61] utilizationEnergyMaintenance 80810.438896179
scalar OsgEarthNet.uav[61] utilizationEnergyCharge 225280.14038086
scalar OsgEarthNet.uav[61] utilizationEnergyOverdrawMission 0
scalar OsgEarthNet.uav[61] utilizationEnergyOverdrawMaintenance 0
scalar OsgEarthNet.uav[61] utilizationCountMissions 58
scalar OsgEarthNet.uav[61] utilizationCountManeuversMission 808
scalar OsgEarthNet.uav[61] utilizationCountManeuversMaintenance 116
scalar OsgEarthNet.uav[61] utilizationCountChargeState 58
scalar OsgEarthNet.uav[61] utilizationCountOverdrawnAfterMission 0
scalar OsgEarthNet.uav[61] utilizationCountIdleState 58
scalar OsgEarthNet.uav[61] utilizationFail 0
scalar OsgEarthNet.uav[61] simulationTime 259200
scalar OsgEarthNet.uav[62] utilizationSecMission 32722.526769193
scalar OsgEarthNet.uav[62] utilizationSecMaintenance 14247.496015115
scalar OsgEarthNet.uav[62] utilizationSecCharge 173700.75660178
scalar OsgEarthNet.uav[62] utilizationSecIdle 38529.219613916
scalar OsgEarthNet.uav[62] utilizationEnergyMission 159090.04206848
scalar OsgEarthNet.uav[62] utilizationEnergyMaintenance 65726.49969101
scalar OsgEarthNet.uav[62] utilizationEnergyCharge 225499.39550781
scalar OsgEarthNet.uav[62] utilizationEnergyOverdrawMission 0
scalar OsgEarthNet.uav[62] utilizationEnergyOverdrawMaintenance 0
scalar OsgEarthNet.uav[62] utilizationCountMissions 49
scalar OsgEarthNet.uav[62] utilizationCountManeuversMission 1054
scalar OsgEarthNet.uav[62] utilizationCountManeuversMaintenance 98
scalar OsgEarthNet.uav[62] utilizationCountChargeState 49
scalar OsgEarthNet.uav[62] utilizationCountOverdrawnAfterMission 0
scalar OsgEarthNet.uav[62] utilizationCountIdleState 49
scalar OsgEarthNet.uav[62] utilizationFail 0
scalar OsgEarthNet.uav[62] simulationTime 259200
scalar OsgEarthNet.uav[63] utilizationSecMission 22608.126983544
scalar OsgEarthNet.uav[63] utilizationSecMaintenance 15126.011182488
scalar OsgEarthNet.uav[63] utilizationSecCharge 139569.33794599
scalar OsgEarthNet.uav[63] utilizationSecIdle 81896.522887982
scalar OsgEarthNet.uav[63] utilizationEnergyMission 110403.68294907
scalar OsgEarthNet.uav[63] utilizationEnergyMaintenance 71488.422588348
scalar OsgEarthNet.uav[63] utilizationEnergyCharge 180709.26513672
scalar OsgEarthNet.uav[63] utilizationEnergyOverdrawMission 0
scalar OsgEarthNet.uav[63] utilizationEnergyOverdrawMaintenance 0
scalar OsgEarthNet.uav[63] utilizationCountMissions 40
scalar OsgEarthNet.uav[63] utilizationCountManeuversMission 792
scalar OsgEarthNet.uav[63] utilizationCountManeuversMaintenance 80
scalar OsgEarthNet.uav[63] utilizationCountChargeState 40
scalar OsgEarthNet.uav[63] utilizationCountOverdrawnAfterMission 0
scalar OsgEarthNet.uav[63] utilizationCountIdleState 40
scalar OsgEarthNet.uav[63] utilizationFail 0
scalar OsgEarthNet.uav[63] simulationTime 259200
scalar OsgEarthNet.uav[64] utilizationSecMission 30247.767258197
scalar OsgEarthNet.uav[64] utilizationSecMaintenance 18358.785229911
scalar OsgEarthNet.uav[64] utilizationSecCharge 186061.44151189
scalar OsgEarthNet.uav[64] utilizationSecIdle 24532.005
scalar OsgEarthNet.uav[64] utilizationEnergyMission 147550.8527298
scalar OsgEarthNet.uav[64] utilizationEnergyMaintenance 87576.365081787
scalar OsgEarthNet.uav[64] utilizationEnergyCharge 235297.49853516
scalar OsgEarthNet.uav[64] utilizationEnergyOverdrawMission 0
scalar OsgEarthNet.uav[64] utilizationEnergyOverdrawMaintenance 0
scalar OsgEarthNet.uav[64] utilizationCountMissions 56
scalar OsgEarthNet.uav[64] utilizationCountManeuversMission 1013
scalar OsgEarthNet.uav[64] utilizationCountManeuversMaintenance 112
scalar OsgEarthNet.uav[64] utilizationCountChargeState 56
scalar OsgEarthNet.uav[64] utilizationCountOverdrawnAfterMission 0
scalar OsgEarthNet.uav[64] utilizationCountIdleState 55
scalar OsgEarthNet.uav[64] utilizationFail 0
scalar OsgEarthNet.uav[64] simulationTime 259200
scalar OsgEarthNet.uav[65] utilizationSecMission 33309.09995429
scalar OsgEarthNet.uav[65] utilizationSecMaintenance 13047.295650317
scalar OsgEarthNet.uav[65] utilizationSecCharge 171310
[...]
scalar OsgEarthNet.uav[66] utilizationCountMissions 41
scalar OsgEarthNet.uav[66] utilizationCountManeuversMission 734
scalar OsgEarthNet.uav[66] utilizationCountManeuversMaintenance 82
scalar OsgEarthNet.uav[66] utilizationCountChargeState 41
scalar OsgEarthNet.uav[66] utilizationCountOverdrawnAfterMission 0
scalar OsgEarthNet.uav[66] utilizationCountIdleState 42
scalar OsgEarthNet.uav[66] utilizationFail 0
scalar OsgEarthNet.uav[66] simulationTime 259200
scalar OsgEarthNet.uav[67] utilizationSecMission 30313.270292989
scalar OsgEarthNet.uav[67] utilizationSecMaintenance 18614.726707011
scalar OsgEarthNet.uav[67] utilizationSecCharge 186220
scalar OsgEarthNet.uav[67] utilizationSecIdle 24052.002
scalar OsgEarthNet.uav[67] utilizationEnergyMission 149167.81118393
scalar OsgEarthNet.uav[67] utilizationEnergyMaintenance 88191.536948344
scalar OsgEarthNet.uav[67] utilizationEnergyCharge 232726.35473633
scalar OsgEarthNet.uav[67] utilizationEnergyOverdrawMission 0
scalar OsgEarthNet.uav[67] utilizationEnergyOverdrawMaintenance 0
scalar OsgEarthNet.uav[67] utilizationCountMissions 58
scalar OsgEarthNet.uav[67] utilizationCountManeuversMission 963
scalar OsgEarthNet.uav[67] utilizationCountManeuversMaintenance 116
scalar OsgEarthNet.uav[67] utilizationCountChargeState 57
scalar OsgEarthNet.uav[67] utilizationCountOverdrawnAfterMission 0
scalar OsgEarthNet.uav[67] utilizationCountIdleState 57
scalar OsgEarthNet.uav[67] utilizationFail 0
scalar OsgEarthNet.uav[67] simulationTime 259200
scalar OsgEarthNet.uav[68] utilizationSecMission 33226.721121544
scalar OsgEarthNet.uav[68] utilizationSecMaintenance 13641.82153811
scalar OsgEarthNet.uav[68] utilizationSecCharge 172869.45434035
scalar OsgEarthNet.uav[68] utilizationSecIdle 39462.002
scalar OsgEarthNet.uav[68] utilizationEnergyMission 161426.1663475
scalar OsgEarthNet.uav[68] utilizationEnergyMaintenance 63324.907848358
scalar OsgEarthNet.uav[68] utilizationEnergyCharge 224603.87353516
scalar OsgEarthNet.uav[68] utilizationEnergyOverdrawMission 0
scalar OsgEarthNet.uav[68] utilizationEnergyOverdrawMaintenance 0
scalar OsgEarthNet.uav[68] utilizationCountMissions 49
scalar OsgEarthNet.uav[68] utilizationCountManeuversMission 1043
scalar OsgEarthNet.uav[68] utilizationCountManeuversMaintenance 98
scalar OsgEarthNet.uav[68] utilizationCountChargeState 49
scalar OsgEarthNet.uav[68] utilizationCountOverdrawnAfterMission 0
scalar OsgEarthNet.uav[68] utilizationCountIdleState 48
scalar OsgEarthNet.uav[68] utilizationFail 0
scalar OsgEarthNet.uav[68] simulationTime 259200
scalar OsgEarthNet.uav[69] utilizationSecMission 21620.369555114
scalar OsgEarthNet.uav[69] utilizationSecMaintenance 12614.464853359
scalar OsgEarthNet.uav[69] utilizationSecCharge 125403.15559153
scalar OsgEarthNet.uav[69] utilizationSecIdle 99562.009
scalar OsgEarthNet.uav[69] utilizationEnergyMission 106068.56111526
scalar OsgEarthNet.uav[69] utilizationEnergyMaintenance 59852.300868988
scalar OsgEarthNet.uav[69] utilizationEnergyCharge 163185.02978516
scalar OsgEarthNet.uav[69] utilizationEnergyOverdrawMission 0
scalar OsgEarthNet.uav[69] utilizationEnergyOverdrawMaintenance 0
scalar OsgEarthNet.uav[69] utilizationCountMissions 36
scalar OsgEarthNet.uav[69] utilizationCountManeuversMission 643
scalar OsgEarthNet.uav[69] utilizationCountManeuversMaintenance 72
scalar OsgEarthNet.uav[69] utilizationCountChargeState 36
scalar OsgEarthNet.uav[69] utilizationCountOverdrawnAfterMission 0
scalar OsgEarthNet.uav[69] utilizationCountIdleState 36
scalar OsgEarthNet.uav[69] utilizationFail 0
scalar OsgEarthNet.uav[69] simulationTime 259200
scalar OsgEarthNet.uav[70] utilizationSecMission 23759.119249954
scalar OsgEarthNet.uav[70] utilizationSecMaintenance 15448.076960008
scalar OsgEarthNet.uav[70] utilizationSecCharge 145080.78579004
scalar OsgEarthNet.uav[70] utilizationSecIdle 74912.017
scalar OsgEarthNet.uav[70] utilizationEnergyMission 114160.58333206
scalar OsgEarthNet.uav[70] utilizationEnergyMaintenance 74163.365715027
scalar OsgEarthNet.uav[70] utilizationEnergyCharge 187612.85791016
scalar OsgEarthNet.uav[70] utilizationEnergyOverdrawMission 0
scalar OsgEarthNet.uav[70] utilizationEnergyOverdrawMaintenance 0
scalar OsgEarthNet.uav[70] utilizationCountMissions 42
scalar OsgEarthNet.uav[70] utilizationCountManeuversMission 802
scalar OsgEarthNet.uav[70] utilizationCountManeuversMaintenance 84
scalar OsgEarthNet.uav[70] utilizationCountChargeState 42
scalar OsgEarthNet.uav[70] utilizationCountOverdrawnAfterMission 0
scalar OsgEarthNet.uav[70] utilizationCountIdleState 42
scalar OsgEarthNet.uav[70] utilizationFail 0
scalar OsgEarthNet.uav[70] simulationTime 259200
scalar OsgEarthNet.uav[71] utilizationSecMission 31424.847565422
scalar OsgEarthNet.uav[71] utilizationSecMaintenance 16941.48325659
scalar OsgEarthNet.uav[71] utilizationSecCharge 183400
scalar OsgEarthNet.uav[71] utilizationSecIdle 27433.668177988
scalar OsgEarthNet.uav[71] utilizationEnergyMission 150557.82634131
scalar OsgEarthNet.uav[71] utilizationEnergyMaintenance 80339.751708984
scalar OsgEarthNet.uav[71] utilizationEnergyCharge 231054.63964844
scalar OsgEarthNet.uav[71] utilizationEnergyOverdrawMission 0
scalar OsgEarthNet.uav[71] utilizationEnergyOverdrawMaintenance 0
scalar OsgEarthNet.uav[71] utilizationCountMissions 55
scalar OsgEarthNet.uav[71] utilizationCountManeuversMission 926
scalar OsgEarthNet.uav[71] utilizationCountManeuversMaintenance 111
scalar OsgEarthNet.uav[71] utilizationCountChargeState 55
scalar OsgEarthNet.uav[71] utilizationCountOverdrawnAfterMission 0
scalar OsgEarthNet.uav[71] utilizationCountIdleState 56
scalar OsgEarthNet.uav[71] utilizationFail 0
scalar OsgEarthNet.uav[71] simulationTime 259200
scalar OsgEarthNet.uav[72] utilizationSecMission 33324.438164901
scalar OsgEarthNet.uav[72] utilizationSecMaintenance 14303.554835099
scalar OsgEarthNet.uav[72] utilizationSecCharge 173270
scalar OsgEarthNet.uav[72] utilizationSecIdle 38302.006
scalar OsgEarthNet.uav[72] utilizationEnergyMission 162784.4851265
scalar OsgEarthNet.uav[72] utilizationEnergyMaintenance 66224.769145799
scalar OsgEarthNet.uav[72] utilizationEnergyCharge 223646.27197266
scalar OsgEarthNet.uav[72] utilizationEnergyOverdrawMission 0
scalar OsgEarthNet.uav[72] utilizationEnergyOverdrawMaintenance 0
scalar OsgEarthNet.uav[72] utilizationCountMissions 50
scalar OsgEarthNet.uav[72] utilizationCountManeuversMission 1116
scalar OsgEarthNet.uav[72] utilizationCountManeuversMaintenance 100
scalar OsgEarthNet.uav[72] utilizationCountChargeState 49
scalar OsgEarthNet.uav[72] utilizationCountOverdrawnAfterMission 0
scalar OsgEarthNet.uav[72] utilizationCountIdleState 50
scalar OsgEarthNet.uav[72] utilizationFail 0
scalar OsgEarthNet.uav[72] simulationTime 259200
scalar OsgEarthNet.uav[73] utilizationSecMission 23719.49848782
scalar OsgEarthNet.uav[73] utilizationSecMaintenance 14652.040084051
scalar OsgEarthNet.uav[73] utilizationSecCharge 144162.5111851
scalar OsgEarthNet.uav[73] utilizationSecIdle 76665.94924303
scalar OsgEarthNet.uav[73] utilizationEnergyMission 114387.52135849
scalar OsgEarthNet.uav[73] utilizationEnergyMaintenance 69779.9686203
scalar OsgEarthNet.uav[73] utilizationEnergyCharge 185909.65087891
scalar OsgEarthNet.uav[73] utilizationEnergyOverdrawMission 0
scalar OsgEarthNet.uav[73] utilizationEnergyOverdrawMaintenance 0
scalar OsgEarthNet.uav[73] utilizationCountMissions 41
scalar OsgEarthNet.uav[73] utilizationCountManeuversMission 769
scalar OsgEarthNet.uav[73] utilizationCountManeuversMaintenance 82
scalar OsgEarthNet.uav[73] utilizationCountChargeState 41
scalar OsgEarthNet.uav[73] utilizationCountOverdrawnAfterMission 0
scalar OsgEarthNet.uav[73] utilizationCountIdleState 41
scalar OsgEarthNet.uav[73] utilizationFail 0
scalar OsgEarthNet.uav[73] simulationTime 259200
scalar OsgEarthNet.uav[74] utilizationSecMission 30900.124135121
scalar OsgEarthNet.uav[74] utilizationSecMaintenance 17449.502497118
scalar OsgEarthNet.uav[74] utilizationSecCharge 182580.35209362
scalar OsgEarthNet.uav[74] utilizationSecIdle 28270.020274145
scalar OsgEarthNet.uav[74] utilizationEnergyMission 147859.43009186
scalar OsgEarthNet.uav[74] utilizationEnergyMaintenance 82926.003612518
scalar OsgEarthNet.uav[74] utilizationEnergyCharge 229686.60986328
scalar OsgEarthNet.uav[74] utilizationEnergyOverdrawMission 0
scalar OsgEarthNet.uav[74] utilizationEnergyOverdrawMaintenance 0
scalar OsgEarthNet.uav[74] utilizationCountMissions 56
scalar OsgEarthNet.uav[74] utilizationCountManeuversMission 929
scalar OsgEarthNet.uav[74] utilizationCountManeuversMaintenance 112
scalar OsgEarthNet.uav[74] utilizationCountChargeState 56
scalar OsgEarthNet.uav[74] utilizationCountOverdrawnAfterMission 0
scalar OsgEarthNet.uav[74] utilizationCountIdleState 56
scalar OsgEarthNet.uav[74] utilizationFail 0
scalar OsgEarthNet.uav[74] simulationTime 259200
scalar OsgEarthNet.uav[75] utilizationSecMission 32485.40315444
scalar OsgEarthNet.uav[75] utilizationSecMaintenance 15039.634562313
scalar OsgEarthNet.uav[75] utilizationSecCharge 174272.96128325
scalar OsgEarthNet.uav[75] utilizationSecIdle 37402
scalar OsgEarthNet.uav[75] utilizationEnergyMission 159696.25399251
scalar OsgEarthNet.uav[75] utilizationEnergyMaintenance 69911.791877747
scalar OsgEarthNet.uav[75] utilizationEnergyCharge 226584.23022461
scalar OsgEarthNet.uav[75] utilizationEnergyOverdrawMission 0
scalar OsgEarthNet.uav[75] utilizationEnergyOverdrawMaintenance 0
scalar OsgEarthNet.uav[75] utilizationCountMissions 50
scalar OsgEarthNet.uav[75] utilizationCountManeuversMission 1169
scalar OsgEarthNet.uav[75] utilizationCountManeuversMaintenance 99
scalar OsgEarthNet.uav[75] utilizationCountChargeState 50
scalar OsgEarthNet.uav[75] utilizationCountOverdrawnAfterMission 0
scalar OsgEarthNet.uav[75] utilizationCountIdleState 49
scalar OsgEarthNet.uav[75] utilizationFail 0
scalar OsgEarthNet.uav[75] simulationTime 259200
scalar OsgEarthNet.uav[76] utilizationSecMission 22710.002441285
scalar OsgEarthNet.uav[76] utilizationSecMaintenance 13905.811584956
scalar OsgEarthNet.uav[76] utilizationSecCharge 135792.17697376
scalar OsgEarthNet.uav[76] utilizationSecIdle 86792.008
scalar OsgEarthNet.uav[76] utilizationEnergyMission 110506.94438934
scalar OsgEarthNet.uav[76] utilizationEnergyMaintenance 66225.135608673
scalar OsgEarthNet.uav[76] utilizationEnergyCharge 176585.55419922
scalar OsgEarthNet.uav[76] utilizationEnergyOverdrawMission 0
scalar OsgEarthNet.uav[76] utilizationEnergyOverdrawMaintenance 0
scalar OsgEarthNet.uav[76] utilizationCountMissions 39
scalar OsgEarthNet.uav[76] utilizationCountManeuversMission 719
scalar OsgEarthNet.uav[76] utilizationCountManeuversMaintenance 78
scalar OsgEarthNet.uav[76] utilizationCountChargeState 39
scalar OsgEarthNet.uav[76] utilizationCountOverdrawnAfterMission 0
scalar OsgEarthNet.uav[76] utilizationCountIdleState 39
scalar OsgEarthNet.uav[76] utilizationFail 0
scalar OsgEarthNet.uav[76] simulationTime 259200
scalar OsgEarthNet.uav[77] utilizationSecMission 34094.282562297
scalar OsgEarthNet.uav[77] utilizationSecMaintenance 11786.635669965
scalar OsgEarthNet.uav[77] utilizationSecCharge 169083.07552743
scalar OsgEarthNet.uav[77] utilizationSecIdle 44236.005240312
scalar OsgEarthNet.uav[77] utilizationEnergyMission 163985.46855164
scalar OsgEarthNet.uav[77] utilizationEnergyMaintenance 54393.014587402
scalar OsgEarthNet.uav[77] utilizationEnergyCharge 219812.58447266
scalar OsgEarthNet.uav[77] utilizationEnergyOverdrawMission 0
scalar OsgEarthNet.uav[77] utilizationEnergyOverdrawMaintenance 0
scalar OsgEarthNet.uav[77] utilizationCountMissions 47
scalar OsgEarthNet.uav[77] utilizationCountManeuversMission 997
scalar OsgEarthNet.uav[77] utilizationCountManeuversMaintenance 94
scalar OsgEarthNet.uav[77] utilizationCountChargeState 47
scalar OsgEarthNet.uav[77] utilizationCountOverdrawnAfterMission 0
scalar OsgEarthNet.uav[77] utilizationCountIdleState 47
scalar OsgEarthNet.uav[77] utilizationFail 0
scalar OsgEarthNet.uav[77] simulationTime 259200
scalar OsgEarthNet.uav[78] utilizationSecMission 33054.983639773
scalar OsgEarthNet.uav[78] utilizationSecMaintenance 14594.834138827
scalar OsgEarthNet.uav[78] utilizationSecCharge 175508.1772214
scalar OsgEarthNet.uav[78] utilizationSecIdle 36042.004
scalar OsgEarthNet.uav[78] utilizationEnergyMission 160617.80147552
scalar OsgEarthNet.uav[78] utilizationEnergyMaintenance 67087.644077301
scalar OsgEarthNet.uav[78] utilizationEnergyCharge 227651.4465332
scalar OsgEarthNet.uav[78] utilizationEnergyOverdrawMission 0
scalar OsgEarthNet.uav[78] utilizationEnergyOverdrawMaintenance 0
scalar OsgEarthNet.uav[78] utilizationCountMissions 50
scalar OsgEarthNet.uav[78] utilizationCountManeuversMission 1067
scalar OsgEarthNet.uav[78] utilizationCountManeuversMaintenance 100
scalar OsgEarthNet.uav[78] utilizationCountChargeState 50
scalar OsgEarthNet.uav[78] utilizationCountOverdrawnAfterMission 0
scalar OsgEarthNet.uav[78] utilizationCountIdleState 50
scalar OsgEarthNet.uav[78] utilizationFail 0
scalar OsgEarthNet.uav[78] simulationTime 259200
scalar OsgEarthNet.uav[79] utilizationSecMission 32165.909360938
scalar OsgEarthNet.uav[79] utilizationSecMaintenance 16043.425585415
scalar OsgEarthNet.uav[79] utilizationSecCharge 181938.66405365
scalar OsgEarthNet.uav[79] utilizationSecIdle 29052
scalar OsgEarthNet.uav[79] utilizationEnergyMission 154389.44393921
scalar OsgEarthNet.uav[79] utilizationEnergyMaintenance 76688.715106964
scalar OsgEarthNet.uav[79] utilizationEnergyCharge 230164.50952148
scalar OsgEarthNet.uav[79] utilizationEnergyOverdrawMission 0
scalar OsgEarthNet.uav[79] utilizationEnergyOverdrawMaintenance 0
scalar OsgEarthNet.uav[79] utilizationCountMissions 55
scalar OsgEarthNet.uav[79] utilizationCountManeuversMission 868
scalar OsgEarthNet.uav[79] utilizationCountManeuversMaintenance 109
scalar OsgEarthNet.uav[79] utilizationCountChargeState 55
scalar OsgEarthNet.uav[79] utilizationCountOverdrawnAfterMission 0
scalar OsgEarthNet.uav[79] utilizationCountIdleState 55
scalar OsgEarthNet.uav[79] utilizationFail 0
scalar OsgEarthNet.uav[79] simulationTime 259200
scalar OsgEarthNet.uav[80] utilizationSecMission 23042.135937776
scalar OsgEarthNet.uav[80] utilizationSecMaintenance 12661.987511747
scalar OsgEarthNet.uav[80] utilizationSecCharge 130630
scalar OsgEarthNet.uav[80] utilizationSecIdle 92865.875550477
scalar OsgEarthNet.uav[80] utilizationEnergyMission 110469.66032028
scalar OsgEarthNet.uav[80] utilizationEnergyMaintenance 59953.355506897
scalar OsgEarthNet.uav[80] utilizationEnergyCharge 168903.9296875
scalar OsgEarthNet.uav[80] utilizationEnergyOverdrawMission 0
scalar OsgEarthNet.uav[80] utilizationEnergyOverdrawMaintenance 0
scalar OsgEarthNet.uav[80] utilizationCountMissions 37
scalar OsgEarthNet.uav[80] utilizationCountManeuversMission 653
scalar OsgEarthNet.uav[80] utilizationCountManeuversMaintenance 74
scalar OsgEarthNet.uav[80] utilizationCountChargeState 37
scalar OsgEarthNet.uav[80] utilizationCountOverdrawnAfterMission 0
scalar OsgEarthNet.uav[80] utilizationCountIdleState 38
scalar OsgEarthNet.uav[80] utilizationFail 0
scalar OsgEarthNet.uav[80] simulationTime 259200
scalar OsgEarthNet.uav[81] utilizationSecMission 29500.674254309
scalar OsgEarthNet.uav[81] utilizationSecMaintenance 17976.291716973
scalar OsgEarthNet.uav[81] utilizationSecCharge 183461.02502872
scalar OsgEarthNet.uav[81] utilizationSecIdle 28262.008
scalar OsgEarthNet.uav[81] utilizationEnergyMission 142662.09970093
scalar OsgEarthNet.uav[81] utilizationEnergyMaintenance 84170.11838913
scalar OsgEarthNet.uav[81] utilizationEnergyCharge 228389.60302734
scalar OsgEarthNet.uav[81] utilizationEnergyOverdrawMission 0
scalar OsgEarthNet.uav[81] utilizationEnergyOverdrawMaintenance 0
scalar OsgEarthNet.uav[81] utilizationCountMissions 57
scalar OsgEarthNet.uav[81] utilizationCountManeuversMission 893
scalar OsgEarthNet.uav[81] utilizationCountManeuversMaintenance 114
scalar OsgEarthNet.uav[81] utilizationCountChargeState 57
scalar OsgEarthNet.uav[81] utilizationCountOverdrawnAfterMission 0
scalar OsgEarthNet.uav[81] utilizationCountIdleState 57
scalar OsgEarthNet.uav[81] utilizationFail 0
scalar OsgEarthNet.uav[81] simulationTime 259200
scalar OsgEarthNet.uav[82] utilizationSecMission 34124.273605829
scalar OsgEarthNet.uav[82] utilizationSecMaintenance 13501.503585827
scalar OsgEarthNet.uav[82] utilizationSecCharge 172735.64821575
scalar OsgEarthNet.uav[82] utilizationSecIdle 38838.573592593
scalar OsgEarthNet.uav[82] utilizationEnergyMission 161207.62244415
scalar OsgEarthNet.uav[82] utilizationEnergyMaintenance 61715.005683899
scalar OsgEarthNet.uav[82] utilizationEnergyCharge 224384.56787109
scalar OsgEarthNet.uav[82] utilizationEnergyOverdrawMission 0
scalar OsgEarthNet.uav[82] utilizationEnergyOverdrawMaintenance 0
scalar OsgEarthNet.uav[82] utilizationCountMissions 49
scalar OsgEarthNet.uav[82] utilizationCountManeuversMission 1000
scalar OsgEarthNet.uav[82] utilizationCountManeuversMaintenance 98
scalar OsgEarthNet.uav[82] utilizationCountChargeState 49
scalar OsgEarthNet.uav[82] utilizationCountOverdrawnAfterMission 0
scalar OsgEarthNet.uav[82] utilizationCountIdleState 49
scalar OsgEarthNet.uav[82] utilizationFail 0
scalar OsgEarthNet.uav[82] simulationTime 259200
scalar OsgEarthNet.uav[83] utilizationSecMission 23880.260480035
scalar OsgEarthNet.uav[83] utilizationSecMaintenance 14854.950360867
scalar OsgEarthNet.uav[83] utilizationSecCharge 143362.7751591
scalar OsgEarthNet.uav[83] utilizationSecIdle 77102.013
scalar OsgEarthNet.uav[83] utilizationEnergyMission 115063.1993103
scalar OsgEarthNet.uav[83] utilizationEnergyMaintenance 70541.583995819
scalar OsgEarthNet.uav[83] utilizationEnergyCharge 186344.43457031
scalar OsgEarthNet.uav[83] utilizationEnergyOverdrawMission 0
scalar OsgEarthNet.uav[83] utilizationEnergyOverdrawMaintenance 0
scalar OsgEarthNet.uav[83] utilizationCountMissions 41
scalar OsgEarthNet.uav[83] utilizationCountManeuversMission 773
scalar OsgEarthNet.uav[83] utilizationCountManeuversMaintenance 82
scalar OsgEarthNet.uav[83] utilizationCountChargeState 41
scalar OsgEarthNet.uav[83] utilizationCountOverdrawnAfterMission 0
scalar OsgEarthNet.uav[83] utilizationCountIdleState 41
scalar OsgEarthNet.uav[83] utilizationFail 0
scalar OsgEarthNet.uav[83] simulationTime 259200
scalar OsgEarthNet.uav[84] utilizationSecMission 30100.194415521
scalar OsgEarthNet.uav[84] utilizationSecMaintenance 16687.484384396
scalar OsgEarthNet.uav[84] utilizationSecCharge 181710
scalar OsgEarthNet.uav[84] utilizationSecIdle 30702.320200083
scalar OsgEarthNet.uav[84] utilizationEnergyMission 142126.51188278
scalar OsgEarthNet.uav[84] utilizationEnergyMaintenance 80315.578086853
scalar OsgEarthNet.uav[84] utilizationEnergyCharge 224151.81640625
scalar OsgEarthNet.uav[84] utilizationEnergyOverdrawMission 0
scalar OsgEarthNet.uav[84] utilizationEnergyOverdrawMaintenance 0
scalar OsgEarthNet.uav[84] utilizationCountMissions 57
scalar OsgEarthNet.uav[84] utilizationCountManeuversMission 786
scalar OsgEarthNet.uav[84] utilizationCountManeuversMaintenance 114
scalar OsgEarthNet.uav[84] utilizationCountChargeState 57
scalar OsgEarthNet.uav[84] utilizationCountOverdrawnAfterMission 0
scalar OsgEarthNet.uav[84] utilizationCountIdleState 58
scalar OsgEarthNet.uav[84] utilizationFail 0
scalar OsgEarthNet.uav[84] simulationTime 259200
scalar OsgEarthNet.cs[0] usedPower 4010995.7116015
scalar OsgEarthNet.cs[0] chargedPower 4010995.7116015
scalar OsgEarthNet.cs[0] chargedMobileNodes 875
scalar OsgEarthNet.cs[0] reservations 888
scalar OsgEarthNet.cs[1] usedPower 5696191.3194149
scalar OsgEarthNet.cs[1] chargedPower 5696191.3194149
scalar OsgEarthNet.cs[1] chargedMobileNodes 1384
scalar OsgEarthNet.cs[1] reservations 1412
scalar OsgEarthNet.cs[2] usedPower 6975066.2608153
scalar OsgEarthNet.cs[2] chargedPower 6975066.2608153
scalar OsgEarthNet.cs[2] chargedMobileNodes 1485
scalar OsgEarthNet.cs[2] reservations 1523

