version 2
run Szenario_Hotel_Gabelbach-227-20180719-09:18:22-28580
attr configname Szenario_Hotel_Gabelbach
attr datetime 20180719-09:18:22
attr experiment Szenario_Hotel_Gabelbach
attr inifile omnetpp.ini
attr iterationvars "$replM=2, $biWeight=0.35, $replSearchM=1, $numUAVs=68"
attr iterationvarsf replM=2,biWeight=0.35,replSearchM=1,numUAVs=68-
attr measurement "$replM=2, $biWeight=0.35, $replSearchM=1, $numUAVs=68"
attr network OsgEarthNet
attr processid 28580
attr repetition 11
attr replication #11
attr resultdir results
attr runnumber 227
attr seedset 227
itervar biWeight 0.35
itervar numUAVs 68
itervar replM 2
itervar replSearchM 1
param *.osgEarthScene.scene "\"Szenario_Hotel_Gabelbach.earth\""
param *.playgroundLatitude 50.6830269
param *.playgroundLongitude 10.8538055
param *.playgroundWidth 3500m
param *.playgroundHeight 3500m
param *.cs[0].posX 3537m
param *.cs[0].posY 965m
param *.cs[0].posZ 538m
param *.cs[1].posX 312m
param *.cs[1].posY 1262m
param *.cs[1].posZ 539m
param *.cs[2].posX 2185m
param *.cs[2].posY 3026m
param *.cs[2].posZ 777m
param *.cs[3].posX 10m
param *.cs[3].posY 2200m
param *.cs[3].posZ 560m
param *.cs[4].posX 750m
param *.cs[4].posY 200m
param *.cs[4].posZ 540m
param *.cs[5].posX 2450m
param *.cs[5].posY 180m
param *.cs[5].posZ 524m
param *.cs[6].posX 3140m
param *.cs[6].posY 1790m
param *.cs[6].posZ 606m
param *.numCSs 3
param *.uav[*].replacementMethod 2
param *.uav[*].weightedSumWeight 0.35
param *.missionControl.replacementSearchMethod 1
param *.numUAVs 68
param *.*.timeStep 10s
param *.uav[*].commandPreviewCommandCount 20
param *.missionControl.missionFiles "\"missions\\\\Szenario_WB_Hotel_Gabelbach_Mission_Hotel.waypoints,missions\\\\Szenario_WB_Hotel_Gabelbach_Mission_Kickelhahn.waypoints,missions\\\\Szenario_WB_Hotel_Gabelbach_Mission_Ilmenau_Sportplatz.waypoints,missions\\\\Szenario_WB_Hotel_Gabelbach_Mission_Manebach_Mitte.waypoints,missions\\\\Szenario_WB_Hotel_Gabelbach_Mission_Manebach_Sued.waypoints,missions\\\\Szenario_WB_Hotel_Gabelbach_Hover_HoheSchlaufe.waypoints,missions\\\\Szenario_WB_Hotel_Gabelbach_Hover_Kickelhahn.waypoints,missions\\\\Szenario_WB_Hotel_Gabelbach_Hover_Gabelbachskopf.waypoints,missions\\\\Szenario_WB_Hotel_Gabelbach_Hover_Dachskopf.waypoints\""
param *.uav[0].startX 3537m
param *.uav[0].startY 965m
param *.uav[0].startZ 539m
param *.uav[1].startX 312m
param *.uav[1].startY 1262m
param *.uav[1].startZ 540m
param *.uav[2].startX 2185m
param *.uav[2].startY 3026m
param *.uav[2].startZ 778m
param *.uav[3].startX 3537m
param *.uav[3].startY 965m
param *.uav[3].startZ 539m
param *.uav[4].startX 312m
param *.uav[4].startY 1262m
param *.uav[4].startZ 540m
param *.uav[5].startX 2185m
param *.uav[5].startY 3026m
param *.uav[5].startZ 778m
param *.uav[6].startX 3537m
param *.uav[6].startY 965m
param *.uav[6].startZ 539m
param *.uav[7].startX 312m
param *.uav[7].startY 1262m
param *.uav[7].startZ 540m
param *.uav[8].startX 2185m
param *.uav[8].startY 3026m
param *.uav[8].startZ 778m
param *.uav[9].startX 3537m
param *.uav[9].startY 965m
param *.uav[9].startZ 539m
param *.uav[10].startX 3537m
param *.uav[10].startY 965m
param *.uav[10].startZ 539m
param *.uav[11].startX 312m
param *.uav[11].startY 1262m
param *.uav[11].startZ 540m
param *.uav[12].startX 2185m
param *.uav[12].startY 3026m
param *.uav[12].startZ 778m
param *.uav[13].startX 3537m
param *.uav[13].startY 965m
param *.uav[13].startZ 539m
param *.uav[14].startX 312m
param *.uav[14].startY 1262m
param *.uav[14].startZ 540m
param *.uav[15].startX 2185m
param *.uav[15].startY 3026m
param *.uav[15].startZ 778m
param *.uav[16].startX 3537m
param *.uav[16].startY 965m
param *.uav[16].startZ 539m
param *.uav[17].startX 312m
param *.uav[17].startY 1262m
param *.uav[17].startZ 540m
param *.uav[18].startX 2185m
param *.uav[18].startY 3026m
param *.uav[18].startZ 778m
param *.uav[19].startX 3537m
param *.uav[19].startY 965m
param *.uav[19].startZ 539m
param *.uav[20].startX 3537m
param *.uav[20].startY 965m
param *.uav[20].startZ 539m
param *.uav[21].startX 312m
param *.uav[21].startY 1262m
param *.uav[21].startZ 540m
param *.uav[22].startX 2185m
param *.uav[22].startY 3026m
param *.uav[22].startZ 778m
param *.uav[23].startX 3537m
param *.uav[23].startY 965m
param *.uav[23].startZ 539m
param *.uav[24].startX 312m
param *.uav[24].startY 1262m
param *.uav[24].startZ 540m
param *.uav[25].startX 2185m
param *.uav[25].startY 3026m
param *.uav[25].startZ 778m
param *.uav[26].startX 3537m
param *.uav[26].startY 965m
param *.uav[26].startZ 539m
param *.uav[27].startX 312m
param *.uav[27].startY 1262m
param *.uav[27].startZ 540m
param *.uav[28].startX 2185m
param *.uav[28].startY 3026m
param *.uav[28].startZ 778m
param *.uav[29].startX 3537m
param *.uav[29].startY 965m
param *.uav[29].startZ 539m
param *.uav[30].startX 3537m
param *.uav[30].startY 965m
param *.uav[30].startZ 539m
param *.uav[31].startX 312m
param *.uav[31].startY 1262m
param *.uav[31].startZ 540m
param *.uav[32].startX 2185m
param *.uav[32].startY 3026m
param *.uav[32].startZ 778m
param *.uav[33].startX 3537m
param *.uav[33].startY 965m
param *.uav[33].startZ 539m
param *.uav[34].startX 312m
param *.uav[34].startY 1262m
param *.uav[34].startZ 540m
param *.uav[35].startX 2185m
param *.uav[35].startY 3026m
param *.uav[35].startZ 778m
param *.uav[36].startX 3537m
param *.uav[36].startY 965m
param *.uav[36].startZ 539m
param *.uav[37].startX 312m
param *.uav[37].startY 1262m
param *.uav[37].startZ 540m
param *.uav[38].startX 2185m
param *.uav[38].startY 3026m
param *.uav[38].startZ 778m
param *.uav[39].startX 3537m
param *.uav[39].startY 965m
param *.uav[39].startZ 539m
param *.uav[40].startX 3537m
param *.uav[40].startY 965m
param *.uav[40].startZ 539m
param *.uav[41].startX 312m
param *.uav[41].startY 1262m
param *.uav[41].startZ 540m
param *.uav[42].startX 2185m
param *.uav[42].startY 3026m
param *.uav[42].startZ 778m
param *.uav[43].startX 3537m
param *.uav[43].startY 965m
param *.uav[43].startZ 539m
param *.uav[44].startX 312m
param *.uav[44].startY 1262m
param *.uav[44].startZ 540m
param *.uav[45].startX 2185m
param *.uav[45].startY 3026m
param *.uav[45].startZ 778m
param *.uav[46].startX 3537m
param *.uav[46].startY 965m
param *.uav[46].startZ 539m
param *.uav[47].startX 312m
param *.uav[47].startY 1262m
param *.uav[47].startZ 540m
param *.uav[48].startX 2185m
param *.uav[48].startY 3026m
param *.uav[48].startZ 778m
param *.uav[49].startX 3537m
param *.uav[49].startY 965m
param *.uav[49].startZ 539m
param *.uav[50].startX 3537m
param *.uav[50].startY 965m
param *.uav[50].startZ 539m
param *.uav[51].startX 312m
param *.uav[51].startY 1262m
param *.uav[51].startZ 540m
param *.uav[52].startX 2185m
param *.uav[52].startY 3026m
param *.uav[52].startZ 778m
param *.uav[53].startX 3537m
param *.uav[53].startY 965m
param *.uav[53].startZ 539m
param *.uav[54].startX 312m
param *.uav[54].startY 1262m
param *.uav[54].startZ 540m
param *.uav[55].startX 2185m
param *.uav[55].startY 3026m
param *.uav[55].startZ 778m
param *.uav[56].startX 3537m
param *.uav[56].startY 965m
param *.uav[56].startZ 539m
param *.uav[57].startX 312m
param *.uav[57].startY 1262m
param *.uav[57].startZ 540m
param *.uav[58].startX 2185m
param *.uav[58].startY 3026m
param *.uav[58].startZ 778m
param *.uav[59].startX 3537m
param *.uav[59].startY 965m
param *.uav[59].startZ 539m
param *.uav[60].startX 3537m
param *.uav[60].startY 965m
param *.uav[60].startZ 539m
param *.uav[61].startX 312m
param *.uav[61].startY 1262m
param *.uav[61].startZ 540m
param *.uav[62].startX 2185m
param *.uav[62].startY 3026m
param *.uav[62].startZ 778m
param *.uav[63].startX 3537m
param *.uav[63].startY 965m
param *.uav[63].startZ 539m
param *.uav[64].startX 312m
param *.uav[64].startY 1262m
param *.uav[64].startZ 540m
param *.uav[65].startX 2185m
param *.uav[65].startY 3026m
param *.uav[65].startZ 778m
param *.uav[66].startX 3537m
param *.uav[66].startY 965m
param *.uav[66].startZ 539m
param *.uav[67].startX 312m
param *.uav[67].startY 1262m
param *.uav[67].startZ 540m
param *.uav[68].startX 2185m
param *.uav[68].startY 3026m
param *.uav[68].startZ 778m
param *.uav[69].startX 3537m
param *.uav[69].startY 965m
param *.uav[69].startZ 539m
param *.uav[70].startX 3537m
param *.uav[70].startY 965m
param *.uav[70].startZ 539m
param *.uav[71].startX 312m
param *.uav[71].startY 1262m
param *.uav[71].startZ 540m
param *.uav[72].startX 2185m
param *.uav[72].startY 3026m
param *.uav[72].startZ 778m
param *.uav[73].startX 3537m
param *.uav[73].startY 965m
param *.uav[73].startZ 539m
param *.uav[74].startX 312m
param *.uav[74].startY 1262m
param *.uav[74].startZ 540m
param *.uav[75].startX 2185m
param *.uav[75].startY 3026m
param *.uav[75].startZ 778m
param *.uav[76].startX 3537m
param *.uav[76].startY 965m
param *.uav[76].startZ 539m
param *.uav[77].startX 312m
param *.uav[77].startY 1262m
param *.uav[77].startZ 540m
param *.uav[78].startX 2185m
param *.uav[78].startY 3026m
param *.uav[78].startZ 778m
param *.uav[79].startX 3537m
param *.uav[79].startY 965m
param *.uav[79].startZ 539m
param *.uav[80].startX 3537m
param *.uav[80].startY 965m
param *.uav[80].startZ 539m
param *.uav[81].startX 312m
param *.uav[81].startY 1262m
param *.uav[81].startZ 540m
param *.uav[82].startX 2185m
param *.uav[82].startY 3026m
param *.uav[82].startZ 778m
param *.uav[83].startX 3537m
param *.uav[83].startY 965m
param *.uav[83].startZ 539m
param *.uav[84].startX 312m
param *.uav[84].startY 1262m
param *.uav[84].startZ 540m
param *.uav[85].startX 2185m
param *.uav[85].startY 3026m
param *.uav[85].startZ 778m
param *.uav[86].startX 3537m
param *.uav[86].startY 965m
param *.uav[86].startZ 539m
param *.uav[87].startX 312m
param *.uav[87].startY 1262m
param *.uav[87].startZ 540m
param *.uav[88].startX 2185m
param *.uav[88].startY 3026m
param *.uav[88].startZ 778m
param *.uav[89].startX 3537m
param *.uav[89].startY 965m
param *.uav[89].startZ 539m
param *.uav[90].startX 3537m
param *.uav[90].startY 965m
param *.uav[90].startZ 539m
param *.uav[91].startX 312m
param *.uav[91].startY 1262m
param *.uav[91].startZ 540m
param *.uav[92].startX 2185m
param *.uav[92].startY 3026m
param *.uav[92].startZ 778m
param *.uav[93].startX 3537m
param *.uav[93].startY 965m
param *.uav[93].startZ 539m
param *.uav[94].startX 312m
param *.uav[94].startY 1262m
param *.uav[94].startZ 540m
param *.uav[95].startX 2185m
param *.uav[95].startY 3026m
param *.uav[95].startZ 778m
param *.uav[96].startX 3537m
param *.uav[96].startY 965m
param *.uav[96].startZ 539m
param *.uav[97].startX 312m
param *.uav[97].startY 1262m
param *.uav[97].startZ 540m
param *.uav[98].startX 2185m
param *.uav[98].startY 3026m
param *.uav[98].startZ 778m
param *.uav[99].startX 3537m
param *.uav[99].startY 965m
param *.uav[99].startZ 539m
param *.osgEarthScene.scene "\"boston.earth\""
param *.playgroundLatitude 42.3558
param *.playgroundLongitude -71.0677
param *.playgroundWidth 400m
param *.playgroundHeight 200m
param *.channelController.connectionColor "\"#0000FF40\""
param *.channelController.showConnections false
param *.uav[*].modelURL "\"quadrocopter.small.obj.15.scale.0,0,90.rot\""
param *.uav[*].labelColor "\"#FF7C00CC\""
param *.uav[*].label2Color "\"#FF7C00EE\""
param *.uav[*].batteryCapacity 5200mAh
param *.uav[*].batteryRemaining uav[index].batteryCapacity
param *.uav[*].predictionQuantile 0.95
param *.uav[*].replacementMethod 2
param *.uav[*].weightedSumWeight 0.5
param *.cs[*].modelURL "\"chargingstation_v1.osgt.2.scale.0,0,0.rot.0,0,-15e-1.trans\""
param *.cs[*].spotsWaiting 999
param *.cs[*].spotsCharging 999
param *.cs[*].chargeEffectivenessPercentage 100
param *.cs[*].nonLinearPhaseStartPercentage 85
param *.cs[*].chargeCurrent 6.0A
param *.cs[*].prioritizeFastCharge true
param *.missionControl.replacementSearchMethod 0
param *.*.timeStep 9s

scalar OsgEarthNet.uav[0] utilizationSecMission 30594.596659505
scalar OsgEarthNet.uav[0] utilizationSecMaintenance 17139.181976307
scalar OsgEarthNet.uav[0] utilizationSecCharge 177274.70670324
scalar OsgEarthNet.uav[0] utilizationSecIdle 34191.51366095
scalar OsgEarthNet.uav[0] utilizationEnergyMission 147989.58423615
scalar OsgEarthNet.uav[0] utilizationEnergyMaintenance 81054.612850189
scalar OsgEarthNet.uav[0] utilizationEnergyCharge 228566.60253906
scalar OsgEarthNet.uav[0] utilizationEnergyOverdrawMission 0
scalar OsgEarthNet.uav[0] utilizationEnergyOverdrawMaintenance 0
scalar OsgEarthNet.uav[0] utilizationCountMissions 51
scalar OsgEarthNet.uav[0] utilizationCountManeuversMission 897
scalar OsgEarthNet.uav[0] utilizationCountManeuversMaintenance 102
scalar OsgEarthNet.uav[0] utilizationCountChargeState 51
scalar OsgEarthNet.uav[0] utilizationCountOverdrawnAfterMission 0
scalar OsgEarthNet.uav[0] utilizationCountIdleState 49
scalar OsgEarthNet.uav[0] utilizationFail 0
scalar OsgEarthNet.uav[0] simulationTime 259200
scalar OsgEarthNet.uav[1] utilizationSecMission 28403.352060615
scalar OsgEarthNet.uav[1] utilizationSecMaintenance 19126.218649459
scalar OsgEarthNet.uav[1] utilizationSecCharge 186180
scalar OsgEarthNet.uav[1] utilizationSecIdle 25490.428289926
scalar OsgEarthNet.uav[1] utilizationEnergyMission 135899.99560165
scalar OsgEarthNet.uav[1] utilizationEnergyMaintenance 91351.647029877
scalar OsgEarthNet.uav[1] utilizationEnergyCharge 227790.60180664
scalar OsgEarthNet.uav[1] utilizationEnergyOverdrawMission 0
scalar OsgEarthNet.uav[1] utilizationEnergyOverdrawMaintenance 0
scalar OsgEarthNet.uav[1] utilizationCountMissions 60
scalar OsgEarthNet.uav[1] utilizationCountManeuversMission 794
scalar OsgEarthNet.uav[1] utilizationCountManeuversMaintenance 120
scalar OsgEarthNet.uav[1] utilizationCountChargeState 60
scalar OsgEarthNet.uav[1] utilizationCountOverdrawnAfterMission 0
scalar OsgEarthNet.uav[1] utilizationCountIdleState 60
scalar OsgEarthNet.uav[1] utilizationFail 0
scalar OsgEarthNet.uav[1] simulationTime 259200
scalar OsgEarthNet.uav[2] utilizationSecMission 39574.926514179
scalar OsgEarthNet.uav[2] utilizationSecMaintenance 16207.737609688
scalar OsgEarthNet.uav[2] utilizationSecCharge 196247.70379547
scalar OsgEarthNet.uav[2] utilizationSecIdle 7169.6310806652
scalar OsgEarthNet.uav[2] utilizationEnergyMission 189637.25099945
scalar OsgEarthNet.uav[2] utilizationEnergyMaintenance 74618.480892181
scalar OsgEarthNet.uav[2] utilizationEnergyCharge 263659.42236328
scalar OsgEarthNet.uav[2] utilizationEnergyOverdrawMission 0
scalar OsgEarthNet.uav[2] utilizationEnergyOverdrawMaintenance 0
scalar OsgEarthNet.uav[2] utilizationCountMissions 57
scalar OsgEarthNet.uav[2] utilizationCountManeuversMission 1168
scalar OsgEarthNet.uav[2] utilizationCountManeuversMaintenance 114
scalar OsgEarthNet.uav[2] utilizationCountChargeState 57
scalar OsgEarthNet.uav[2] utilizationCountOverdrawnAfterMission 0
scalar OsgEarthNet.uav[2] utilizationCountIdleState 32
scalar OsgEarthNet.uav[2] utilizationFail 0
scalar OsgEarthNet.uav[2] simulationTime 259200
scalar OsgEarthNet.uav[3] utilizationSecMission 38625.825318614
scalar OsgEarthNet.uav[3] utilizationSecMaintenance 16709.911819002
scalar OsgEarthNet.uav[3] utilizationSecCharge 193726.87669833
scalar OsgEarthNet.uav[3] utilizationSecIdle 10137.385164054
scalar OsgEarthNet.uav[3] utilizationEnergyMission 187560.03774261
scalar OsgEarthNet.uav[3] utilizationEnergyMaintenance 76993.336753845
scalar OsgEarthNet.uav[3] utilizationEnergyCharge 262463.85449219
scalar OsgEarthNet.uav[3] utilizationEnergyOverdrawMission 0
scalar OsgEarthNet.uav[3] utilizationEnergyOverdrawMaintenance 0
scalar OsgEarthNet.uav[3] utilizationCountMissions 57
scalar OsgEarthNet.uav[3] utilizationCountManeuversMission 1030
scalar OsgEarthNet.uav[3] utilizationCountManeuversMaintenance 114
scalar OsgEarthNet.uav[3] utilizationCountChargeState 57
scalar OsgEarthNet.uav[3] utilizationCountOverdrawnAfterMission 0
scalar OsgEarthNet.uav[3] utilizationCountIdleState 35
scalar OsgEarthNet.uav[3] utilizationFail 0
scalar OsgEarthNet.uav[3] simulationTime 259200
scalar OsgEarthNet.uav[4] utilizationSecMission 38675.477129939
scalar OsgEarthNet.uav[4] utilizationSecMaintenance 16644.536901371
scalar OsgEarthNet.uav[4] utilizationSecCharge 194484.54288
scalar OsgEarthNet.uav[4] utilizationSecIdle 9395.4420886909
scalar OsgEarthNet.uav[4] utilizationEnergyMission 188490.96997452
scalar OsgEarthNet.uav[4] utilizationEnergyMaintenance 77549.400218964
scalar OsgEarthNet.uav[4] utilizationEnergyCharge 263162.03930664
scalar OsgEarthNet.uav[4] utilizationEnergyOverdrawMission 0
scalar OsgEarthNet.uav[4] utilizationEnergyOverdrawMaintenance 0
scalar OsgEarthNet.uav[4] utilizationCountMissions 57
scalar OsgEarthNet.uav[4] utilizationCountManeuversMission 1237
scalar OsgEarthNet.uav[4] utilizationCountManeuversMaintenance 114
scalar OsgEarthNet.uav[4] utilizationCountChargeState 57
scalar OsgEarthNet.uav[4] utilizationCountOverdrawnAfterMission 0
scalar OsgEarthNet.uav[4] utilizationCountIdleState 32
scalar OsgEarthNet.uav[4] utilizationFail 0
scalar OsgEarthNet.uav[4] simulationTime 259200
scalar OsgEarthNet.uav[5] utilizationSecMission 39539.312286038
scalar OsgEarthNet.uav[5] utilizationSecMaintenance 16984.648100686
scalar OsgEarthNet.uav[5] utilizationSecCharge 195264.03561328
scalar OsgEarthNet.uav[5] utilizationSecIdle 7412.003
scalar OsgEarthNet.uav[5] utilizationEnergyMission 189353.54164124
scalar OsgEarthNet.uav[5] utilizationEnergyMaintenance 79039.980583191
scalar OsgEarthNet.uav[5] utilizationEnergyCharge 263356.01669312
scalar OsgEarthNet.uav[5] utilizationEnergyOverdrawMission 0
scalar OsgEarthNet.uav[5] utilizationEnergyOverdrawMaintenance 0
scalar OsgEarthNet.uav[5] utilizationCountMissions 58
scalar OsgEarthNet.uav[5] utilizationCountManeuversMission 1100
scalar OsgEarthNet.uav[5] utilizationCountManeuversMaintenance 116
scalar OsgEarthNet.uav[5] utilizationCountChargeState 58
scalar OsgEarthNet.uav[5] utilizationCountOverdrawnAfterMission 0
scalar OsgEarthNet.uav[5] utilizationCountIdleState 29
scalar OsgEarthNet.uav[5] utilizationFail 0
scalar OsgEarthNet.uav[5] simulationTime 259200
scalar OsgEarthNet.uav[6] utilizationSecMission 27804.9396213
scalar OsgEarthNet.uav[6] utilizationSecMaintenance 19019.202975464
scalar OsgEarthNet.uav[6] utilizationSecCharge 176213.85340324
scalar OsgEarthNet.uav[6] utilizationSecIdle 36162.003
scalar OsgEarthNet.uav[6] utilizationEnergyMission 137544.05471039
scalar OsgEarthNet.uav[6] utilizationEnergyMaintenance 90035.017040253
scalar OsgEarthNet.uav[6] utilizationEnergyCharge 220592.0168457
scalar OsgEarthNet.uav[6] utilizationEnergyOverdrawMission 0
scalar OsgEarthNet.uav[6] utilizationEnergyOverdrawMaintenance 0
scalar OsgEarthNet.uav[6] utilizationCountMissions 55
scalar OsgEarthNet.uav[6] utilizationCountManeuversMission 890
scalar OsgEarthNet.uav[6] utilizationCountManeuversMaintenance 110
scalar OsgEarthNet.uav[6] utilizationCountChargeState 55
scalar OsgEarthNet.uav[6] utilizationCountOverdrawnAfterMission 0
scalar OsgEarthNet.uav[6] utilizationCountIdleState 55
scalar OsgEarthNet.uav[6] utilizationFail 0
scalar OsgEarthNet.uav[6] simulationTime 259200
scalar OsgEarthNet.uav[7] utilizationSecMission 28335.359648857
scalar OsgEarthNet.uav[7] utilizationSecMaintenance 19762.632351143
scalar OsgEarthNet.uav[7] utilizationSecCharge 183600
scalar OsgEarthNet.uav[7] utilizationSecIdle 27502.007
scalar OsgEarthNet.uav[7] utilizationEnergyMission 139626.79912057
scalar OsgEarthNet.uav[7] utilizationEnergyMaintenance 94726.661560059
scalar OsgEarthNet.uav[7] utilizationEnergyCharge 229923.79931641
scalar OsgEarthNet.uav[7] utilizationEnergyOverdrawMission 0
scalar OsgEarthNet.uav[7] utilizationEnergyOverdrawMaintenance 0
scalar OsgEarthNet.uav[7] utilizationCountMissions 56
scalar OsgEarthNet.uav[7] utilizationCountManeuversMission 1082
scalar OsgEarthNet.uav[7] utilizationCountManeuversMaintenance 113
scalar OsgEarthNet.uav[7] utilizationCountChargeState 56
scalar OsgEarthNet.uav[7] utilizationCountOverdrawnAfterMission 0
scalar OsgEarthNet.uav[7] utilizationCountIdleState 56
scalar OsgEarthNet.uav[7] utilizationFail 0
scalar OsgEarthNet.uav[7] simulationTime 259200
scalar OsgEarthNet.uav[8] utilizationSecMission 39012.325720032
scalar OsgEarthNet.uav[8] utilizationSecMaintenance 17345.670279968
scalar OsgEarthNet.uav[8] utilizationSecCharge 196730
scalar OsgEarthNet.uav[8] utilizationSecIdle 6112.003
scalar OsgEarthNet.uav[8] utilizationEnergyMission 189254.3481227
scalar OsgEarthNet.uav[8] utilizationEnergyMaintenance 78838.489810944
scalar OsgEarthNet.uav[8] utilizationEnergyCharge 265208.06201172
scalar OsgEarthNet.uav[8] utilizationEnergyOverdrawMission 0
scalar OsgEarthNet.uav[8] utilizationEnergyOverdrawMaintenance 0
scalar OsgEarthNet.uav[8] utilizationCountMissions 58
scalar OsgEarthNet.uav[8] utilizationCountManeuversMission 1174
scalar OsgEarthNet.uav[8] utilizationCountManeuversMaintenance 117
scalar OsgEarthNet.uav[8] utilizationCountChargeState 58
scalar OsgEarthNet.uav[8] utilizationCountOverdrawnAfterMission 0
scalar OsgEarthNet.uav[8] utilizationCountIdleState 28
scalar OsgEarthNet.uav[8] utilizationFail 0
scalar OsgEarthNet.uav[8] simulationTime 259200
scalar OsgEarthNet.uav[9] utilizationSecMission 28670.627593865
scalar OsgEarthNet.uav[9] utilizationSecMaintenance 18943.410789013
scalar OsgEarthNet.uav[9] utilizationSecCharge 177982.56849959
scalar OsgEarthNet.uav[9] utilizationSecIdle 33603.392117534
scalar OsgEarthNet.uav[9] utilizationEnergyMission 139676.33483505
scalar OsgEarthNet.uav[9] utilizationEnergyMaintenance 90134.582717895
scalar OsgEarthNet.uav[9] utilizationEnergyCharge 230374.48339844
scalar OsgEarthNet.uav[9] utilizationEnergyOverdrawMission 0
scalar OsgEarthNet.uav[9] utilizationEnergyOverdrawMaintenance 0
scalar OsgEarthNet.uav[9] utilizationCountMissions 51
scalar OsgEarthNet.uav[9] utilizationCountManeuversMission 991
scalar OsgEarthNet.uav[9] utilizationCountManeuversMaintenance 102
scalar OsgEarthNet.uav[9] utilizationCountChargeState 51
scalar OsgEarthNet.uav[9] utilizationCountOverdrawnAfterMission 0
scalar OsgEarthNet.uav[9] utilizationCountIdleState 47
scalar OsgEarthNet.uav[9] utilizationFail 0
scalar OsgEarthNet.uav[9] simulationTime 259200
scalar OsgEarthNet.uav[10] utilizationSecMission 29702.245012855
scalar OsgEarthNet.uav[10] utilizationSecMaintenance 18301.1335606
scalar OsgEarthNet.uav[10] utilizationSecCharge 175162.60215682
scalar OsgEarthNet.uav[10] utilizationSecIdle 36034.018269728
scalar OsgEarthNet.uav[10] utilizationEnergyMission 145252.08708954
scalar OsgEarthNet.uav[10] utilizationEnergyMaintenance 86852.27104187
scalar OsgEarthNet.uav[10] utilizationEnergyCharge 225615.18768311
scalar OsgEarthNet.uav[10] utilizationEnergyOverdrawMission 0
scalar OsgEarthNet.uav[10] utilizationEnergyOverdrawMaintenance 0
scalar OsgEarthNet.uav[10] utilizationCountMissions 51
scalar OsgEarthNet.uav[10] utilizationCountManeuversMission 969
scalar OsgEarthNet.uav[10] utilizationCountManeuversMaintenance 102
scalar OsgEarthNet.uav[10] utilizationCountChargeState 51
scalar OsgEarthNet.uav[10] utilizationCountOverdrawnAfterMission 0
scalar OsgEarthNet.uav[10] utilizationCountIdleState 49
scalar OsgEarthNet.uav[10] utilizationFail 0
scalar OsgEarthNet.uav[10] simulationTime 259200
scalar OsgEarthNet.uav[11] utilizationSecMission 28061.601569993
scalar OsgEarthNet.uav[11] utilizationSecMaintenance 19433.230699791
scalar OsgEarthNet.uav[11] utilizationSecCharge 184650
scalar OsgEarthNet.uav[11] utilizationSecIdle 27055.166730216
scalar OsgEarthNet.uav[11] utilizationEnergyMission 133968.58916473
scalar OsgEarthNet.uav[11] utilizationEnergyMaintenance 92336.130069733
scalar OsgEarthNet.uav[11] utilizationEnergyCharge 228260.76879883
scalar OsgEarthNet.uav[11] utilizationEnergyOverdrawMission 0
scalar OsgEarthNet.uav[11] utilizationEnergyOverdrawMaintenance 0
scalar OsgEarthNet.uav[11] utilizationCountMissions 58
scalar OsgEarthNet.uav[11] utilizationCountManeuversMission 926
scalar OsgEarthNet.uav[11] utilizationCountManeuversMaintenance 116
scalar OsgEarthNet.uav[11] utilizationCountChargeState 58
scalar OsgEarthNet.uav[11] utilizationCountOverdrawnAfterMission 0
scalar OsgEarthNet.uav[11] utilizationCountIdleState 58
scalar OsgEarthNet.uav[11] utilizationFail 0
scalar OsgEarthNet.uav[11] simulationTime 259200
scalar OsgEarthNet.uav[12] utilizationSecMission 40152.436712795
scalar OsgEarthNet.uav[12] utilizationSecMaintenance 16518.868476164
scalar OsgEarthNet.uav[12] utilizationSecCharge 198326.69281104
scalar OsgEarthNet.uav[12] utilizationSecIdle 4202.001
scalar OsgEarthNet.uav[12] utilizationEnergyMission 192077.77658463
scalar OsgEarthNet.uav[12] utilizationEnergyMaintenance 76592.426994324
scalar OsgEarthNet.uav[12] utilizationEnergyCharge 268215.34204102
scalar OsgEarthNet.uav[12] utilizationEnergyOverdrawMission 0
scalar OsgEarthNet.uav[12] utilizationEnergyOverdrawMaintenance 0
scalar OsgEarthNet.uav[12] utilizationCountMissions 58
scalar OsgEarthNet.uav[12] utilizationCountManeuversMission 1113
scalar OsgEarthNet.uav[12] utilizationCountManeuversMaintenance 116
scalar OsgEarthNet.uav[12] utilizationCountChargeState 58
scalar OsgEarthNet.uav[12] utilizationCountOverdrawnAfterMission 0
scalar OsgEarthNet.uav[12] utilizationCountIdleState 25
scalar OsgEarthNet.uav[12] utilizationFail 0
scalar OsgEarthNet.uav[12] simulationTime 259200
scalar OsgEarthNet.uav[13] utilizationSecMission 40205.765288591
scalar OsgEarthNet.uav[13] utilizationSecMaintenance 16267.222566183
scalar OsgEarthNet.uav[13] utilizationSecCharge 198435.01114523
scalar OsgEarthNet.uav[13] utilizationSecIdle 4292
scalar OsgEarthNet.uav[13] utilizationEnergyMission 195813.8814888
scalar OsgEarthNet.uav[13] utilizationEnergyMaintenance 75214.499900818
scalar OsgEarthNet.uav[13] utilizationEnergyCharge 267275.76196289
scalar OsgEarthNet.uav[13] utilizationEnergyOverdrawMission 0
scalar OsgEarthNet.uav[13] utilizationEnergyOverdrawMaintenance 0
scalar OsgEarthNet.uav[13] utilizationCountMissions 58
scalar OsgEarthNet.uav[13] utilizationCountManeuversMission 1231
scalar OsgEarthNet.uav[13] utilizationCountManeuversMaintenance 115
scalar OsgEarthNet.uav[13] utilizationCountChargeState 58
scalar OsgEarthNet.uav[13] utilizationCountOverdrawnAfterMission 0
scalar OsgEarthNet.uav[13] utilizationCountIdleState 33
scalar OsgEarthNet.uav[13] utilizationFail 0
scalar OsgEarthNet.uav[13] simulationTime 259200
scalar OsgEarthNet.uav[14] utilizationSecMission 38181.016685121
scalar OsgEarthNet.uav[14] utilizationSecMaintenance 17394.370425363
scalar OsgEarthNet.uav[14] utilizationSecCharge 197370
scalar OsgEarthNet.uav[14] utilizationSecIdle 6254.6118895164
scalar OsgEarthNet.uav[14] utilizationEnergyMission 188166.82993394
scalar OsgEarthNet.uav[14] utilizationEnergyMaintenance 81337.040847778
scalar OsgEarthNet.uav[14] utilizationEnergyCharge 265186.91040039
scalar OsgEarthNet.uav[14] utilizationEnergyOverdrawMission 0
scalar OsgEarthNet.uav[14] utilizationEnergyOverdrawMaintenance 0
scalar OsgEarthNet.uav[14] utilizationCountMissions 58
scalar OsgEarthNet.uav[14] utilizationCountManeuversMission 1184
scalar OsgEarthNet.uav[14] utilizationCountManeuversMaintenance 117
scalar OsgEarthNet.uav[14] utilizationCountChargeState 58
scalar OsgEarthNet.uav[14] utilizationCountOverdrawnAfterMission 0
scalar OsgEarthNet.uav[14] utilizationCountIdleState 30
scalar OsgEarthNet.uav[14] utilizationFail 0
scalar OsgEarthNet.uav[14] simulationTime 259200
scalar OsgEarthNet.uav[15] utilizationSecMission 39646.850444605
scalar OsgEarthNet.uav[15] utilizationSecMaintenance 17344.794557784
scalar OsgEarthNet.uav[15] utilizationSecCharge 196376.90103889
scalar OsgEarthNet.uav[15] utilizationSecIdle 5831.4529587171
scalar OsgEarthNet.uav[15] utilizationEnergyMission 189767.15933228
scalar OsgEarthNet.uav[15] utilizationEnergyMaintenance 79658.430667877
scalar OsgEarthNet.uav[15] utilizationEnergyCharge 264633.43041992
scalar OsgEarthNet.uav[15] utilizationEnergyOverdrawMission 0
scalar OsgEarthNet.uav[15] utilizationEnergyOverdrawMaintenance 0
scalar OsgEarthNet.uav[15] utilizationCountMissions 58
scalar OsgEarthNet.uav[15] utilizationCountManeuversMission 1116
scalar OsgEarthNet.uav[15] utilizationCountManeuversMaintenance 116
scalar OsgEarthNet.uav[15] utilizationCountChargeState 58
scalar OsgEarthNet.uav[15] utilizationCountOverdrawnAfterMission 0
scalar OsgEarthNet.uav[15] utilizationCountIdleState 29
scalar OsgEarthNet.uav[15] utilizationFail 0
scalar OsgEarthNet.uav[15] simulationTime 259200
scalar OsgEarthNet.uav[16] utilizationSecMission 29551.877899025
scalar OsgEarthNet.uav[16] utilizationSecMaintenance 18697.021721493
scalar OsgEarthNet.uav[16] utilizationSecCharge 176466.45495756
scalar OsgEarthNet.uav[16] utilizationSecIdle 34484.644421923
scalar OsgEarthNet.uav[16] utilizationEnergyMission 143004.59934998
scalar OsgEarthNet.uav[16] utilizationEnergyMaintenance 89343.559951782
scalar OsgEarthNet.uav[16] utilizationEnergyCharge 228462.31738281
scalar OsgEarthNet.uav[16] utilizationEnergyOverdrawMission 0
scalar OsgEarthNet.uav[16] utilizationEnergyOverdrawMaintenance 0
scalar OsgEarthNet.uav[16] utilizationCountMissions 51
scalar OsgEarthNet.uav[16] utilizationCountManeuversMission 983
scalar OsgEarthNet.uav[16] utilizationCountManeuversMaintenance 102
scalar OsgEarthNet.uav[16] utilizationCountChargeState 51
scalar OsgEarthNet.uav[16] utilizationCountOverdrawnAfterMission 0
scalar OsgEarthNet.uav[16] utilizationCountIdleState 49
scalar OsgEarthNet.uav[16] utilizationFail 0
scalar OsgEarthNet.uav[16] simulationTime 259200
scalar OsgEarthNet.uav[17] utilizationSecMission 27834.508566104
scalar OsgEarthNet.uav[17] utilizationSecMaintenance 19436.517203626
scalar OsgEarthNet.uav[17] utilizationSecCharge 187170
scalar OsgEarthNet.uav[17] utilizationSecIdle 24758.973230269
scalar OsgEarthNet.uav[17] utilizationEnergyMission 134717.56664276
scalar OsgEarthNet.uav[17] utilizationEnergyMaintenance 92156.079269409
scalar OsgEarthNet.uav[17] utilizationEnergyCharge 228968.59741211
scalar OsgEarthNet.uav[17] utilizationEnergyOverdrawMission 0
scalar OsgEarthNet.uav[17] utilizationEnergyOverdrawMaintenance 0
scalar OsgEarthNet.uav[17] utilizationCountMissions 60
scalar OsgEarthNet.uav[17] utilizationCountManeuversMission 832
scalar OsgEarthNet.uav[17] utilizationCountManeuversMaintenance 120
scalar OsgEarthNet.uav[17] utilizationCountChargeState 60
scalar OsgEarthNet.uav[17] utilizationCountOverdrawnAfterMission 0
scalar OsgEarthNet.uav[17] utilizationCountIdleState 61
scalar OsgEarthNet.uav[17] utilizationFail 0
scalar OsgEarthNet.uav[17] simulationTime 259200
scalar OsgEarthNet.uav[18] utilizationSecMission 39956.955367696
scalar OsgEarthNet.uav[18] utilizationSecMaintenance 16638.435673672
scalar OsgEarthNet.uav[18] utilizationSecCharge 197117.1576946
scalar OsgEarthNet.uav[18] utilizationSecIdle 5487.4502640309
scalar OsgEarthNet.uav[18] utilizationEnergyMission 193071.94529724
scalar OsgEarthNet.uav[18] utilizationEnergyMaintenance 76313.297153473
scalar OsgEarthNet.uav[18] utilizationEnergyCharge 268300.89208984
scalar OsgEarthNet.uav[18] utilizationEnergyOverdrawMission 0
scalar OsgEarthNet.uav[18] utilizationEnergyOverdrawMaintenance 0
scalar OsgEarthNet.uav[18] utilizationCountMissions 58
scalar OsgEarthNet.uav[18] utilizationCountManeuversMission 1132
scalar OsgEarthNet.uav[18] utilizationCountManeuversMaintenance 116
scalar OsgEarthNet.uav[18] utilizationCountChargeState 58
scalar OsgEarthNet.uav[18] utilizationCountOverdrawnAfterMission 0
scalar OsgEarthNet.uav[18] utilizationCountIdleState 27
scalar OsgEarthNet.uav[18] utilizationFail 0
scalar OsgEarthNet.uav[18] simulationTime 259200
scalar OsgEarthNet.uav[19] utilizationSecMission 29031.252746445
scalar OsgEarthNet.uav[19] utilizationSecMaintenance 19115.970561602
scalar OsgEarthNet.uav[19] utilizationSecCharge 177460.76669195
scalar OsgEarthNet.uav[19] utilizationSecIdle 33592.009
scalar OsgEarthNet.uav[19] utilizationEnergyMission 143352.25230789
scalar OsgEarthNet.uav[19] utilizationEnergyMaintenance 90977.030765533
scalar OsgEarthNet.uav[19] utilizationEnergyCharge 230786.1640625
scalar OsgEarthNet.uav[19] utilizationEnergyOverdrawMission 0
scalar OsgEarthNet.uav[19] utilizationEnergyOverdrawMaintenance 0
scalar OsgEarthNet.uav[19] utilizationCountMissions 51
scalar OsgEarthNet.uav[19] utilizationCountManeuversMission 983
scalar OsgEarthNet.uav[19] utilizationCountManeuversMaintenance 102
scalar OsgEarthNet.uav[19] utilizationCountChargeState 51
scalar OsgEarthNet.uav[19] utilizationCountOverdrawnAfterMission 0
scalar OsgEarthNet.uav[19] utilizationCountIdleState 49
scalar OsgEarthNet.uav[19] utilizationFail 0
scalar OsgEarthNet.uav[19] simulationTime 259200
scalar OsgEarthNet.uav[20] utilizationSecMission 28069.603444115
scalar OsgEarthNet.uav[20] utilizationSecMaintenance 19985.749417396
scalar OsgEarthNet.uav[20] utilizationSecCharge 184790.24682567
scalar OsgEarthNet.uav[20] utilizationSecIdle 26354.399312815
scalar OsgEarthNet.uav[20] utilizationEnergyMission 139234.78792572
scalar OsgEarthNet.uav[20] utilizationEnergyMaintenance 95070.35610199
scalar OsgEarthNet.uav[20] utilizationEnergyCharge 231854.74414062
scalar OsgEarthNet.uav[20] utilizationEnergyOverdrawMission 0
scalar OsgEarthNet.uav[20] utilizationEnergyOverdrawMaintenance 0
scalar OsgEarthNet.uav[20] utilizationCountMissions 57
scalar OsgEarthNet.uav[20] utilizationCountManeuversMission 1038
scalar OsgEarthNet.uav[20] utilizationCountManeuversMaintenance 114
scalar OsgEarthNet.uav[20] utilizationCountChargeState 57
scalar OsgEarthNet.uav[20] utilizationCountOverdrawnAfterMission 0
scalar OsgEarthNet.uav[20] utilizationCountIdleState 57
scalar OsgEarthNet.uav[20] utilizationFail 0
scalar OsgEarthNet.uav[20] simulationTime 259200
scalar OsgEarthNet.uav[21] utilizationSecMission 38379.647918529
scalar OsgEarthNet.uav[21] utilizationSecMaintenance 17357.715261902
scalar OsgEarthNet.uav[21] utilizationSecCharge 196337.19273088
scalar OsgEarthNet.uav[21] utilizationSecIdle 7125.443088691
scalar OsgEarthNet.uav[21] utilizationEnergyMission 184163.41662598
scalar OsgEarthNet.uav[21] utilizationEnergyMaintenance 81164.258811951
scalar OsgEarthNet.uav[21] utilizationEnergyCharge 265584.0234375
scalar OsgEarthNet.uav[21] utilizationEnergyOverdrawMission 0
scalar OsgEarthNet.uav[21] utilizationEnergyOverdrawMaintenance 0
scalar OsgEarthNet.uav[21] utilizationCountMissions 58
scalar OsgEarthNet.uav[21] utilizationCountManeuversMission 1232
scalar OsgEarthNet.uav[21] utilizationCountManeuversMaintenance 116
scalar OsgEarthNet.uav[21] utilizationCountChargeState 58
scalar OsgEarthNet.uav[21] utilizationCountOverdrawnAfterMission 0
scalar OsgEarthNet.uav[21] utilizationCountIdleState 29
scalar OsgEarthNet.uav[21] utilizationFail 0
scalar OsgEarthNet.uav[21] simulationTime 259200
scalar OsgEarthNet.uav[22] utilizationSecMission 40799.845759043
scalar OsgEarthNet.uav[22] utilizationSecMaintenance 15797.153533877
scalar OsgEarthNet.uav[22] utilizationSecCharge 197410.99970708
scalar OsgEarthNet.uav[22] utilizationSecIdle 5192
scalar OsgEarthNet.uav[22] utilizationEnergyMission 197001.38862639
scalar OsgEarthNet.uav[22] utilizationEnergyMaintenance 72041.682899475
scalar OsgEarthNet.uav[22] utilizationEnergyCharge 267884.80224609
scalar OsgEarthNet.uav[22] utilizationEnergyOverdrawMission 0
scalar OsgEarthNet.uav[22] utilizationEnergyOverdrawMaintenance 0
scalar OsgEarthNet.uav[22] utilizationCountMissions 58
scalar OsgEarthNet.uav[22] utilizationCountManeuversMission 1173
scalar OsgEarthNet.uav[22] utilizationCountManeuversMaintenance 115
scalar OsgEarthNet.uav[22] utilizationCountChargeState 58
scalar OsgEarthNet.uav[22] utilizationCountOverdrawnAfterMission 0
scalar OsgEarthNet.uav[22] utilizationCountIdleState 29
scalar OsgEarthNet.uav[22] utilizationFail 0
scalar OsgEarthNet.uav[22] simulationTime 259200
scalar OsgEarthNet.uav[23] utilizationSecMission 38931.750935073
scalar OsgEarthNet.uav[23] utilizationSecMaintenance 16167.351918441
scalar OsgEarthNet.uav[23] utilizationSecCharge 195918.75140654
scalar OsgEarthNet.uav[23] utilizationSecIdle 8182.1447399488
scalar OsgEarthNet.uav[23] utilizationEnergyMission 187452.18507767
scalar OsgEarthNet.uav[23] utilizationEnergyMaintenance 74703.046684265
scalar OsgEarthNet.uav[23] utilizationEnergyCharge 262144.01074219
scalar OsgEarthNet.uav[23] utilizationEnergyOverdrawMission 0
scalar OsgEarthNet.uav[23] utilizationEnergyOverdrawMaintenance 0
scalar OsgEarthNet.uav[23] utilizationCountMissions 57
scalar OsgEarthNet.uav[23] utilizationCountManeuversMission 1165
scalar OsgEarthNet.uav[23] utilizationCountManeuversMaintenance 114
scalar OsgEarthNet.uav[23] utilizationCountChargeState 57
scalar OsgEarthNet.uav[23] utilizationCountOverdrawnAfterMission 0
scalar OsgEarthNet.uav[23] utilizationCountIdleState 34
scalar OsgEarthNet.uav[23] utilizationFail 0
scalar OsgEarthNet.uav[23] simulationTime 259200
scalar OsgEarthNet.uav[24] utilizationSecMission 28286.453827827
scalar OsgEarthNet.uav[24] utilizationSecMaintenance 19644.730885132
scalar OsgEarthNet.uav[24] utilizationSecCharge 186150.46068416
scalar OsgEarthNet.uav[24] utilizationSecIdle 25118.353602879
scalar OsgEarthNet.uav[24] utilizationEnergyMission 139320.78071976
scalar OsgEarthNet.uav[24] utilizationEnergyMaintenance 93158.339176178
scalar OsgEarthNet.uav[24] utilizationEnergyCharge 231943.80395508
scalar OsgEarthNet.uav[24] utilizationEnergyOverdrawMission 0
scalar OsgEarthNet.uav[24] utilizationEnergyOverdrawMaintenance 0
scalar OsgEarthNet.uav[24] utilizationCountMissions 58
scalar OsgEarthNet.uav[24] utilizationCountManeuversMission 946
scalar OsgEarthNet.uav[24] utilizationCountManeuversMaintenance 116
scalar OsgEarthNet.uav[24] utilizationCountChargeState 58
scalar OsgEarthNet.uav[24] utilizationCountOverdrawnAfterMission 0
scalar OsgEarthNet.uav[24] utilizationCountIdleState 58
scalar OsgEarthNet.uav[24] utilizationFail 0
scalar OsgEarthNet.uav[24] simulationTime 259200
scalar OsgEarthNet.uav[25] utilizationSecMission 39750.005191877
scalar OsgEarthNet.uav[25] utilizationSecMaintenance 15755.193480828
scalar OsgEarthNet.uav[25] utilizationSecCharge 195595.37498
scalar OsgEarthNet.uav[25] utilizationSecIdle 8099.4253472904
scalar OsgEarthNet.uav[25] utilizationEnergyMission 190747.76581573
scalar OsgEarthNet.uav[25] utilizationEnergyMaintenance 72992.837352753
scalar OsgEarthNet.uav[25] utilizationEnergyCharge 264772.3203125
scalar OsgEarthNet.uav[25] utilizationEnergyOverdrawMission 0
scalar OsgEarthNet.uav[25] utilizationEnergyOverdrawMaintenance 0
scalar OsgEarthNet.uav[25] utilizationCountMissions 57
scalar OsgEarthNet.uav[25] utilizationCountManeuversMission 1183
scalar OsgEarthNet.uav[25] utilizationCountManeuversMaintenance 114
scalar OsgEarthNet.uav[25] utilizationCountChargeState 57
scalar OsgEarthNet.uav[25] utilizationCountOverdrawnAfterMission 0
scalar OsgEarthNet.uav[25] utilizationCountIdleState 32
scalar OsgEarthNet.uav[25] utilizationFail 0
scalar OsgEarthNet.uav[25] simulationTime 259200
scalar OsgEarthNet.uav[26] utilizationSecMission 39038.521220097
scalar OsgEarthNet.uav[26] utilizationSecMaintenance 16828.497009972
scalar OsgEarthNet.uav[26] utilizationSecCharge 194572.03051427
scalar OsgEarthNet.uav[26] utilizationSecIdle 8760.9502556647
scalar OsgEarthNet.uav[26] utilizationEnergyMission 189708.20659256
scalar OsgEarthNet.uav[26] utilizationEnergyMaintenance 77209.803245544
scalar OsgEarthNet.uav[26] utilizationEnergyCharge 263822.6842041
scalar OsgEarthNet.uav[26] utilizationEnergyOverdrawMission 0
scalar OsgEarthNet.uav[26] utilizationEnergyOverdrawMaintenance 0
scalar OsgEarthNet.uav[26] utilizationCountMissions 58
scalar OsgEarthNet.uav[26] utilizationCountManeuversMission 1206
scalar OsgEarthNet.uav[26] utilizationCountManeuversMaintenance 116
scalar OsgEarthNet.uav[26] utilizationCountChargeState 58
scalar OsgEarthNet.uav[26] utilizationCountOverdrawnAfterMission 0
scalar OsgEarthNet.uav[26] utilizationCountIdleState 25
scalar OsgEarthNet.uav[26] utilizationFail 0
scalar OsgEarthNet.uav[26] simulationTime 259200
scalar OsgEarthNet.uav[27] utilizationSecMission 28841.890040639
scalar OsgEarthNet.uav[27] utilizationSecMaintenance 19656.308123728
scalar OsgEarthNet.uav[27] utilizationSecCharge 187149.79583563
scalar OsgEarthNet.uav[27] utilizationSecIdle 23552.005
scalar OsgEarthNet.uav[27] utilizationEnergyMission 142621.74934769
scalar OsgEarthNet.uav[27] utilizationEnergyMaintenance 92797.896903992
scalar OsgEarthNet.uav[27] utilizationEnergyCharge 237480.90869141
scalar OsgEarthNet.uav[27] utilizationEnergyOverdrawMission 0
scalar OsgEarthNet.uav[27] utilizationEnergyOverdrawMaintenance 0
scalar OsgEarthNet.uav[27] utilizationCountMissions 56
scalar OsgEarthNet.uav[27] utilizationCountManeuversMission 1063
scalar OsgEarthNet.uav[27] utilizationCountManeuversMaintenance 112
scalar OsgEarthNet.uav[27] utilizationCountChargeState 56
scalar OsgEarthNet.uav[27] utilizationCountOverdrawnAfterMission 0
scalar OsgEarthNet.uav[27] utilizationCountIdleState 56
scalar OsgEarthNet.uav[27] utilizationFail 0
scalar OsgEarthNet.uav[27] simulationTime 259200
scalar OsgEarthNet.uav[28] utilizationSecMission 40404.821381921
scalar OsgEarthNet.uav[28] utilizationSecMaintenance 16203.117208252
scalar OsgEarthNet.uav[28] utilizationSecCharge 197980
scalar OsgEarthNet.uav[28] utilizationSecIdle 4612.0604098277
scalar OsgEarthNet.uav[28] utilizationEnergyMission 194156.67474365
scalar OsgEarthNet.uav[28] utilizationEnergyMaintenance 74353.963447571
scalar OsgEarthNet.uav[28] utilizationEnergyCharge 268344.640625
scalar OsgEarthNet.uav[28] utilizationEnergyOverdrawMission 0
scalar OsgEarthNet.uav[28] utilizationEnergyOverdrawMaintenance 0
scalar OsgEarthNet.uav[28] utilizationCountMissions 58
scalar OsgEarthNet.uav[28] utilizationCountManeuversMission 1253
scalar OsgEarthNet.uav[28] utilizationCountManeuversMaintenance 116
scalar OsgEarthNet.uav[28] utilizationCountChargeState 58
scalar OsgEarthNet.uav[28] utilizationCountOverdrawnAfterMission 0
scalar OsgEarthNet.uav[28] utilizationCountIdleState 26
scalar OsgEarthNet.uav[28] utilizationFail 0
scalar OsgEarthNet.uav[28] simulationTime 259200
scalar OsgEarthNet.uav[29] utilizationSecMission 28512.708125269
scalar OsgEarthNet.uav[29] utilizationSecMaintenance 20055.288874731
scalar OsgEarthNet.uav[29] utilizationSecCharge 182500
scalar OsgEarthNet.uav[29] utilizationSecIdle 28132.002
scalar OsgEarthNet.uav[29] utilizationEnergyMission 139588.30519676
scalar OsgEarthNet.uav[29] utilizationEnergyMaintenance 95393.350856781
scalar OsgEarthNet.uav[29] utilizationEnergyCharge 235683.96142578
scalar OsgEarthNet.uav[29] utilizationEnergyOverdrawMission 0
scalar OsgEarthNet.uav[29] utilizationEnergyOverdrawMaintenance 0
scalar OsgEarthNet.uav[29] utilizationCountMissions 52
scalar OsgEarthNet.uav[29] utilizationCountManeuversMission 1030
scalar OsgEarthNet.uav[29] utilizationCountManeuversMaintenance 105
scalar OsgEarthNet.uav[29] utilizationCountChargeState 52
scalar OsgEarthNet.uav[29] utilizationCountOverdrawnAfterMission 0
scalar OsgEarthNet.uav[29] utilizationCountIdleState 52
scalar OsgEarthNet.uav[29] utilizationFail 0
scalar OsgEarthNet.uav[29] simulationTime 259200
scalar OsgEarthNet.uav[30] utilizationSecMission 30398.938238857
scalar OsgEarthNet.uav[30] utilizationSecMaintenance 17989.056761143
scalar OsgEarthNet.uav[30] utilizationSecCharge 178670
scalar OsgEarthNet.uav[30] utilizationSecIdle 32142.004
scalar OsgEarthNet.uav[30] utilizationEnergyMission 145719.34815799
scalar OsgEarthNet.uav[30] utilizationEnergyMaintenance 86316.715976715
scalar OsgEarthNet.uav[30] utilizationEnergyCharge 230672.96826172
scalar OsgEarthNet.uav[30] utilizationEnergyOverdrawMission 0
scalar OsgEarthNet.uav[30] utilizationEnergyOverdrawMaintenance 0
scalar OsgEarthNet.uav[30] utilizationCountMissions 51
scalar OsgEarthNet.uav[30] utilizationCountManeuversMission 931
scalar OsgEarthNet.uav[30] utilizationCountManeuversMaintenance 103
scalar OsgEarthNet.uav[30] utilizationCountChargeState 51
scalar OsgEarthNet.uav[30] utilizationCountOverdrawnAfterMission 0
scalar OsgEarthNet.uav[30] utilizationCountIdleState 51
scalar OsgEarthNet.uav[30] utilizationFail 0
scalar OsgEarthNet.uav[30] simulationTime 259200
scalar OsgEarthNet.uav[31] utilizationSecMission 40204.575232004
scalar OsgEarthNet.uav[31] utilizationSecMaintenance 15409.979679305
scalar OsgEarthNet.uav[31] utilizationSecCharge 194020
scalar OsgEarthNet.uav[31] utilizationSecIdle 9565.444088691
scalar OsgEarthNet.uav[31] utilizationEnergyMission 191259.17557526
scalar OsgEarthNet.uav[31] utilizationEnergyMaintenance 71567.179176083
scalar OsgEarthNet.uav[31] utilizationEnergyCharge 260782.87207031
scalar OsgEarthNet.uav[31] utilizationEnergyOverdrawMission 0
scalar OsgEarthNet.uav[31] utilizationEnergyOverdrawMaintenance 0
scalar OsgEarthNet.uav[31] utilizationCountMissions 56
scalar OsgEarthNet.uav[31] utilizationCountManeuversMission 969
scalar OsgEarthNet.uav[31] utilizationCountManeuversMaintenance 113
scalar OsgEarthNet.uav[31] utilizationCountChargeState 56
scalar OsgEarthNet.uav[31] utilizationCountOverdrawnAfterMission 0
scalar OsgEarthNet.uav[31] utilizationCountIdleState 36
scalar OsgEarthNet.uav[31] utilizationFail 0
scalar OsgEarthNet.uav[31] simulationTime 259200
scalar OsgEarthNet.uav[32] utilizationSecMission 39493.358204419
scalar OsgEarthNet.uav[32] utilizationSecMaintenance 17154.638795581
scalar OsgEarthNet.uav[32] utilizationSecCharge 197130
scalar OsgEarthNet.uav[32] utilizationSecIdle 5422.002
scalar OsgEarthNet.uav[32] utilizationEnergyMission 191202.92275238
scalar OsgEarthNet.uav[32] utilizationEnergyMaintenance 79883.270163986
scalar OsgEarthNet.uav[32] utilizationEnergyCharge 266588.24267578
scalar OsgEarthNet.uav[32] utilizationEnergyOverdrawMission 0
scalar OsgEarthNet.uav[32] utilizationEnergyOverdrawMaintenance 0
scalar OsgEarthNet.uav[32] utilizationCountMissions 59
scalar OsgEarthNet.uav[32] utilizationCountManeuversMission 1282
scalar OsgEarthNet.uav[32] utilizationCountManeuversMaintenance 118
scalar OsgEarthNet.uav[32] utilizationCountChargeState 58
scalar OsgEarthNet.uav[32] utilizationCountOverdrawnAfterMission 0
scalar OsgEarthNet.uav[32] utilizationCountIdleState 26
scalar OsgEarthNet.uav[32] utilizationFail 0
scalar OsgEarthNet.uav[32] simulationTime 259200
scalar OsgEarthNet.uav[33] utilizationSecMission 30002.135937776
scalar OsgEarthNet.uav[33] utilizationSecMaintenance 18839.228162135
scalar OsgEarthNet.uav[33] utilizationSecCharge 182410
scalar OsgEarthNet.uav[33] utilizationSecIdle 27948.634900089
scalar OsgEarthNet.uav[33] utilizationEnergyMission 144569.56827927
scalar OsgEarthNet.uav[33] utilizationEnergyMaintenance 89055.701583862
scalar OsgEarthNet.uav[33] utilizationEnergyCharge 235475.12011719
scalar OsgEarthNet.uav[33] utilizationEnergyOverdrawMission 0
scalar OsgEarthNet.uav[33] utilizationEnergyOverdrawMaintenance 0
scalar OsgEarthNet.uav[33] utilizationCountMissions 52
scalar OsgEarthNet.uav[33] utilizationCountManeuversMission 1001
scalar OsgEarthNet.uav[33] utilizationCountManeuversMaintenance 104
scalar OsgEarthNet.uav[33] utilizationCountChargeState 52
scalar OsgEarthNet.uav[33] utilizationCountOverdrawnAfterMission 0
scalar OsgEarthNet.uav[33] utilizationCountIdleState 52
scalar OsgEarthNet.uav[33] utilizationFail 0
scalar OsgEarthNet.uav[33] simulationTime 259200
scalar OsgEarthNet.uav[34] utilizationSecMission 34636.78413749
scalar OsgEarthNet.uav[34] utilizationSecMaintenance 17507.053532073
scalar OsgEarthNet.uav[34] utilizationSecCharge 189312.49315245
scalar OsgEarthNet.uav[34] utilizationSecIdle 17743.668177988
scalar OsgEarthNet.uav[34] utilizationEnergyMission 166018.23728943
scalar OsgEarthNet.uav[34] utilizationEnergyMaintenance 80990.034244537
scalar OsgEarthNet.uav[34] utilizationEnergyCharge 242939.0189209
scalar OsgEarthNet.uav[34] utilizationEnergyOverdrawMission 0
scalar OsgEarthNet.uav[34] utilizationEnergyOverdrawMaintenance 0
scalar OsgEarthNet.uav[34] utilizationCountMissions 58
scalar OsgEarthNet.uav[34] utilizationCountManeuversMission 899
scalar OsgEarthNet.uav[34] utilizationCountManeuversMaintenance 116
scalar OsgEarthNet.uav[34] utilizationCountChargeState 58
scalar OsgEarthNet.uav[34] utilizationCountOverdrawnAfterMission 0
scalar OsgEarthNet.uav[34] utilizationCountIdleState 51
scalar OsgEarthNet.uav[34] utilizationFail 0
scalar OsgEarthNet.uav[34] simulationTime 259200
scalar OsgEarthNet.uav[35] utilizationSecMission 39157.45726496
scalar OsgEarthNet.uav[35] utilizationSecMaintenance 17400.54173504
scalar OsgEarthNet.uav[35] utilizationSecCharge 198600
scalar OsgEarthNet.uav[35] utilizationSecIdle 4042
scalar OsgEarthNet.uav[35] utilizationEnergyMission 189113.79798918
scalar OsgEarthNet.uav[35] utilizationEnergyMaintenance 80253.987358093
scalar OsgEarthNet.uav[35] utilizationEnergyCharge 267716.21484375
scalar OsgEarthNet.uav[35] utilizationEnergyOverdrawMission 0
scalar OsgEarthNet.uav[35] utilizationEnergyOverdrawMaintenance 0
scalar OsgEarthNet.uav[35] utilizationCountMissions 58
scalar OsgEarthNet.uav[35] utilizationCountManeuversMission 1163
scalar OsgEarthNet.uav[35] utilizationCountManeuversMaintenance 117
scalar OsgEarthNet.uav[35] utilizationCountChargeState 58
scalar OsgEarthNet.uav[35] utilizationCountOverdrawnAfterMission 0
scalar OsgEarthNet.uav[35] utilizationCountIdleState 28
scalar OsgEarthNet.uav[35] utilizationFail 0
scalar OsgEarthNet.uav[35] simulationTime 259200
scalar OsgEarthNet.uav[36] utilizationSecMission 30123.386242936
scalar OsgEarthNet.uav[36] utilizationSecMaintenance 18407.509333673
scalar OsgEarthNet.uav[36] utilizationSecCharge 177607.09342339
scalar OsgEarthNet.uav[36] utilizationSecIdle 33062.01
scalar OsgEarthNet.uav[36] utilizationEnergyMission 146421.11953735
scalar OsgEarthNet.uav[36] utilizationEnergyMaintenance 87031.099155426
scalar OsgEarthNet.uav[36] utilizationEnergyCharge 230362.22216797
scalar OsgEarthNet.uav[36] utilizationEnergyOverdrawMission 0
scalar OsgEarthNet.uav[36] utilizationEnergyOverdrawMaintenance 0
scalar OsgEarthNet.uav[36] utilizationCountMissions 51
scalar OsgEarthNet.uav[36] utilizationCountManeuversMission 955
scalar OsgEarthNet.uav[36] utilizationCountManeuversMaintenance 102
scalar OsgEarthNet.uav[36] utilizationCountChargeState 51
scalar OsgEarthNet.uav[36] utilizationCountOverdrawnAfterMission 0
scalar OsgEarthNet.uav[36] utilizationCountIdleState 49
scalar OsgEarthNet.uav[36] utilizationFail 0
scalar OsgEarthNet.uav[36] simulationTime 259200
scalar OsgEarthNet.uav[37] utilizationSecMission 29421.39477013
scalar OsgEarthNet.uav[37] utilizationSecMaintenance 19762.192261868
scalar OsgEarthNet.uav[37] utilizationSecCharge 185354.407968
scalar OsgEarthNet.uav[37] utilizationSecIdle 24662.004
scalar OsgEarthNet.uav[37] utilizationEnergyMission 143835.99269867
scalar OsgEarthNet.uav[37] utilizationEnergyMaintenance 93448.347343445
scalar OsgEarthNet.uav[37] utilizationEnergyCharge 231278.23046875
scalar OsgEarthNet.uav[37] utilizationEnergyOverdrawMission 0
scalar OsgEarthNet.uav[37] utilizationEnergyOverdrawMaintenance 0
scalar OsgEarthNet.uav[37] utilizationCountMissions 58
scalar OsgEarthNet.uav[37] utilizationCountManeuversMission 1017
scalar OsgEarthNet.uav[37] utilizationCountManeuversMaintenance 116
scalar OsgEarthNet.uav[37] utilizationCountChargeState 58
scalar OsgEarthNet.uav[37] utilizationCountOverdrawnAfterMission 0
scalar OsgEarthNet.uav[37] utilizationCountIdleState 58
scalar OsgEarthNet.uav[37] utilizationFail 0
scalar OsgEarthNet.uav[37] simulationTime 259200
scalar OsgEarthNet.uav[38] utilizationSecMission 39382.063016447
scalar OsgEarthNet.uav[38] utilizationSecMaintenance 17001.585762731
scalar OsgEarthNet.uav[38] utilizationSecCharge 196830
scalar OsgEarthNet.uav[38] utilizationSecIdle 5986.3502208215
scalar OsgEarthNet.uav[38] utilizationEnergyMission 189006.65580368
scalar OsgEarthNet.uav[38] utilizationEnergyMaintenance 78561.447875012
scalar OsgEarthNet.uav[38] utilizationEnergyCharge 264262.89257812
scalar OsgEarthNet.uav[38] utilizationEnergyOverdrawMission 0
scalar OsgEarthNet.uav[38] utilizationEnergyOverdrawMaintenance 0
scalar OsgEarthNet.uav[38] utilizationCountMissions 57
scalar OsgEarthNet.uav[38] utilizationCountManeuversMission 1104
scalar OsgEarthNet.uav[38] utilizationCountManeuversMaintenance 115
scalar OsgEarthNet.uav[38] utilizationCountChargeState 57
scalar OsgEarthNet.uav[38] utilizationCountOverdrawnAfterMission 0
scalar OsgEarthNet.uav[38] utilizationCountIdleState 29
scalar OsgEarthNet.uav[38] utilizationFail 0
scalar OsgEarthNet.uav[38] simulationTime 259200
scalar OsgEarthNet.uav[39] utilizationSecMission 31957.504272248
scalar OsgEarthNet.uav[39] utilizationSecMaintenance 16922.984682345
scalar OsgEarthNet.uav[39] utilizationSecCharge 176627.50404541
scalar OsgEarthNet.uav[39] utilizationSecIdle 33692.006
scalar OsgEarthNet.uav[39] utilizationEnergyMission 153252.81158066
scalar OsgEarthNet.uav[39] utilizationEnergyMaintenance 79603.406528473
scalar OsgEarthNet.uav[39] utilizationEnergyCharge 229098.5267334
scalar OsgEarthNet.uav[39] utilizationEnergyOverdrawMission 0
scalar OsgEarthNet.uav[39] utilizationEnergyOverdrawMaintenance 0
scalar OsgEarthNet.uav[39] utilizationCountMissions 51
scalar OsgEarthNet.uav[39] utilizationCountManeuversMission 869
scalar OsgEarthNet.uav[39] utilizationCountManeuversMaintenance 102
scalar OsgEarthNet.uav[39] utilizationCountChargeState 51
scalar OsgEarthNet.uav[39] utilizationCountOverdrawnAfterMission 0
scalar OsgEarthNet.uav[39] utilizationCountIdleState 49
scalar OsgEarthNet.uav[39] utilizationFail 0
scalar OsgEarthNet.uav[39] simulationTime 259200
scalar OsgEarthNet.uav[40] utilizationSecMission 28855.988862855
scalar OsgEarthNet.uav[40] utilizationSecMaintenance 20697.396218814
scalar OsgEarthNet.uav[40] utilizationSecCharge 184724.61391833
scalar OsgEarthNet.uav[40] utilizationSecIdle 24922
scalar OsgEarthNet.uav[40] utilizationEnergyMission 142099.36279297
scalar OsgEarthNet.uav[40] utilizationEnergyMaintenance 98251.704555511
scalar OsgEarthNet.uav[40] utilizationEnergyCharge 239800.25683594
scalar OsgEarthNet.uav[40] utilizationEnergyOverdrawMission 0
scalar OsgEarthNet.uav[40] utilizationEnergyOverdrawMaintenance 0
scalar OsgEarthNet.uav[40] utilizationCountMissions 53
scalar OsgEarthNet.uav[40] utilizationCountManeuversMission 1071
scalar OsgEarthNet.uav[40] utilizationCountManeuversMaintenance 105
scalar OsgEarthNet.uav[40] utilizationCountChargeState 53
scalar OsgEarthNet.uav[40] utilizationCountOverdrawnAfterMission 0
scalar OsgEarthNet.uav[40] utilizationCountIdleState 52
scalar OsgEarthNet.uav[40] utilizationFail 0
scalar OsgEarthNet.uav[40] simulationTime 259200
scalar OsgEarthNet.uav[41] utilizationSecMission 28757.744868254
scalar OsgEarthNet.uav[41] utilizationSecMaintenance 19552.244113259
scalar OsgEarthNet.uav[41] utilizationSecCharge 185655.30431945
scalar OsgEarthNet.uav[41] utilizationSecIdle 25234.705699036
scalar OsgEarthNet.uav[41] utilizationEnergyMission 140847.7474556
scalar OsgEarthNet.uav[41] utilizationEnergyMaintenance 93007.07440567
scalar OsgEarthNet.uav[41] utilizationEnergyCharge 231742.30517578
scalar OsgEarthNet.uav[41] utilizationEnergyOverdrawMission 0
scalar OsgEarthNet.uav[41] utilizationEnergyOverdrawMaintenance 0
scalar OsgEarthNet.uav[41] utilizationCountMissions 58
scalar OsgEarthNet.uav[41] utilizationCountManeuversMission 954
scalar OsgEarthNet.uav[41] utilizationCountManeuversMaintenance 116
scalar OsgEarthNet.uav[41] utilizationCountChargeState 58
scalar OsgEarthNet.uav[41] utilizationCountOverdrawnAfterMission 0
scalar OsgEarthNet.uav[41] utilizationCountIdleState 58
scalar OsgEarthNet.uav[41] utilizationFail 0
scalar OsgEarthNet.uav[41] simulationTime 259200
scalar OsgEarthNet.uav[42] utilizationSecMission 37749.910604058
scalar OsgEarthNet.uav[42] utilizationSecMaintenance 17461.859856629
scalar OsgEarthNet.uav[42] utilizationSecCharge 196196.22453931
scalar OsgEarthNet.uav[42] utilizationSecIdle 7792.004
scalar OsgEarthNet.uav[42] utilizationEnergyMission 183278.9627037
scalar OsgEarthNet.uav[42] utilizationEnergyMaintenance 80229.859947205
scalar OsgEarthNet.uav[42] utilizationEnergyCharge 264662.74267578
scalar OsgEarthNet.uav[42] utilizationEnergyOverdrawMission 0
scalar OsgEarthNet.uav[42] utilizationEnergyOverdrawMaintenance 0
scalar OsgEarthNet.uav[42] utilizationCountMissions 58
scalar OsgEarthNet.uav[42] utilizationCountManeuversMission 1268
scalar OsgEarthNet.uav[42] utilizationCountManeuversMaintenance 116
scalar OsgEarthNet.uav[42] utilizationCountChargeState 58
scalar OsgEarthNet.uav[42] utilizationCountOverdrawnAfterMission 0
scalar OsgEarthNet.uav[42] utilizationCountIdleState 32
scalar OsgEarthNet.uav[42] utilizationFail 0
scalar OsgEarthNet.uav[42] simulationTime 259200
scalar OsgEarthNet.uav[43] utilizationSecMission 28669.486363783
scalar OsgEarthNet.uav[43] utilizationSecMaintenance 19886.006676029
scalar OsgEarthNet.uav[43] utilizationSecCharge 180141.73999485
scalar OsgEarthNet.uav[43] utilizationSecIdle 30502.765965339
scalar OsgEarthNet.uav[43] utilizationEnergyMission 140050.47174454
scalar OsgEarthNet.uav[43] utilizationEnergyMaintenance 95253.615169525
scalar OsgEarthNet.uav[43] utilizationEnergyCharge 233019.96337891
scalar OsgEarthNet.uav[43] utilizationEnergyOverdrawMission 0
scalar OsgEarthNet.uav[43] utilizationEnergyOverdrawMaintenance 0
scalar OsgEarthNet.uav[43] utilizationCountMissions 52
scalar OsgEarthNet.uav[43] utilizationCountManeuversMission 1026
scalar OsgEarthNet.uav[43] utilizationCountManeuversMaintenance 104
scalar OsgEarthNet.uav[43] utilizationCountChargeState 52
scalar OsgEarthNet.uav[43] utilizationCountOverdrawnAfterMission 0
scalar OsgEarthNet.uav[43] utilizationCountIdleState 50
scalar OsgEarthNet.uav[43] utilizationFail 0
scalar OsgEarthNet.uav[43] simulationTime 259200
scalar OsgEarthNet.uav[44] utilizationSecMission 28069.314973469
scalar OsgEarthNet.uav[44] utilizationSecMaintenance 19976.471741612
scalar OsgEarthNet.uav[44] utilizationSecCharge 185402.21028492
scalar OsgEarthNet.uav[44] utilizationSecIdle 25752.002
scalar OsgEarthNet.uav[44] utilizationEnergyMission 137462.15042496
scalar OsgEarthNet.uav[44] utilizationEnergyMaintenance 95011.777999878
scalar OsgEarthNet.uav[44] utilizationEnergyCharge 227668.59521484
scalar OsgEarthNet.uav[44] utilizationEnergyOverdrawMission 0
scalar OsgEarthNet.uav[44] utilizationEnergyOverdrawMaintenance 0
scalar OsgEarthNet.uav[44] utilizationCountMissions 60
scalar OsgEarthNet.uav[44] utilizationCountManeuversMission 940
scalar OsgEarthNet.uav[44] utilizationCountManeuversMaintenance 120
scalar OsgEarthNet.uav[44] utilizationCountChargeState 60
scalar OsgEarthNet.uav[44] utilizationCountOverdrawnAfterMission 0
scalar OsgEarthNet.uav[44] utilizationCountIdleState 60
scalar OsgEarthNet.uav[44] utilizationFail 0
scalar OsgEarthNet.uav[44] simulationTime 259200
scalar OsgEarthNet.uav[45] utilizationSecMission 39181.707887797
scalar OsgEarthNet.uav[45] utilizationSecMaintenance 16959.116001793
scalar OsgEarthNet.uav[45] utilizationSecCharge 197360
scalar OsgEarthNet.uav[45] utilizationSecIdle 5699.1751104107
scalar OsgEarthNet.uav[45] utilizationEnergyMission 188111.61948259
scalar OsgEarthNet.uav[45] utilizationEnergyMaintenance 77778.009117126
scalar OsgEarthNet.uav[45] utilizationEnergyCharge 267863.25488281
scalar OsgEarthNet.uav[45] utilizationEnergyOverdrawMission 0
scalar OsgEarthNet.uav[45] utilizationEnergyOverdrawMaintenance 0
scalar OsgEarthNet.uav[45] utilizationCountMissions 58
scalar OsgEarthNet.uav[45] utilizationCountManeuversMission 1187
scalar OsgEarthNet.uav[45] utilizationCountManeuversMaintenance 117
scalar OsgEarthNet.uav[45] utilizationCountChargeState 58
scalar OsgEarthNet.uav[45] utilizationCountOverdrawnAfterMission 0
scalar OsgEarthNet.uav[45] utilizationCountIdleState 29
scalar OsgEarthNet.uav[45] utilizationFail 0
scalar OsgEarthNet.uav[45] simulationTime 259200
scalar OsgEarthNet.uav[46] utilizationSecMission 30505.838803931
scalar OsgEarthNet.uav[46] utilizationSecMaintenance 17370.626279749
scalar OsgEarthNet.uav[46] utilizationSecCharge 178201.39410318
scalar OsgEarthNet.uav[46] utilizationSecIdle 33122.139813144
scalar OsgEarthNet.uav[46] utilizationEnergyMission 147688.65402985
scalar OsgEarthNet.uav[46] utilizationEnergyMaintenance 81382.778469086
scalar OsgEarthNet.uav[46] utilizationEnergyCharge 228716.00878906
scalar OsgEarthNet.uav[46] utilizationEnergyOverdrawMission 0
scalar OsgEarthNet.uav[46] utilizationEnergyOverdrawMaintenance 0
scalar OsgEarthNet.uav[46] utilizationCountMissions 52
scalar OsgEarthNet.uav[46] utilizationCountManeuversMission 877
scalar OsgEarthNet.uav[46] utilizationCountManeuversMaintenance 104
scalar OsgEarthNet.uav[46] utilizationCountChargeState 52
scalar OsgEarthNet.uav[46] utilizationCountOverdrawnAfterMission 0
scalar OsgEarthNet.uav[46] utilizationCountIdleState 52
scalar OsgEarthNet.uav[46] utilizationFail 0
scalar OsgEarthNet.uav[46] simulationTime 259200
scalar OsgEarthNet.uav[47] utilizationSecMission 29516.179639574
scalar OsgEarthNet.uav[47] utilizationSecMaintenance 18812.743314182
scalar OsgEarthNet.uav[47] utilizationSecCharge 186669.07004624
scalar OsgEarthNet.uav[47] utilizationSecIdle 24202.006
scalar OsgEarthNet.uav[47] utilizationEnergyMission 143322.75356674
scalar OsgEarthNet.uav[47] utilizationEnergyMaintenance 89206.369438171
scalar OsgEarthNet.uav[47] utilizationEnergyCharge 232928.48486328
scalar OsgEarthNet.uav[47] utilizationEnergyOverdrawMission 0
scalar OsgEarthNet.uav[47] utilizationEnergyOverdrawMaintenance 0
scalar OsgEarthNet.uav[47] utilizationCountMissions 58
scalar OsgEarthNet.uav[47] utilizationCountManeuversMission 939
scalar OsgEarthNet.uav[47] utilizationCountManeuversMaintenance 116
scalar OsgEarthNet.uav[47] utilizationCountChargeState 58
scalar OsgEarthNet.uav[47] utilizationCountOverdrawnAfterMission 0
scalar OsgEarthNet.uav[47] utilizationCountIdleState 56
scalar OsgEarthNet.uav[47] utilizationFail 0
scalar OsgEarthNet.uav[47] simulationTime 259200
scalar OsgEarthNet.uav[48] utilizationSecMission 38775.703774137
scalar OsgEarthNet.uav[48] utilizationSecMaintenance 17285.627668007
scalar OsgEarthNet.uav[48] utilizationSecCharge 195779.81939586
scalar OsgEarthNet.uav[48] utilizationSecIdle 7358.8481619971
scalar OsgEarthNet.uav[48] utilizationEnergyMission 190940.72426987
scalar OsgEarthNet.uav[48] utilizationEnergyMaintenance 80067.879337311
scalar OsgEarthNet.uav[48] utilizationEnergyCharge 265156.35009766
scalar OsgEarthNet.uav[48] utilizationEnergyOverdrawMission 0
scalar OsgEarthNet.uav[48] utilizationEnergyOverdrawMaintenance 0
scalar OsgEarthNet.uav[48] utilizationCountMissions 58
scalar OsgEarthNet.uav[48] utilizationCountManeuversMission 1257
scalar OsgEarthNet.uav[48] utilizationCountManeuversMaintenance 116
scalar OsgEarthNet.uav[48] utilizationCountChargeState 58
scalar OsgEarthNet.uav[48] utilizationCountOverdrawnAfterMission 0
scalar OsgEarthNet.uav[48] utilizationCountIdleState 28
scalar OsgEarthNet.uav[48] utilizationFail 0
scalar OsgEarthNet.uav[48] simulationTime 259200
scalar OsgEarthNet.uav[49] utilizationSecMission 38507.444069862
scalar OsgEarthNet.uav[49] utilizationSecMaintenance 17058.73664531
scalar OsgEarthNet.uav[49] utilizationSecCharge 196970
scalar OsgEarthNet.uav[49] utilizationSecIdle 6663.818284828
scalar OsgEarthNet.uav[49] utilizationEnergyMission 185035.73812866
scalar OsgEarthNet.uav[49] utilizationEnergyMaintenance 80343.483512878
scalar OsgEarthNet.uav[49] utilizationEnergyCharge 266757.10644531
scalar OsgEarthNet.uav[49] utilizationEnergyOverdrawMission 0
scalar OsgEarthNet.uav[49] utilizationEnergyOverdrawMaintenance 0
scalar OsgEarthNet.uav[49] utilizationCountMissions 58
scalar OsgEarthNet.uav[49] utilizationCountManeuversMission 1258
scalar OsgEarthNet.uav[49] utilizationCountManeuversMaintenance 116
scalar OsgEarthNet.uav[49] utilizationCountChargeState 58
scalar OsgEarthNet.uav[49] utilizationCountOverdrawnAfterMission 0
scalar OsgEarthNet.uav[49] utilizationCountIdleState 28
scalar OsgEarthNet.uav[49] utilizationFail 0
scalar OsgEarthNet.uav[49] simulationTime 259200
scalar OsgEarthNet.uav[50] utilizationSecMission 39885.238947629
scalar OsgEarthNet.uav[50] utilizationSecMaintenance 15951.89493275
scalar OsgEarthNet.uav[50] utilizationSecCharge 195161.91586396
scalar OsgEarthNet.uav[50] utilizationSecIdle 8200.9492556647
scalar OsgEarthNet.uav[50] utilizationEnergyMission 190855.62641144
scalar OsgEarthNet.uav[50] utilizationEnergyMaintenance 74176.039409637
scalar OsgEarthNet.uav[50] utilizationEnergyCharge 263254.93457031
scalar OsgEarthNet.uav[50] utilizationEnergyOverdrawMission 0
scalar OsgEarthNet.uav[50] utilizationEnergyOverdrawMaintenance 0
scalar OsgEarthNet.uav[50] utilizationCountMissions 57
scalar OsgEarthNet.uav[50] utilizationCountManeuversMission 1046
scalar OsgEarthNet.uav[50] utilizationCountManeuversMaintenance 114
scalar OsgEarthNet.uav[50] utilizationCountChargeState 57
scalar OsgEarthNet.uav[50] utilizationCountOverdrawnAfterMission 0
scalar OsgEarthNet.uav[50] utilizationCountIdleState 32
scalar OsgEarthNet.uav[50] utilizationFail 0
scalar OsgEarthNet.uav[50] simulationTime 259200
scalar OsgEarthNet.uav[51] utilizationSecMission 28993.046546128
scalar OsgEarthNet.uav[51] utilizationSecMaintenance 20362.094529878
scalar OsgEarthNet.uav[51] utilizationSecCharge 188172.85792399
scalar OsgEarthNet.uav[51] utilizationSecIdle 21672
scalar OsgEarthNet.uav[51] utilizationEnergyMission 144290.15245056
scalar OsgEarthNet.uav[51] utilizationEnergyMaintenance 96520.505882263
scalar OsgEarthNet.uav[51] utilizationEnergyCharge 237961.89697266
scalar OsgEarthNet.uav[51] utilizationEnergyOverdrawMission 0
scalar OsgEarthNet.uav[51] utilizationEnergyOverdrawMaintenance 0
scalar OsgEarthNet.uav[51] utilizationCountMissions 57
scalar OsgEarthNet.uav[51] utilizationCountManeuversMission 1137
scalar OsgEarthNet.uav[51] utilizationCountManeuversMaintenance 114
scalar OsgEarthNet.uav[51] utilizationCountChargeState 57
scalar OsgEarthNet.uav[51] utilizationCountOverdrawnAfterMission 0
scalar OsgEarthNet.uav[51] utilizationCountIdleState 57
scalar OsgEarthNet.uav[51] utilizationFail 0
scalar OsgEarthNet.uav[51] simulationTime 259200
scalar OsgEarthNet.uav[52] utilizationSecMission 39076.265257908
scalar OsgEarthNet.uav[52] utilizationSecMaintenance 17750.677347036
scalar OsgEarthNet.uav[52] utilizationSecCharge 198251.05639506
scalar OsgEarthNet.uav[52] utilizationSecIdle 4122
scalar OsgEarthNet.uav[52] utilizationEnergyMission 187788.07498932
scalar OsgEarthNet.uav[52] utilizationEnergyMaintenance 82109.342685699
scalar OsgEarthNet.uav[52] utilizationEnergyCharge 268151.36450195
scalar OsgEarthNet.uav[52] utilizationEnergyOverdrawMission 0
scalar OsgEarthNet.uav[52] utilizationEnergyOverdrawMaintenance 0
scalar OsgEarthNet.uav[52] utilizationCountMissions 59
scalar OsgEarthNet.uav[52] utilizationCountManeuversMission 1200
scalar OsgEarthNet.uav[52] utilizationCountManeuversMaintenance 118
scalar OsgEarthNet.uav[52] utilizationCountChargeState 59
scalar OsgEarthNet.uav[52] utilizationCountOverdrawnAfterMission 0
scalar OsgEarthNet.uav[52] utilizationCountIdleState 28
scalar OsgEarthNet.uav[52] utilizationFail 0
scalar OsgEarthNet.uav[52] simulationTime 259200
scalar OsgEarthNet.uav[53] utilizationSecMission 30132.393976526
scalar OsgEarthNet.uav[53] utilizationSecMaintenance 19105.598023474
scalar OsgEarthNet.uav[53] utilizationSecCharge 178320
scalar OsgEarthNet.uav[53] utilizationSecIdle 31642.007
scalar OsgEarthNet.uav[53] utilizationEnergyMission 147172.97304916
scalar OsgEarthNet.uav[53] utilizationEnergyMaintenance 90808.945548315
scalar OsgEarthNet.uav[53] utilizationEnergyCharge 229797.21728516
scalar OsgEarthNet.uav[53] utilizationEnergyOverdrawMission 0
scalar OsgEarthNet.uav[53] utilizationEnergyOverdrawMaintenance 0
scalar OsgEarthNet.uav[53] utilizationCountMissions 52
scalar OsgEarthNet.uav[53] utilizationCountManeuversMission 1003
scalar OsgEarthNet.uav[53] utilizationCountManeuversMaintenance 104
scalar OsgEarthNet.uav[53] utilizationCountChargeState 51
scalar OsgEarthNet.uav[53] utilizationCountOverdrawnAfterMission 0
scalar OsgEarthNet.uav[53] utilizationCountIdleState 51
scalar OsgEarthNet.uav[53] utilizationFail 0
scalar OsgEarthNet.uav[53] simulationTime 259200
scalar OsgEarthNet.uav[54] utilizationSecMission 28635.328548697
scalar OsgEarthNet.uav[54] utilizationSecMaintenance 19487.354369472
scalar OsgEarthNet.uav[54] utilizationSecCharge 185390
scalar OsgEarthNet.uav[54] utilizationSecIdle 25687.316081831
scalar OsgEarthNet.uav[54] utilizationEnergyMission 139563.78242112
scalar OsgEarthNet.uav[54] utilizationEnergyMaintenance 92796.906131744
scalar OsgEarthNet.uav[54] utilizationEnergyCharge 229593.42797852
scalar OsgEarthNet.uav[54] utilizationEnergyOverdrawMission 0
scalar OsgEarthNet.uav[54] utilizationEnergyOverdrawMaintenance 0
scalar OsgEarthNet.uav[54] utilizationCountMissions 58
scalar OsgEarthNet.uav[54] utilizationCountManeuversMission 930
scalar OsgEarthNet.uav[54] utilizationCountManeuversMaintenance 117
scalar OsgEarthNet.uav[54] utilizationCountChargeState 58
scalar OsgEarthNet.uav[54] utilizationCountOverdrawnAfterMission 0
scalar OsgEarthNet.uav[54] utilizationCountIdleState 59
scalar OsgEarthNet.uav[54] utilizationFail 0
scalar OsgEarthNet.uav[54] simulationTime 259200
scalar OsgEarthNet.uav[55] utilizationSecMission 39734.158817616
scalar OsgEarthNet.uav[55] utilizationSecMaintenance 16624.551650904
scalar OsgEarthNet.uav[55] utilizationSecCharge 195144.58316908
scalar OsgEarthNet.uav[55] utilizationSecIdle 7696.7053624037
scalar OsgEarthNet.uav[55] utilizationEnergyMission 192837.06877899
scalar OsgEarthNet.uav[55] utilizationEnergyMaintenance 75735.457832336
scalar OsgEarthNet.uav[55] utilizationEnergyCharge 262305.03619385
scalar OsgEarthNet.uav[55] utilizationEnergyOverdrawMission 0
scalar OsgEarthNet.uav[55] utilizationEnergyOverdrawMaintenance 0
scalar OsgEarthNet.uav[55] utilizationCountMissions 58
scalar OsgEarthNet.uav[55] utilizationCountManeuversMission 1179
scalar OsgEarthNet.uav[55] utilizationCountManeuversMaintenance 116
scalar OsgEarthNet.uav[55] utilizationCountChargeState 58
scalar OsgEarthNet.uav[55] utilizationCountOverdrawnAfterMission 0
scalar OsgEarthNet.uav[55] utilizationCountIdleState 33
scalar OsgEarthNet.uav[55] utilizationFail 0
scalar OsgEarthNet.uav[55] simulationTime 259200
scalar OsgEarthNet.uav[56] utilizationSecMission 38243.460703194
scalar OsgEarthNet.uav[56] utilizationSecMaintenance 17616.847290392
scalar OsgEarthNet.uav[56] utilizationSecCharge 194301.60628884
scalar OsgEarthNet.uav[56] utilizationSecIdle 9038.0847175692
scalar OsgEarthNet.uav[56] utilizationEnergyMission 185545.34732056
scalar OsgEarthNet.uav[56] utilizationEnergyMaintenance 82206.586978912
scalar OsgEarthNet.uav[56] utilizationEnergyCharge 263938.20532227
scalar OsgEarthNet.uav[56] utilizationEnergyOverdrawMission 0
scalar OsgEarthNet.uav[56] utilizationEnergyOverdrawMaintenance 0
scalar OsgEarthNet.uav[56] utilizationCountMissions 58
scalar OsgEarthNet.uav[56] utilizationCountManeuversMission 1239
scalar OsgEarthNet.uav[56] utilizationCountManeuversMaintenance 116
scalar OsgEarthNet.uav[56] utilizationCountChargeState 58
scalar OsgEarthNet.uav[56] utilizationCountOverdrawnAfterMission 0
scalar OsgEarthNet.uav[56] utilizationCountIdleState 24
scalar OsgEarthNet.uav[56] utilizationFail 0
scalar OsgEarthNet.uav[56] simulationTime 259200
scalar OsgEarthNet.uav[57] utilizationSecMission 39905.974491149
scalar OsgEarthNet.uav[57] utilizationSecMaintenance 16462.5921302
scalar OsgEarthNet.uav[57] utilizationSecCharge 196165.24424972
scalar OsgEarthNet.uav[57] utilizationSecIdle 6666.1881289308
scalar OsgEarthNet.uav[57] utilizationEnergyMission 190904.58583832
scalar OsgEarthNet.uav[57] utilizationEnergyMaintenance 76198.015312195
scalar OsgEarthNet.uav[57] utilizationEnergyCharge 264662.74108887
scalar OsgEarthNet.uav[57] utilizationEnergyOverdrawMission 0
scalar OsgEarthNet.uav[57] utilizationEnergyOverdrawMaintenance 0
scalar OsgEarthNet.uav[57] utilizationCountMissions 58
scalar OsgEarthNet.uav[57] utilizationCountManeuversMission 1141
scalar OsgEarthNet.uav[57] utilizationCountManeuversMaintenance 116
scalar OsgEarthNet.uav[57] utilizationCountChargeState 58
scalar OsgEarthNet.uav[57] utilizationCountOverdrawnAfterMission 0
scalar OsgEarthNet.uav[57] utilizationCountIdleState 23
scalar OsgEarthNet.uav[57] utilizationFail 0
scalar OsgEarthNet.uav[57] simulationTime 259200
scalar OsgEarthNet.uav[58] utilizationSecMission 39018.366268292
scalar OsgEarthNet.uav[58] utilizationSecMaintenance 17169.134348034
scalar OsgEarthNet.uav[58] utilizationSecCharge 196853.27876976
scalar OsgEarthNet.uav[58] utilizationSecIdle 6159.2196139157
scalar OsgEarthNet.uav[58] utilizationEnergyMission 187701.53182602
scalar OsgEarthNet.uav[58] utilizationEnergyMaintenance 78905.31193924
scalar OsgEarthNet.uav[58] utilizationEnergyCharge 266399.39404297
scalar OsgEarthNet.uav[58] utilizationEnergyOverdrawMission 0
scalar OsgEarthNet.uav[58] utilizationEnergyOverdrawMaintenance 0
scalar OsgEarthNet.uav[58] utilizationCountMissions 58
scalar OsgEarthNet.uav[58] utilizationCountManeuversMission 1184
scalar OsgEarthNet.uav[58] utilizationCountManeuversMaintenance 116
scalar OsgEarthNet.uav[58] utilizationCountChargeState 58
scalar OsgEarthNet.uav[58] utilizationCountOverdrawnAfterMission 0
scalar OsgEarthNet.uav[58] utilizationCountIdleState 30
scalar OsgEarthNet.uav[58] utilizationFail 0
scalar OsgEarthNet.uav[58] simulationTime 259200
scalar OsgEarthNet.uav[59] utilizationSecMission 27916.754327236
scalar OsgEarthNet.uav[59] utilizationSecMaintenance 19195.309118985
scalar OsgEarthNet.uav[59] utilizationSecCharge 184219.7973551
scalar OsgEarthNet.uav[59] utilizationSecIdle 27868.13819868
scalar OsgEarthNet.uav[59] utilizationEnergyMission 135985.21237946
scalar OsgEarthNet.uav[59] utilizationEnergyMaintenance 91557.17861557
scalar OsgEarthNet.uav[59] utilizationEnergyCharge 225837.22509766
scalar OsgEarthNet.uav[59] utilizationEnergyOverdrawMission 0
scalar OsgEarthNet.uav[59] utilizationEnergyOverdrawMaintenance 0
scalar OsgEarthNet.uav[59] utilizationCountMissions 60
scalar OsgEarthNet.uav[59] utilizationCountManeuversMission 762
scalar OsgEarthNet.uav[59] utilizationCountManeuversMaintenance 120
scalar OsgEarthNet.uav[59] utilizationCountChargeState 60
scalar OsgEarthNet.uav[59] utilizationCountOverdrawnAfterMission 0
scalar OsgEarthNet.uav[59] utilizationCountIdleState 60
scalar OsgEarthNet.uav[59] utilizationFail 0
scalar OsgEarthNet.uav[59] simulationTime 259200
scalar OsgEarthNet.uav[60] utilizationSecMission 29210.002441285
scalar OsgEarthNet.uav[60] utilizationSecMaintenance 20082.488438883
scalar OsgEarthNet.uav[60] utilizationSecCharge 184905.50811983
scalar OsgEarthNet.uav[60] utilizationSecIdle 25002
scalar OsgEarthNet.uav[60] utilizationEnergyMission 143506.89360046
scalar OsgEarthNet.uav[60] utilizationEnergyMaintenance 96021.335231781
scalar OsgEarthNet.uav[60] utilizationEnergyCharge 238951.65771484
scalar OsgEarthNet.uav[60] utilizationEnergyOverdrawMission 0
scalar OsgEarthNet.uav[60] utilizationEnergyOverdrawMaintenance 0
scalar OsgEarthNet.uav[60] utilizationCountMissions 53
scalar OsgEarthNet.uav[60] utilizationCountManeuversMission 1044
scalar OsgEarthNet.uav[60] utilizationCountManeuversMaintenance 106
scalar OsgEarthNet.uav[60] utilizationCountChargeState 53
scalar OsgEarthNet.uav[60] utilizationCountOverdrawnAfterMission 0
scalar OsgEarthNet.uav[60] utilizationCountIdleState 52
scalar OsgEarthNet.uav[60] utilizationFail 0
scalar OsgEarthNet.uav[60] simulationTime 259200
scalar OsgEarthNet.uav[61] utilizationSecMission 27490.51231435
scalar OsgEarthNet.uav[61] utilizationSecMaintenance 20228.522699977
scalar OsgEarthNet.uav[61] utilizationSecCharge 187050
scalar OsgEarthNet.uav[61] utilizationSecIdle 24430.963985674
scalar OsgEarthNet.uav[61] utilizationEnergyMission 136829.9701004
scalar OsgEarthNet.uav[61] utilizationEnergyMaintenance 96465.971763883
scalar OsgEarthNet.uav[61] utilizationEnergyCharge 232433.88818359
scalar OsgEarthNet.uav[61] utilizationEnergyOverdrawMission 0
scalar OsgEarthNet.uav[61] utilizationEnergyOverdrawMaintenance 0
scalar OsgEarthNet.uav[61] utilizationCountMissions 58
scalar OsgEarthNet.uav[61] utilizationCountManeuversMission 1038
scalar OsgEarthNet.uav[61] utilizationCountManeuversMaintenance 117
scalar OsgEarthNet.uav[61] utilizationCountChargeState 58
scalar OsgEarthNet.uav[61] utilizationCountOverdrawnAfterMission 0
scalar OsgEarthNet.uav[61] utilizationCountIdleState 58
scalar OsgEarthNet.uav[61] utilizationFail 0
scalar OsgEarthNet.uav[61] simulationTime 259200
scalar OsgEarthNet.uav[62] utilizationSecMission 39782.920588948
scalar OsgEarthNet.uav[62] utilizationSecMaintenance 17037.682380961
scalar OsgEarthNet.uav[62] utilizationSecCharge 197087.39603009
scalar OsgEarthNet.uav[62] utilizationSecIdle 5292
scalar OsgEarthNet.uav[62] utilizationEnergyMission 191922.5411233
scalar OsgEarthNet.uav[62] utilizationEnergyMaintenance 77750.499668121
scalar OsgEarthNet.uav[62] utilizationEnergyCharge 266196.49816895
scalar OsgEarthNet.uav[62] utilizationEnergyOverdrawMission 0
scalar OsgEarthNet.uav[62] utilizationEnergyOverdrawMaintenance 0
scalar OsgEarthNet.uav[62] utilizationCountMissions 59
scalar OsgEarthNet.uav[62] utilizationCountManeuversMission 1255
scalar OsgEarthNet.uav[62] utilizationCountManeuversMaintenance 117
scalar OsgEarthNet.uav[62] utilizationCountChargeState 59
scalar OsgEarthNet.uav[62] utilizationCountOverdrawnAfterMission 0
scalar OsgEarthNet.uav[62] utilizationCountIdleState 28
scalar OsgEarthNet.uav[62] utilizationFail 0
scalar OsgEarthNet.uav[62] simulationTime 259200
scalar OsgEarthNet.uav[63] utilizationSecMission 31345.261700677
scalar OsgEarthNet.uav[63] utilizationSecMaintenance 18276.939154321
scalar OsgEarthNet.uav[63] utilizationSecCharge 179735.793145
scalar OsgEarthNet.uav[63] utilizationSecIdle 29842.005
scalar OsgEarthNet.uav[63] utilizationEnergyMission 150478.89968109
scalar OsgEarthNet.uav[63] utilizationEnergyMaintenance 86802.105373382
scalar OsgEarthNet.uav[63] utilizationEnergyCharge 232681.08239746
scalar OsgEarthNet.uav[63] utilizationEnergyOverdrawMission 0
scalar OsgEarthNet.uav[63] utilizationEnergyOverdrawMaintenance 0
scalar OsgEarthNet.uav[63] utilizationCountMissions 52
scalar OsgEarthNet.uav[63] utilizationCountManeuversMission 938
scalar OsgEarthNet.uav[63] utilizationCountManeuversMaintenance 104
scalar OsgEarthNet.uav[63] utilizationCountChargeState 52
scalar OsgEarthNet.uav[63] utilizationCountOverdrawnAfterMission 0
scalar OsgEarthNet.uav[63] utilizationCountIdleState 49
scalar OsgEarthNet.uav[63] utilizationFail 0
scalar OsgEarthNet.uav[63] simulationTime 259200
scalar OsgEarthNet.uav[64] utilizationSecMission 29730.924273989
scalar OsgEarthNet.uav[64] utilizationSecMaintenance 19691.689183038
scalar OsgEarthNet.uav[64] utilizationSecCharge 189005.38554297
scalar OsgEarthNet.uav[64] utilizationSecIdle 20772
scalar OsgEarthNet.uav[64] utilizationEnergyMission 144067.6168251
scalar OsgEarthNet.uav[64] utilizationEnergyMaintenance 93746.872642517
scalar OsgEarthNet.uav[64] utilizationEnergyCharge 237501.47924805
scalar OsgEarthNet.uav[64] utilizationEnergyOverdrawMission 0
scalar OsgEarthNet.uav[64] utilizationEnergyOverdrawMaintenance 0
scalar OsgEarthNet.uav[64] utilizationCountMissions 58
scalar OsgEarthNet.uav[64] utilizationCountManeuversMission 1015
scalar OsgEarthNet.uav[64] utilizationCountManeuversMaintenance 115
scalar OsgEarthNet.uav[64] utilizationCountChargeState 58
scalar OsgEarthNet.uav[64] utilizationCountOverdrawnAfterMission 0
scalar OsgEarthNet.uav[64] utilizationCountIdleState 57
scalar OsgEarthNet.uav[64] utilizationFail 0
scalar OsgEarthNet.uav[64] simulationTime 259200
scalar OsgEarthNet.uav[65] utilizationSecMission 39657.114886639
scalar OsgEarthNet.uav[65] utilizationSecMaintenance 17105.973778512
scalar OsgEarthNet.uav[65] utilizationSecCharge 195564.90833485
scalar OsgEarthNet.uav[65] utilizationSecIdle 6872.002
scalar OsgEarthNet.uav[65] utilizationEnergyMission 190403.30812073
scalar OsgEarthNet.uav[65] utilizationEnergyMaintenance 79752.151416779
scalar OsgEarthNet.uav[65] utilizationEnergyCharge 264239.02282715
scalar OsgEarthNet.uav[65] utilizationEnergyOverdrawMission 0
scalar OsgEarthNet.uav[65] utilizationEnergyOverdrawMaintenance 0
scalar OsgEarthNet.uav[65] utilizationCountMissions 58
scalar OsgEarthNet.uav[65] utilizationCountManeuversMission 1105
scalar OsgEarthNet.uav[65] utilizationCountManeuversMaintenance 116
scalar OsgEarthNet.uav[65] utilizationCountChargeState 58
scalar OsgEarthNet.uav[65] utilizationCountOverdrawnAfterMission 0
scalar OsgEarthNet.uav[65] utilizationCountIdleState 29
scalar OsgEarthNet.uav[65] utilizationFail 0
scalar OsgEarthNet.uav[65] simulationTime 259200
scalar OsgEarthNet.uav[66] utilizationSecMission 29210.518518786
scalar OsgEarthNet.uav[66] utilizationSecMaintenance 19830.974678424
scalar OsgEarthNet.uav[66] utilizationSecCharge 181326.49780279
scalar OsgEarthNet.uav[66] utilizationSecIdle 28832.008
scalar OsgEarthNet.uav[66] utilizationEnergyMission 141957.62851334
scalar OsgEarthNet.uav[66] utilizationEnergyMaintenance 94117.807693481
scalar OsgEarthNet.uav[66] utilizationEnergyCharge 235167.29321289
scalar OsgEarthNet.uav[66] utilizationEnergyOverdrawMission 0
scalar OsgEarthNet.uav[66] utilizationEnergyOverdrawMaintenance 0
scalar OsgEarthNet.uav[66] utilizationCountMissions 52
scalar OsgEarthNet.uav[66] utilizationCountManeuversMission 1035
scalar OsgEarthNet.uav[66] utilizationCountManeuversMaintenance 104
scalar OsgEarthNet.uav[66] utilizationCountChargeState 52
scalar OsgEarthNet.uav[66] utilizationCountOverdrawnAfterMission 0
scalar OsgEarthNet.uav[66] utilizationCountIdleState 52
scalar OsgEarthNet.uav[66] utilizationFail 0
scalar OsgEarthNet.uav[66] simulationTime 259200
scalar OsgEarthNet.uav[67] utilizationSecMission 29427.992503509
scalar OsgEarthNet.uav[67] utilizationSecMaintenance 19770.004989769
scalar OsgEarthNet.uav[67] utilizationSecCharge 187150
scalar OsgEarthNet.uav[67] utilizationSecIdle 22852.001506722
scalar OsgEarthNet.uav[67] utilizationEnergyMission 143847.97592163
scalar OsgEarthNet.uav[67] utilizationEnergyMaintenance 93989.912385592
scalar OsgEarthNet.uav[67] utilizationEnergyCharge 234329.51855469
scalar OsgEarthNet.uav[67] utilizationEnergyOverdrawMission 0
scalar OsgEarthNet.uav[67] utilizationEnergyOverdrawMaintenance 0
scalar OsgEarthNet.uav[67] utilizationCountMissions 58
scalar OsgEarthNet.uav[67] utilizationCountManeuversMission 1025
scalar OsgEarthNet.uav[67] utilizationCountManeuversMaintenance 116
scalar OsgEarthNet.uav[67] utilizationCountChargeState 57
scalar OsgEarthNet.uav[67] utilizationCountOverdrawnAfterMission 0
scalar OsgEarthNet.uav[67] utilizationCountIdleState 58
scalar OsgEarthNet.uav[67] utilizationFail 0
scalar OsgEarthNet.uav[67] simulationTime 259200
scalar OsgEarthNet.cs[0] usedPower 4001082.0396383
scalar OsgEarthNet.cs[0] chargedPower 4001082.0396383
scalar OsgEarthNet.cs[0] chargedMobileNodes 851
scalar OsgEarthNet.cs[0] reservations 889
scalar OsgEarthNet.cs[1] usedPower 4150342.1976757
scalar OsgEarthNet.cs[1] chargedPower 4150342.1976757
scalar OsgEarthNet.cs[1] chargedMobileNodes 1032
scalar OsgEarthNet.cs[1] reservations 1048
scalar OsgEarthNet.cs[2] usedPower 8680813.5094
scalar OsgEarthNet.cs[2] chargedPower 8680813.5094
scalar OsgEarthNet.cs[2] chargedMobileNodes 952
scalar OsgEarthNet.cs[2] reservations 1892

