version 2
run Szenario_Hotel_Gabelbach-92-20180722-04:07:28-17212
attr configname Szenario_Hotel_Gabelbach
attr datetime 20180722-04:07:28
attr experiment Szenario_Hotel_Gabelbach
attr inifile omnetpp.ini
attr iterationvars "$replM=2, $biWeight=0.35, $replSearchM=1, $numUAVs=300"
attr iterationvarsf replM=2,biWeight=0.35,replSearchM=1,numUAVs=300-
attr measurement "$replM=2, $biWeight=0.35, $replSearchM=1, $numUAVs=300"
attr network OsgEarthNet
attr processid 17212
attr repetition 20
attr replication #20
attr resultdir results
attr runnumber 92
attr seedset 92
itervar biWeight 0.35
itervar numUAVs 300
itervar replM 2
itervar replSearchM 1
param *.osgEarthScene.scene "\"Szenario_Hotel_Gabelbach.earth\""
param *.playgroundLatitude 50.6830269
param *.playgroundLongitude 10.8538055
param *.playgroundWidth 3500m
param *.playgroundHeight 3500m
param *.cs[0].posX 3537m
param *.cs[0].posY 965m
param *.cs[0].posZ 538m
param *.cs[1].posX 312m
param *.cs[1].posY 1262m
param *.cs[1].posZ 539m
param *.cs[2].posX 2185m
param *.cs[2].posY 3026m
param *.cs[2].posZ 777m
param *.cs[3].posX 10m
param *.cs[3].posY 2200m
param *.cs[3].posZ 560m
param *.cs[4].posX 750m
param *.cs[4].posY 200m
param *.cs[4].posZ 540m
param *.cs[5].posX 2450m
param *.cs[5].posY 180m
param *.cs[5].posZ 524m
param *.cs[6].posX 3140m
param *.cs[6].posY 1790m
param *.cs[6].posZ 606m
param *.numCSs 3
param *.uav[*].replacementMethod 2
param *.uav[*].weightedSumWeight 0.35
param *.missionControl.replacementSearchMethod 1
param *.numUAVs 300
param *.*.timeStep 10s
param *.uav[*].commandPreviewCommandCount 20
param *.missionControl.missionFiles "\"missions\\\\Szenario_WB_Hotel_Gabelbach_Mission_Hotel.waypoints,missions\\\\Szenario_WB_Hotel_Gabelbach_Mission_Kickelhahn.waypoints,missions\\\\Szenario_WB_Hotel_Gabelbach_Mission_Ilmenau_Sportplatz.waypoints,missions\\\\Szenario_WB_Hotel_Gabelbach_Mission_Manebach_Mitte.waypoints,missions\\\\Szenario_WB_Hotel_Gabelbach_Mission_Manebach_Sued.waypoints,missions\\\\Szenario_WB_Hotel_Gabelbach_Hover_HoheSchlaufe.waypoints,missions\\\\Szenario_WB_Hotel_Gabelbach_Hover_Kickelhahn.waypoints,missions\\\\Szenario_WB_Hotel_Gabelbach_Hover_Gabelbachskopf.waypoints,missions\\\\Szenario_WB_Hotel_Gabelbach_Hover_Dachskopf.waypoints\""
param *.uav[0].startX 3537m
param *.uav[0].startY 965m
param *.uav[0].startZ 539m
param *.uav[1].startX 312m
param *.uav[1].startY 1262m
param *.uav[1].startZ 540m
param *.uav[2].startX 2185m
param *.uav[2].startY 3026m
param *.uav[2].startZ 778m
param *.uav[3].startX 3537m
param *.uav[3].startY 965m
param *.uav[3].startZ 539m
param *.uav[4].startX 312m
param *.uav[4].startY 1262m
param *.uav[4].startZ 540m
param *.uav[5].startX 2185m
param *.uav[5].startY 3026m
param *.uav[5].startZ 778m
param *.uav[6].startX 3537m
param *.uav[6].startY 965m
param *.uav[6].startZ 539m
param *.uav[7].startX 312m
param *.uav[7].startY 1262m
param *.uav[7].startZ 540m
param *.uav[8].startX 2185m
param *.uav[8].startY 3026m
param *.uav[8].startZ 778m
param *.uav[9].startX 3537m
param *.uav[9].startY 965m
param *.uav[9].startZ 539m
param *.uav[10].startX 3537m
param *.uav[10].startY 965m
param *.uav[10].startZ 539m
param *.uav[11].startX 312m
param *.uav[11].startY 1262m
param *.uav[11].startZ 540m
param *.uav[12].startX 2185m
param *.uav[12].startY 3026m
param *.uav[12].startZ 778m
param *.uav[13].startX 3537m
param *.uav[13].startY 965m
param *.uav[13].startZ 539m
param *.uav[14].startX 312m
param *.uav[14].startY 1262m
param *.uav[14].startZ 540m
param *.uav[15].startX 2185m
param *.uav[15].startY 3026m
param *.uav[15].startZ 778m
param *.uav[16].startX 3537m
param *.uav[16].startY 965m
param *.uav[16].startZ 539m
param *.uav[17].startX 312m
param *.uav[17].startY 1262m
param *.uav[17].startZ 540m
param *.uav[18].startX 2185m
param *.uav[18].startY 3026m
param *.uav[18].startZ 778m
param *.uav[19].startX 3537m
param *.uav[19].startY 965m
param *.uav[19].startZ 539m
param *.uav[20].startX 3537m
param *.uav[20].startY 965m
param *.uav[20].startZ 539m
param *.uav[21].startX 312m
param *.uav[21].startY 1262m
param *.uav[21].startZ 540m
param *.uav[22].startX 2185m
param *.uav[22].startY 3026m
param *.uav[22].startZ 778m
param *.uav[23].startX 3537m
param *.uav[23].startY 965m
param *.uav[23].startZ 539m
param *.uav[24].startX 312m
param *.uav[24].startY 1262m
param *.uav[24].startZ 540m
param *.uav[25].startX 2185m
param *.uav[25].startY 3026m
param *.uav[25].startZ 778m
param *.uav[26].startX 3537m
param *.uav[26].startY 965m
param *.uav[26].startZ 539m
param *.uav[27].startX 312m
param *.uav[27].startY 1262m
param *.uav[27].startZ 540m
param *.uav[28].startX 2185m
param *.uav[28].startY 3026m
param *.uav[28].startZ 778m
param *.uav[29].startX 3537m
param *.uav[29].startY 965m
param *.uav[29].startZ 539m
param *.uav[30].startX 3537m
param *.uav[30].startY 965m
param *.uav[30].startZ 539m
param *.uav[31].startX 312m
param *.uav[31].startY 1262m
param *.uav[31].startZ 540m
param *.uav[32].startX 2185m
param *.uav[32].startY 3026m
param *.uav[32].startZ 778m
param *.uav[33].startX 3537m
param *.uav[33].startY 965m
param *.uav[33].startZ 539m
param *.uav[34].startX 312m
param *.uav[34].startY 1262m
param *.uav[34].startZ 540m
param *.uav[35].startX 2185m
param *.uav[35].startY 3026m
param *.uav[35].startZ 778m
param *.uav[36].startX 3537m
param *.uav[36].startY 965m
param *.uav[36].startZ 539m
param *.uav[37].startX 312m
param *.uav[37].startY 1262m
param *.uav[37].startZ 540m
param *.uav[38].startX 2185m
param *.uav[38].startY 3026m
param *.uav[38].startZ 778m
param *.uav[39].startX 3537m
param *.uav[39].startY 965m
param *.uav[39].startZ 539m
param *.uav[40].startX 3537m
param *.uav[40].startY 965m
param *.uav[40].startZ 539m
param *.uav[41].startX 312m
param *.uav[41].startY 1262m
param *.uav[41].startZ 540m
param *.uav[42].startX 2185m
param *.uav[42].startY 3026m
param *.uav[42].startZ 778m
param *.uav[43].startX 3537m
param *.uav[43].startY 965m
param *.uav[43].startZ 539m
param *.uav[44].startX 312m
param *.uav[44].startY 1262m
param *.uav[44].startZ 540m
param *.uav[45].startX 2185m
param *.uav[45].startY 3026m
param *.uav[45].startZ 778m
param *.uav[46].startX 3537m
param *.uav[46].startY 965m
param *.uav[46].startZ 539m
param *.uav[47].startX 312m
param *.uav[47].startY 1262m
param *.uav[47].startZ 540m
param *.uav[48].startX 2185m
param *.uav[48].startY 3026m
param *.uav[48].startZ 778m
param *.uav[49].startX 3537m
param *.uav[49].startY 965m
param *.uav[49].startZ 539m
param *.uav[50].startX 3537m
param *.uav[50].startY 965m
param *.uav[50].startZ 539m
param *.uav[51].startX 312m
param *.uav[51].startY 1262m
param *.uav[51].startZ 540m
param *.uav[52].startX 2185m
param *.uav[52].startY 3026m
param *.uav[52].startZ 778m
param *.uav[53].startX 3537m
param *.uav[53].startY 965m
param *.uav[53].startZ 539m
param *.uav[54].startX 312m
param *.uav[54].startY 1262m
param *.uav[54].startZ 540m
param *.uav[55].startX 2185m
param *.uav[55].startY 3026m
param *.uav[55].startZ 778m
param *.uav[56].startX 3537m
param *.uav[56].startY 965m
param *.uav[56].startZ 539m
param *.uav[57].startX 312m
param *.uav[57].startY 1262m
param *.uav[57].startZ 540m
param *.uav[58].startX 2185m
param *.uav[58].startY 3026m
param *.uav[58].startZ 778m
param *.uav[59].startX 3537m
param *.uav[59].startY 965m
param *.uav[59].startZ 539m
param *.uav[60].startX 3537m
param *.uav[60].startY 965m
param *.uav[60].startZ 539m
param *.uav[61].startX 312m
param *.uav[61].startY 1262m
param *.uav[61].startZ 540m
param *.uav[62].startX 2185m
param *.uav[62].startY 3026m
param *.uav[62].startZ 778m
param *.uav[63].startX 3537m
param *.uav[63].startY 965m
param *.uav[63].startZ 539m
param *.uav[64].startX 312m
param *.uav[64].startY 1262m
param *.uav[64].startZ 540m
param *.uav[65].startX 2185m
param *.uav[65].startY 3026m
param *.uav[65].startZ 778m
param *.uav[66].startX 3537m
param *.uav[66].startY 965m
param *.uav[66].startZ 539m
param *.uav[67].startX 312m
param *.uav[67].startY 1262m
param *.uav[67].startZ 540m
param *.uav[68].startX 2185m
param *.uav[68].startY 3026m
param *.uav[68].startZ 778m
param *.uav[69].startX 3537m
param *.uav[69].startY 965m
param *.uav[69].startZ 539m
param *.uav[70].startX 3537m
param *.uav[70].startY 965m
param *.uav[70].startZ 539m
param *.uav[71].startX 312m
param *.uav[71].startY 1262m
param *.uav[71].startZ 540m
param *.uav[72].startX 2185m
param *.uav[72].startY 3026m
param *.uav[72].startZ 778m
param *.uav[73].startX 3537m
param *.uav[73].startY 965m
param *.uav[73].startZ 539m
param *.uav[74].startX 312m
param *.uav[74].startY 1262m
param *.uav[74].startZ 540m
param *.uav[75].startX 2185m
param *.uav[75].startY 3026m
param *.uav[75].startZ 778m
param *.uav[76].startX 3537m
param *.uav[76].startY 965m
param *.uav[76].startZ 539m
param *.uav[77].startX 312m
param *.uav[77].startY 1262m
param *.uav[77].startZ 540m
param *.uav[78].startX 2185m
param *.uav[78].startY 3026m
param *.uav[78].startZ 778m
param *.uav[79].startX 3537m
param *.uav[79].startY 965m
param *.uav[79].startZ 539m
param *.uav[80].startX 3537m
param *.uav[80].startY 965m
param *.uav[80].startZ 539m
param *.uav[81].startX 312m
param *.uav[81].startY 1262m
param *.uav[81].startZ 540m
param *.uav[82].startX 2185m
param *.uav[82].startY 3026m
param *.uav[82].startZ 778m
param *.uav[83].startX 3537m
param *.uav[83].startY 965m
param *.uav[83].startZ 539m
param *.uav[84].startX 312m
param *.uav[84].startY 1262m
param *.uav[84].startZ 540m
param *.uav[85].startX 2185m
param *.uav[85].startY 3026m
param *.uav[85].startZ 778m
param *.uav[86].startX 3537m
param *.uav[86].startY 965m
param *.uav[86].startZ 539m
param *.uav[87].startX 312m
param *.uav[87].startY 1262m
param *.uav[87].startZ 540m
param *.uav[88].startX 2185m
param *.uav[88].startY 3026m
param *.uav[88].startZ 778m
param *.uav[89].startX 3537m
param *.uav[89].startY 965m
param *.uav[89].startZ 539m
param *.uav[90].startX 3537m
param *.uav[90].startY 965m
param *.uav[90].startZ 539m
param *.uav[91].startX 312m
param *.uav[91].startY 1262m
param *.uav[91].startZ 540m
param *.uav[92].startX 2185m
param *.uav[92].startY 3026m
param *.uav[92].startZ 778m
param *.uav[93].startX 3537m
param *.uav[93].startY 965m
param *.uav[93].startZ 539m
param *.uav[94].startX 312m
param *.uav[94].startY 1262m
param *.uav[94].startZ 540m
param *.uav[95].startX 2185m
param *.uav[95].startY 3026m
param *.uav[95].startZ 778m
param *.uav[96].startX 3537m
param *.uav[96].startY 965m
param *.uav[96].startZ 539m
param *.uav[97].startX 312m
param *.uav[97].startY 1262m
param *.uav[97].startZ 540m
param *.uav[98].startX 2185m
param *.uav[98].startY 3026m
param *.uav[98].startZ 778m
param *.uav[99].startX 3537m
param *.uav[99].startY 965m
param *.uav[99].startZ 539m
param *.osgEarthScene.scene "\"boston.earth\""
param *.playgroundLatitude 42.3558
param *.playgroundLongitude -71.0677
param *.playgroundWidth 400m
param *.playgroundHeight 200m
param *.channelController.connectionColor "\"#0000FF40\""
param *.channelController.showConnections false
param *.uav[*].modelURL "\"quadrocopter.small.obj.15.scale.0,0,90.rot\""
param *.uav[*].labelColor "\"#FF7C00CC\""
param *.uav[*].label2Color "\"#FF7C00EE\""
param *.uav[*].batteryCapacity 5200mAh
param *.uav[*].batteryRemaining uav[index].batteryCapacity
param *.uav[*].predictionQuantile 0.95
param *.uav[*].replacementMethod 2
param *.uav[*].weightedSumWeight 0.5
param *.cs[*].modelURL "\"chargingstation_v1.osgt.2.scale.0,0,0.rot.0,0,-15e-1.trans\""
param *.cs[*].spotsWaiting 999
param *.cs[*].spotsCharging 999
param *.cs[*].chargeEffectivenessPercentage 100
param *.cs[*].nonLinearPhaseStartPercentage 85
param *.cs[*].chargeCurrent 6.0A
param *.cs[*].prioritizeFastCharge true
param *.missionControl.replacementSearchMethod 0
param *.*.timeStep 9s

scalar OsgEarthNet.uav[0] utilizationSecMission 480
scalar OsgEarthNet.uav[0] utilizationSecMaintenance 447.1303002674
scalar OsgEarthNet.uav[0] utilizationSecCharge 3560
scalar OsgEarthNet.uav[0] utilizationSecIdle 254712.86869973
scalar OsgEarthNet.uav[0] utilizationEnergyMission 2728.0543899536
scalar OsgEarthNet.uav[0] utilizationEnergyMaintenance 2082.1494865417
scalar OsgEarthNet.uav[0] utilizationEnergyCharge 4534.884765625
scalar OsgEarthNet.uav[0] utilizationEnergyOverdrawMission 0
scalar OsgEarthNet.uav[0] utilizationEnergyOverdrawMaintenance 0
scalar OsgEarthNet.uav[0] utilizationCountMissions 1
scalar OsgEarthNet.uav[0] utilizationCountManeuversMission 24
scalar OsgEarthNet.uav[0] utilizationCountManeuversMaintenance 2
scalar OsgEarthNet.uav[0] utilizationCountChargeState 1
scalar OsgEarthNet.uav[0] utilizationCountOverdrawnAfterMission 0
scalar OsgEarthNet.uav[0] utilizationCountIdleState 2
scalar OsgEarthNet.uav[0] utilizationFail 0
scalar OsgEarthNet.uav[0] simulationTime 259200
scalar OsgEarthNet.uav[1] utilizationSecMission 560
scalar OsgEarthNet.uav[1] utilizationSecMaintenance 395.21104267299
scalar OsgEarthNet.uav[1] utilizationSecCharge 3450
scalar OsgEarthNet.uav[1] utilizationSecIdle 254794.78795733
scalar OsgEarthNet.uav[1] utilizationEnergyMission 2983.6784248352
scalar OsgEarthNet.uav[1] utilizationEnergyMaintenance 1930.0360832214
scalar OsgEarthNet.uav[1] utilizationEnergyCharge 4531.396484375
scalar OsgEarthNet.uav[1] utilizationEnergyOverdrawMission 0
scalar OsgEarthNet.uav[1] utilizationEnergyOverdrawMaintenance 0
scalar OsgEarthNet.uav[1] utilizationCountMissions 1
scalar OsgEarthNet.uav[1] utilizationCountManeuversMission 28
scalar OsgEarthNet.uav[1] utilizationCountManeuversMaintenance 2
scalar OsgEarthNet.uav[1] utilizationCountChargeState 1
scalar OsgEarthNet.uav[1] utilizationCountOverdrawnAfterMission 0
scalar OsgEarthNet.uav[1] utilizationCountIdleState 2
scalar OsgEarthNet.uav[1] utilizationFail 0
scalar OsgEarthNet.uav[1] simulationTime 259200
scalar OsgEarthNet.uav[2] utilizationSecMission 39854.578424264
scalar OsgEarthNet.uav[2] utilizationSecMaintenance 18032.73867086
scalar OsgEarthNet.uav[2] utilizationSecCharge 197419.97923716
scalar OsgEarthNet.uav[2] utilizationSecIdle 3892.7026677176
scalar OsgEarthNet.uav[2] utilizationEnergyMission 193301.77818298
scalar OsgEarthNet.uav[2] utilizationEnergyMaintenance 83951.067108154
scalar OsgEarthNet.uav[2] utilizationEnergyCharge 275156.14648438
scalar OsgEarthNet.uav[2] utilizationEnergyOverdrawMission 0
scalar OsgEarthNet.uav[2] utilizationEnergyOverdrawMaintenance 0
scalar OsgEarthNet.uav[2] utilizationCountMissions 60
scalar OsgEarthNet.uav[2] utilizationCountManeuversMission 1248
scalar OsgEarthNet.uav[2] utilizationCountManeuversMaintenance 120
scalar OsgEarthNet.uav[2] utilizationCountChargeState 60
scalar OsgEarthNet.uav[2] utilizationCountOverdrawnAfterMission 0
scalar OsgEarthNet.uav[2] utilizationCountIdleState 23
scalar OsgEarthNet.uav[2] utilizationFail 0
scalar OsgEarthNet.uav[2] simulationTime 259200
scalar OsgEarthNet.uav[3] utilizationSecMission 650.36711382974
scalar OsgEarthNet.uav[3] utilizationSecMaintenance 225.9968455197
scalar OsgEarthNet.uav[3] utilizationSecCharge 3340
scalar OsgEarthNet.uav[3] utilizationSecIdle 254983.63504065
scalar OsgEarthNet.uav[3] utilizationEnergyMission 3153.3733673096
scalar OsgEarthNet.uav[3] utilizationEnergyMaintenance 1073.2082023621
scalar OsgEarthNet.uav[3] utilizationEnergyCharge 4226.5830078125
scalar OsgEarthNet.uav[3] utilizationEnergyOverdrawMission 0
scalar OsgEarthNet.uav[3] utilizationEnergyOverdrawMaintenance 0
scalar OsgEarthNet.uav[3] utilizationCountMissions 1
scalar OsgEarthNet.uav[3] utilizationCountManeuversMission 11
scalar OsgEarthNet.uav[3] utilizationCountManeuversMaintenance 2
scalar OsgEarthNet.uav[3] utilizationCountChargeState 1
scalar OsgEarthNet.uav[3] utilizationCountOverdrawnAfterMission 0
scalar OsgEarthNet.uav[3] utilizationCountIdleState 2
scalar OsgEarthNet.uav[3] utilizationFail 0
scalar OsgEarthNet.uav[3] simulationTime 259200
scalar OsgEarthNet.uav[4] utilizationSecMission 1742.9478315036
scalar OsgEarthNet.uav[4] utilizationSecMaintenance 1089.128397124
scalar OsgEarthNet.uav[4] utilizationSecCharge 10530
scalar OsgEarthNet.uav[4] utilizationSecIdle 245837.92277137
scalar OsgEarthNet.uav[4] utilizationEnergyMission 8584.5860939026
scalar OsgEarthNet.uav[4] utilizationEnergyMaintenance 5138.9374542236
scalar OsgEarthNet.uav[4] utilizationEnergyCharge 13739.011230469
scalar OsgEarthNet.uav[4] utilizationEnergyOverdrawMission 0
scalar OsgEarthNet.uav[4] utilizationEnergyOverdrawMaintenance 0
scalar OsgEarthNet.uav[4] utilizationCountMissions 3
scalar OsgEarthNet.uav[4] utilizationCountManeuversMission 65
scalar OsgEarthNet.uav[4] utilizationCountManeuversMaintenance 6
scalar OsgEarthNet.uav[4] utilizationCountChargeState 3
scalar OsgEarthNet.uav[4] utilizationCountOverdrawnAfterMission 0
scalar OsgEarthNet.uav[4] utilizationCountIdleState 4
scalar OsgEarthNet.uav[4] utilizationFail 0
scalar OsgEarthNet.uav[4] simulationTime 259200
scalar OsgEarthNet.uav[5] utilizationSecMission 40102.781428193
scalar OsgEarthNet.uav[5] utilizationSecMaintenance 17676.046642485
scalar OsgEarthNet.uav[5] utilizationSecCharge 197381.53984866
scalar OsgEarthNet.uav[5] utilizationSecIdle 4039.6310806652
scalar OsgEarthNet.uav[5] utilizationEnergyMission 196020.7108078
scalar OsgEarthNet.uav[5] utilizationEnergyMaintenance 81512.833187103
scalar OsgEarthNet.uav[5] utilizationEnergyCharge 276273.82373047
scalar OsgEarthNet.uav[5] utilizationEnergyOverdrawMission 0
scalar OsgEarthNet.uav[5] utilizationEnergyOverdrawMaintenance 0
scalar OsgEarthNet.uav[5] utilizationCountMissions 60
scalar OsgEarthNet.uav[5] utilizationCountManeuversMission 1319
scalar OsgEarthNet.uav[5] utilizationCountManeuversMaintenance 120
scalar OsgEarthNet.uav[5] utilizationCountChargeState 60
scalar OsgEarthNet.uav[5] utilizationCountOverdrawnAfterMission 0
scalar OsgEarthNet.uav[5] utilizationCountIdleState 18
scalar OsgEarthNet.uav[5] utilizationFail 0
scalar OsgEarthNet.uav[5] simulationTime 259200
scalar OsgEarthNet.uav[6] utilizationSecMission 1700.6251525803
scalar OsgEarthNet.uav[6] utilizationSecMaintenance 1175.1155592225
scalar OsgEarthNet.uav[6] utilizationSecCharge 10540
scalar OsgEarthNet.uav[6] utilizationSecIdle 245784.2582882
scalar OsgEarthNet.uav[6] utilizationEnergyMission 7857.2320823669
scalar OsgEarthNet.uav[6] utilizationEnergyMaintenance 5567.555027008
scalar OsgEarthNet.uav[6] utilizationEnergyCharge 13523.679199219
scalar OsgEarthNet.uav[6] utilizationEnergyOverdrawMission 0
scalar OsgEarthNet.uav[6] utilizationEnergyOverdrawMaintenance 0
scalar OsgEarthNet.uav[6] utilizationCountMissions 3
scalar OsgEarthNet.uav[6] utilizationCountManeuversMission 59
scalar OsgEarthNet.uav[6] utilizationCountManeuversMaintenance 6
scalar OsgEarthNet.uav[6] utilizationCountChargeState 3
scalar OsgEarthNet.uav[6] utilizationCountOverdrawnAfterMission 0
scalar OsgEarthNet.uav[6] utilizationCountIdleState 4
scalar OsgEarthNet.uav[6] utilizationFail 0
scalar OsgEarthNet.uav[6] simulationTime 259200
scalar OsgEarthNet.uav[7] utilizationSecMission 1202.9478315036
scalar OsgEarthNet.uav[7] utilizationSecMaintenance 693.64054514173
scalar OsgEarthNet.uav[7] utilizationSecCharge 7080
scalar OsgEarthNet.uav[7] utilizationSecIdle 250223.41062335
scalar OsgEarthNet.uav[7] utilizationEnergyMission 5523.9663085937
scalar OsgEarthNet.uav[7] utilizationEnergyMaintenance 3358.4620704651
scalar OsgEarthNet.uav[7] utilizationEnergyCharge 9261.5888671875
scalar OsgEarthNet.uav[7] utilizationEnergyOverdrawMission 0
scalar OsgEarthNet.uav[7] utilizationEnergyOverdrawMaintenance 0
scalar OsgEarthNet.uav[7] utilizationCountMissions 2
scalar OsgEarthNet.uav[7] utilizationCountManeuversMission 38
scalar OsgEarthNet.uav[7] utilizationCountManeuversMaintenance 4
scalar OsgEarthNet.uav[7] utilizationCountChargeState 2
scalar OsgEarthNet.uav[7] utilizationCountOverdrawnAfterMission 0
scalar OsgEarthNet.uav[7] utilizationCountIdleState 3
scalar OsgEarthNet.uav[7] utilizationFail 0
scalar OsgEarthNet.uav[7] simulationTime 259200
scalar OsgEarthNet.uav[8] utilizationSecMission 39467.982770907
scalar OsgEarthNet.uav[8] utilizationSecMaintenance 18679.820941683
scalar OsgEarthNet.uav[8] utilizationSecCharge 197082.35847337
scalar OsgEarthNet.uav[8] utilizationSecIdle 3969.83681404
scalar OsgEarthNet.uav[8] utilizationEnergyMission 191984.33810806
scalar OsgEarthNet.uav[8] utilizationEnergyMaintenance 85411.776073456
scalar OsgEarthNet.uav[8] utilizationEnergyCharge 275600.97131348
scalar OsgEarthNet.uav[8] utilizationEnergyOverdrawMission 0
scalar OsgEarthNet.uav[8] utilizationEnergyOverdrawMaintenance 0
scalar OsgEarthNet.uav[8] utilizationCountMissions 61
scalar OsgEarthNet.uav[8] utilizationCountManeuversMission 1301
scalar OsgEarthNet.uav[8] utilizationCountManeuversMaintenance 122
scalar OsgEarthNet.uav[8] utilizationCountChargeState 61
scalar OsgEarthNet.uav[8] utilizationCountOverdrawnAfterMission 0
scalar OsgEarthNet.uav[8] utilizationCountIdleState 12
scalar OsgEarthNet.uav[8] utilizationFail 0
scalar OsgEarthNet.uav[8] simulationTime 259200
scalar OsgEarthNet.uav[9] utilizationSecMission 760.62515258028
scalar OsgEarthNet.uav[9] utilizationSecMaintenance 202.91610409653
scalar OsgEarthNet.uav[9] utilizationSecCharge 3350
scalar OsgEarthNet.uav[9] utilizationSecIdle 254886.45774332
scalar OsgEarthNet.uav[9] utilizationEnergyMission 3297.5348815918
scalar OsgEarthNet.uav[9] utilizationEnergyMaintenance 927.89980316162
scalar OsgEarthNet.uav[9] utilizationEnergyCharge 4225.4379882812
scalar OsgEarthNet.uav[9] utilizationEnergyOverdrawMission 0
scalar OsgEarthNet.uav[9] utilizationEnergyOverdrawMaintenance 0
scalar OsgEarthNet.uav[9] utilizationCountMissions 1
scalar OsgEarthNet.uav[9] utilizationCountManeuversMission 12
scalar OsgEarthNet.uav[9] utilizationCountManeuversMaintenance 2
scalar OsgEarthNet.uav[9] utilizationCountChargeState 1
scalar OsgEarthNet.uav[9] utilizationCountOverdrawnAfterMission 0
scalar OsgEarthNet.uav[9] utilizationCountIdleState 2
scalar OsgEarthNet.uav[9] utilizationFail 0
scalar OsgEarthNet.uav[9] simulationTime 259200
scalar OsgEarthNet.uav[10] utilizationSecMission 2781.8754577408
scalar OsgEarthNet.uav[10] utilizationSecMaintenance 1288.8109587914
scalar OsgEarthNet.uav[10] utilizationSecCharge 14420
scalar OsgEarthNet.uav[10] utilizationSecIdle 240709.31258347
scalar OsgEarthNet.uav[10] utilizationEnergyMission 12938.37997818
scalar OsgEarthNet.uav[10] utilizationEnergyMaintenance 6086.8178253174
scalar OsgEarthNet.uav[10] utilizationEnergyCharge 18796.0859375
scalar OsgEarthNet.uav[10] utilizationEnergyOverdrawMission 0
scalar OsgEarthNet.uav[10] utilizationEnergyOverdrawMaintenance 0
scalar OsgEarthNet.uav[10] utilizationCountMissions 4
scalar OsgEarthNet.uav[10] utilizationCountManeuversMission 61
scalar OsgEarthNet.uav[10] utilizationCountManeuversMaintenance 8
scalar OsgEarthNet.uav[10] utilizationCountChargeState 4
scalar OsgEarthNet.uav[10] utilizationCountOverdrawnAfterMission 0
scalar OsgEarthNet.uav[10] utilizationCountIdleState 5
scalar OsgEarthNet.uav[10] utilizationFail 0
scalar OsgEarthNet.uav[10] simulationTime 259200
scalar OsgEarthNet.uav[11] utilizationSecMission 13973.541816637
scalar OsgEarthNet.uav[11] utilizationSecMaintenance 9162.2583714436
scalar OsgEarthNet.uav[11] utilizationSecCharge 87362.197305197
scalar OsgEarthNet.uav[11] utilizationSecIdle 148702.00150672
scalar OsgEarthNet.uav[11] utilizationEnergyMission 69100.499565124
scalar OsgEarthNet.uav[11] utilizationEnergyMaintenance 43633.365005493
scalar OsgEarthNet.uav[11] utilizationEnergyCharge 110798.82495117
scalar OsgEarthNet.uav[11] utilizationEnergyOverdrawMission 0
scalar OsgEarthNet.uav[11] utilizationEnergyOverdrawMaintenance 0
scalar OsgEarthNet.uav[11] utilizationCountMissions 27
scalar OsgEarthNet.uav[11] utilizationCountManeuversMission 461
scalar OsgEarthNet.uav[11] utilizationCountManeuversMaintenance 54
scalar OsgEarthNet.uav[11] utilizationCountChargeState 27
scalar OsgEarthNet.uav[11] utilizationCountOverdrawnAfterMission 0
scalar OsgEarthNet.uav[11] utilizationCountIdleState 27
scalar OsgEarthNet.uav[11] utilizationFail 0
scalar OsgEarthNet.uav[11] simulationTime 259200
scalar OsgEarthNet.uav[12] utilizationSecMission 41966.790982853
scalar OsgEarthNet.uav[12] utilizationSecMaintenance 16461.205017147
scalar OsgEarthNet.uav[12] utilizationSecCharge 198160
scalar OsgEarthNet.uav[12] utilizationSecIdle 2612.003
scalar OsgEarthNet.uav[12] utilizationEnergyMission 203448.66060915
scalar OsgEarthNet.uav[12] utilizationEnergyMaintenance 75914.54177475
scalar OsgEarthNet.uav[12] utilizationEnergyCharge 275765.34326172
scalar OsgEarthNet.uav[12] utilizationEnergyOverdrawMission 0
scalar OsgEarthNet.uav[12] utilizationEnergyOverdrawMaintenance 0
scalar OsgEarthNet.uav[12] utilizationCountMissions 60
scalar OsgEarthNet.uav[12] utilizationCountManeuversMission 1282
scalar OsgEarthNet.uav[12] utilizationCountManeuversMaintenance 121
scalar OsgEarthNet.uav[12] utilizationCountChargeState 60
scalar OsgEarthNet.uav[12] utilizationCountOverdrawnAfterMission 0
scalar OsgEarthNet.uav[12] utilizationCountIdleState 11
scalar OsgEarthNet.uav[12] utilizationFail 0
scalar OsgEarthNet.uav[12] simulationTime 259200
scalar OsgEarthNet.uav[13] utilizationSecMission 440
scalar OsgEarthNet.uav[13] utilizationSecMaintenance 447.1303002674
scalar OsgEarthNet.uav[13] utilizationSecCharge 3510
scalar OsgEarthNet.uav[13] utilizationSecIdle 254802.86869973
scalar OsgEarthNet.uav[13] utilizationEnergyMission 2324.1293983459
scalar OsgEarthNet.uav[13] utilizationEnergyMaintenance 2095.5087394714
scalar OsgEarthNet.uav[13] utilizationEnergyCharge 4480.3364257812
scalar OsgEarthNet.uav[13] utilizationEnergyOverdrawMission 0
scalar OsgEarthNet.uav[13] utilizationEnergyOverdrawMaintenance 0
scalar OsgEarthNet.uav[13] utilizationCountMissions 1
scalar OsgEarthNet.uav[13] utilizationCountManeuversMission 22
scalar OsgEarthNet.uav[13] utilizationCountManeuversMaintenance 2
scalar OsgEarthNet.uav[13] utilizationCountChargeState 1
scalar OsgEarthNet.uav[13] utilizationCountOverdrawnAfterMission 0
scalar OsgEarthNet.uav[13] utilizationCountIdleState 2
scalar OsgEarthNet.uav[13] utilizationFail 0
scalar OsgEarthNet.uav[13] simulationTime 259200
scalar OsgEarthNet.uav[14] utilizationSecMission 4859.2979296281
scalar OsgEarthNet.uav[14] utilizationSecMaintenance 3232.6916899912
scalar OsgEarthNet.uav[14] utilizationSecCharge 30700
scalar OsgEarthNet.uav[14] utilizationSecIdle 220408.00938038
scalar OsgEarthNet.uav[14] utilizationEnergyMission 23481.016040802
scalar OsgEarthNet.uav[14] utilizationEnergyMaintenance 15281.378124237
scalar OsgEarthNet.uav[14] utilizationEnergyCharge 39011.817138672
scalar OsgEarthNet.uav[14] utilizationEnergyOverdrawMission 0
scalar OsgEarthNet.uav[14] utilizationEnergyOverdrawMaintenance 0
scalar OsgEarthNet.uav[14] utilizationCountMissions 9
scalar OsgEarthNet.uav[14] utilizationCountManeuversMission 191
scalar OsgEarthNet.uav[14] utilizationCountManeuversMaintenance 18
scalar OsgEarthNet.uav[14] utilizationCountChargeState 9
scalar OsgEarthNet.uav[14] utilizationCountOverdrawnAfterMission 0
scalar OsgEarthNet.uav[14] utilizationCountIdleState 10
scalar OsgEarthNet.uav[14] utilizationFail 0
scalar OsgEarthNet.uav[14] simulationTime 259200
scalar OsgEarthNet.uav[15] utilizationSecMission 40123.069738228
scalar OsgEarthNet.uav[15] utilizationSecMaintenance 17664.409546786
scalar OsgEarthNet.uav[15] utilizationSecCharge 195580.51471499
scalar OsgEarthNet.uav[15] utilizationSecIdle 5832.005
scalar OsgEarthNet.uav[15] utilizationEnergyMission 192926.86187363
scalar OsgEarthNet.uav[15] utilizationEnergyMaintenance 83807.707687378
scalar OsgEarthNet.uav[15] utilizationEnergyCharge 273941.70581055
scalar OsgEarthNet.uav[15] utilizationEnergyOverdrawMission 0
scalar OsgEarthNet.uav[15] utilizationEnergyOverdrawMaintenance 0
scalar OsgEarthNet.uav[15] utilizationCountMissions 60
scalar OsgEarthNet.uav[15] utilizationCountManeuversMission 1199
scalar OsgEarthNet.uav[15] utilizationCountManeuversMaintenance 120
scalar OsgEarthNet.uav[15] utilizationCountChargeState 60
scalar OsgEarthNet.uav[15] utilizationCountOverdrawnAfterMission 0
scalar OsgEarthNet.uav[15] utilizationCountIdleState 18
scalar OsgEarthNet.uav[15] utilizationFail 0
scalar OsgEarthNet.uav[15] simulationTime 259200
scalar OsgEarthNet.uav[16] utilizationSecMission 5601.8754577408
scalar OsgEarthNet.uav[16] utilizationSecMaintenance 3798.6666759513
scalar OsgEarthNet.uav[16] utilizationSecCharge 35020
scalar OsgEarthNet.uav[16] utilizationSecIdle 214779.45686631
scalar OsgEarthNet.uav[16] utilizationEnergyMission 27791.825283051
scalar OsgEarthNet.uav[16] utilizationEnergyMaintenance 17837.389030456
scalar OsgEarthNet.uav[16] utilizationEnergyCharge 45159.197753906
scalar OsgEarthNet.uav[16] utilizationEnergyOverdrawMission 0
scalar OsgEarthNet.uav[16] utilizationEnergyOverdrawMaintenance 0
scalar OsgEarthNet.uav[16] utilizationCountMissions 10
scalar OsgEarthNet.uav[16] utilizationCountManeuversMission 202
scalar OsgEarthNet.uav[16] utilizationCountManeuversMaintenance 20
scalar OsgEarthNet.uav[16] utilizationCountChargeState 10
scalar OsgEarthNet.uav[16] utilizationCountOverdrawnAfterMission 0
scalar OsgEarthNet.uav[16] utilizationCountIdleState 11
scalar OsgEarthNet.uav[16] utilizationFail 0
scalar OsgEarthNet.uav[16] simulationTime 259200
scalar OsgEarthNet.uav[17] utilizationSecMission 16353.046546128
scalar OsgEarthNet.uav[17] utilizationSecMaintenance 10860.386082303
scalar OsgEarthNet.uav[17] utilizationSecCharge 106350
scalar OsgEarthNet.uav[17] utilizationSecIdle 125636.56637157
scalar OsgEarthNet.uav[17] utilizationEnergyMission 80280.569587707
scalar OsgEarthNet.uav[17] utilizationEnergyMaintenance 52413.961406708
scalar OsgEarthNet.uav[17] utilizationEnergyCharge 132274.8972168
scalar OsgEarthNet.uav[17] utilizationEnergyOverdrawMission 0
scalar OsgEarthNet.uav[17] utilizationEnergyOverdrawMaintenance 0
scalar OsgEarthNet.uav[17] utilizationCountMissions 33
scalar OsgEarthNet.uav[17] utilizationCountManeuversMission 505
scalar OsgEarthNet.uav[17] utilizationCountManeuversMaintenance 66
scalar OsgEarthNet.uav[17] utilizationCountChargeState 33
scalar OsgEarthNet.uav[17] utilizationCountOverdrawnAfterMission 0
scalar OsgEarthNet.uav[17] utilizationCountIdleState 34
scalar OsgEarthNet.uav[17] utilizationFail 0
scalar OsgEarthNet.uav[17] simulationTime 259200
scalar OsgEarthNet.uav[18] utilizationSecMission 41217.710775243
scalar OsgEarthNet.uav[18] utilizationSecMaintenance 16821.03224594
scalar OsgEarthNet.uav[18] utilizationSecCharge 196919.25297882
scalar OsgEarthNet.uav[18] utilizationSecIdle 4242.003
scalar OsgEarthNet.uav[18] utilizationEnergyMission 197151.9938736
scalar OsgEarthNet.uav[18] utilizationEnergyMaintenance 77810.573558807
scalar OsgEarthNet.uav[18] utilizationEnergyCharge 275345.5435791
scalar OsgEarthNet.uav[18] utilizationEnergyOverdrawMission 0
scalar OsgEarthNet.uav[18] utilizationEnergyOverdrawMaintenance 0
scalar OsgEarthNet.uav[18] utilizationCountMissions 60
scalar OsgEarthNet.uav[18] utilizationCountManeuversMission 1142
scalar OsgEarthNet.uav[18] utilizationCountManeuversMaintenance 120
scalar OsgEarthNet.uav[18] utilizationCountChargeState 60
scalar OsgEarthNet.uav[18] utilizationCountOverdrawnAfterMission 0
scalar OsgEarthNet.uav[18] utilizationCountIdleState 17
scalar OsgEarthNet.uav[18] utilizationFail 0
scalar OsgEarthNet.uav[18] simulationTime 259200
scalar OsgEarthNet.uav[19] utilizationSecMission 2160.6251525803
scalar OsgEarthNet.uav[19] utilizationSecMaintenance 1535.1799641031
scalar OsgEarthNet.uav[19] utilizationSecCharge 14200
scalar OsgEarthNet.uav[19] utilizationSecIdle 241304.19388332
scalar OsgEarthNet.uav[19] utilizationEnergyMission 11049.675571442
scalar OsgEarthNet.uav[19] utilizationEnergyMaintenance 7366.5698089599
scalar OsgEarthNet.uav[19] utilizationEnergyCharge 18319.116210938
scalar OsgEarthNet.uav[19] utilizationEnergyOverdrawMission 0
scalar OsgEarthNet.uav[19] utilizationEnergyOverdrawMaintenance 0
scalar OsgEarthNet.uav[19] utilizationCountMissions 4
scalar OsgEarthNet.uav[19] utilizationCountManeuversMission 82
scalar OsgEarthNet.uav[19] utilizationCountManeuversMaintenance 8
scalar OsgEarthNet.uav[19] utilizationCountChargeState 4
scalar OsgEarthNet.uav[19] utilizationCountOverdrawnAfterMission 0
scalar OsgEarthNet.uav[19] utilizationCountIdleState 5
scalar OsgEarthNet.uav[19] utilizationFail 0
scalar OsgEarthNet.uav[19] simulationTime 259200
scalar OsgEarthNet.uav[20] utilizationSecMission 4141.8754577408
scalar OsgEarthNet.uav[20] utilizationSecMaintenance 2456.3714954023
scalar OsgEarthNet.uav[20] utilizationSecCharge 24620
scalar OsgEarthNet.uav[20] utilizationSecIdle 227981.75204686
scalar OsgEarthNet.uav[20] utilizationEnergyMission 20119.265678406
scalar OsgEarthNet.uav[20] utilizationEnergyMaintenance 11989.03194046
scalar OsgEarthNet.uav[20] utilizationEnergyCharge 31735.217285156
scalar OsgEarthNet.uav[20] utilizationEnergyOverdrawMission 0
scalar OsgEarthNet.uav[20] utilizationEnergyOverdrawMaintenance 0
scalar OsgEarthNet.uav[20] utilizationCountMissions 7
scalar OsgEarthNet.uav[20] utilizationCountManeuversMission 129
scalar OsgEarthNet.uav[20] utilizationCountManeuversMaintenance 14
scalar OsgEarthNet.uav[20] utilizationCountChargeState 7
scalar OsgEarthNet.uav[20] utilizationCountOverdrawnAfterMission 0
scalar OsgEarthNet.uav[20] utilizationCountIdleState 8
scalar OsgEarthNet.uav[20] utilizationFail 0
scalar OsgEarthNet.uav[20] simulationTime 259200
scalar OsgEarthNet.uav[21] utilizationSecMission 14273.7486165
scalar OsgEarthNet.uav[21] utilizationSecMaintenance 9614.5646781229
scalar OsgEarthNet.uav[21] utilizationSecCharge 92940
scalar OsgEarthNet.uav[21] utilizationSecIdle 142371.68570538
scalar OsgEarthNet.uav[21] utilizationEnergyMission 70692.524055481
scalar OsgEarthNet.uav[21] utilizationEnergyMaintenance 45616.265449524
scalar OsgEarthNet.uav[21] utilizationEnergyCharge 115281.11523438
scalar OsgEarthNet.uav[21] utilizationEnergyOverdrawMission 0
scalar OsgEarthNet.uav[21] utilizationEnergyOverdrawMaintenance 0
scalar OsgEarthNet.uav[21] utilizationCountMissions 29
scalar OsgEarthNet.uav[21] utilizationCountManeuversMission 453
scalar OsgEarthNet.uav[21] utilizationCountManeuversMaintenance 58
scalar OsgEarthNet.uav[21] utilizationCountChargeState 29
scalar OsgEarthNet.uav[21] utilizationCountOverdrawnAfterMission 0
scalar OsgEarthNet.uav[21] utilizationCountIdleState 30
scalar OsgEarthNet.uav[21] utilizationFail 0
scalar OsgEarthNet.uav[21] simulationTime 259200
scalar OsgEarthNet.uav[22] utilizationSecMission 41105.98295444
scalar OsgEarthNet.uav[22] utilizationSecMaintenance 16695.338812085
scalar OsgEarthNet.uav[22] utilizationSecCharge 196327.97679183
scalar OsgEarthNet.uav[22] utilizationSecIdle 5070.7004416429
scalar OsgEarthNet.uav[22] utilizationEnergyMission 195770.14727783
scalar OsgEarthNet.uav[22] utilizationEnergyMaintenance 76694.525817871
scalar OsgEarthNet.uav[22] utilizationEnergyCharge 273036.17181396
scalar OsgEarthNet.uav[22] utilizationEnergyOverdrawMission 0
scalar OsgEarthNet.uav[22] utilizationEnergyOverdrawMaintenance 0
scalar OsgEarthNet.uav[22] utilizationCountMissions 60
scalar OsgEarthNet.uav[22] utilizationCountManeuversMission 1220
scalar OsgEarthNet.uav[22] utilizationCountManeuversMaintenance 120
scalar OsgEarthNet.uav[22] utilizationCountChargeState 60
scalar OsgEarthNet.uav[22] utilizationCountOverdrawnAfterMission 0
scalar OsgEarthNet.uav[22] utilizationCountIdleState 13
scalar OsgEarthNet.uav[22] utilizationFail 0
scalar OsgEarthNet.uav[22] simulationTime 259200
scalar OsgEarthNet.uav[23] utilizationSecMission 6183.1257629014
scalar OsgEarthNet.uav[23] utilizationSecMaintenance 3474.8902242551
scalar OsgEarthNet.uav[23] utilizationSecCharge 35860
scalar OsgEarthNet.uav[23] utilizationSecIdle 213681.98301284
scalar OsgEarthNet.uav[23] utilizationEnergyMission 29982.608688354
scalar OsgEarthNet.uav[23] utilizationEnergyMaintenance 16632.65945816
scalar OsgEarthNet.uav[23] utilizationEnergyCharge 46688.7421875
scalar OsgEarthNet.uav[23] utilizationEnergyOverdrawMission 0
scalar OsgEarthNet.uav[23] utilizationEnergyOverdrawMaintenance 0
scalar OsgEarthNet.uav[23] utilizationCountMissions 10
scalar OsgEarthNet.uav[23] utilizationCountManeuversMission 179
scalar OsgEarthNet.uav[23] utilizationCountManeuversMaintenance 20
scalar OsgEarthNet.uav[23] utilizationCountChargeState 10
scalar OsgEarthNet.uav[23] utilizationCountOverdrawnAfterMission 0
scalar OsgEarthNet.uav[23] utilizationCountIdleState 11
scalar OsgEarthNet.uav[23] utilizationFail 0
scalar OsgEarthNet.uav[23] simulationTime 259200
scalar OsgEarthNet.uav[24] utilizationSecMission 24326.530241226
scalar OsgEarthNet.uav[24] utilizationSecMaintenance 14437.567294226
scalar OsgEarthNet.uav[24] utilizationSecCharge 143694.93747888
scalar OsgEarthNet.uav[24] utilizationSecIdle 76740.963985674
scalar OsgEarthNet.uav[24] utilizationEnergyMission 118908.5699234
scalar OsgEarthNet.uav[24] utilizationEnergyMaintenance 67523.083564758
scalar OsgEarthNet.uav[24] utilizationEnergyCharge 184542.91650391
scalar OsgEarthNet.uav[24] utilizationEnergyOverdrawMission 0
scalar OsgEarthNet.uav[24] utilizationEnergyOverdrawMaintenance 0
scalar OsgEarthNet.uav[24] utilizationCountMissions 45
scalar OsgEarthNet.uav[24] utilizationCountManeuversMission 793
scalar OsgEarthNet.uav[24] utilizationCountManeuversMaintenance 90
scalar OsgEarthNet.uav[24] utilizationCountChargeState 45
scalar OsgEarthNet.uav[24] utilizationCountOverdrawnAfterMission 0
scalar OsgEarthNet.uav[24] utilizationCountIdleState 34
scalar OsgEarthNet.uav[24] utilizationFail 0
scalar OsgEarthNet.uav[24] simulationTime 259200
scalar OsgEarthNet.uav[25] utilizationSecMission 39232.164655638
scalar OsgEarthNet.uav[25] utilizationSecMaintenance 19555.833344362
scalar OsgEarthNet.uav[25] utilizationSecCharge 198160
scalar OsgEarthNet.uav[25] utilizationSecIdle 2252.001
scalar OsgEarthNet.uav[25] utilizationEnergyMission 190543.68122482
scalar OsgEarthNet.uav[25] utilizationEnergyMaintenance 90847.062265441
scalar OsgEarthNet.uav[25] utilizationEnergyCharge 279072.14746094
scalar OsgEarthNet.uav[25] utilizationEnergyOverdrawMission 0
scalar OsgEarthNet.uav[25] utilizationEnergyOverdrawMaintenance 0
scalar OsgEarthNet.uav[25] utilizationCountMissions 62
scalar OsgEarthNet.uav[25] utilizationCountManeuversMission 1335
scalar OsgEarthNet.uav[25] utilizationCountManeuversMaintenance 124
scalar OsgEarthNet.uav[25] utilizationCountChargeState 61
scalar OsgEarthNet.uav[25] utilizationCountOverdrawnAfterMission 0
scalar OsgEarthNet.uav[25] utilizationCountIdleState 10
scalar OsgEarthNet.uav[25] utilizationFail 0
scalar OsgEarthNet.uav[25] simulationTime 259200
scalar OsgEarthNet.uav[26] utilizationSecMission 41963.724042266
scalar OsgEarthNet.uav[26] utilizationSecMaintenance 17034.274957734
scalar OsgEarthNet.uav[26] utilizationSecCharge 198860
scalar OsgEarthNet.uav[26] utilizationSecIdle 1342
scalar OsgEarthNet.uav[26] utilizationEnergyMission 200294.49460959
scalar OsgEarthNet.uav[26] utilizationEnergyMaintenance 78423.256118774
scalar OsgEarthNet.uav[26] utilizationEnergyCharge 276770.11279297
scalar OsgEarthNet.uav[26] utilizationEnergyOverdrawMission 0
scalar OsgEarthNet.uav[26] utilizationEnergyOverdrawMaintenance 0
scalar OsgEarthNet.uav[26] utilizationCountMissions 60
scalar OsgEarthNet.uav[26] utilizationCountManeuversMission 1248
scalar OsgEarthNet.uav[26] utilizationCountManeuversMaintenance 120
scalar OsgEarthNet.uav[26] utilizationCountChargeState 60
scalar OsgEarthNet.uav[26] utilizationCountOverdrawnAfterMission 0
scalar OsgEarthNet.uav[26] utilizationCountIdleState 18
scalar OsgEarthNet.uav[26] utilizationFail 0
scalar OsgEarthNet.uav[26] simulationTime 259200
scalar OsgEarthNet.uav[27] utilizationSecMission 20026.019152
scalar OsgEarthNet.uav[27] utilizationSecMaintenance 12930.159792505
scalar OsgEarthNet.uav[27] utilizationSecCharge 125730
scalar OsgEarthNet.uav[27] utilizationSecIdle 100513.82005549
scalar OsgEarthNet.uav[27] utilizationEnergyMission 98456.745033264
scalar OsgEarthNet.uav[27] utilizationEnergyMaintenance 61730.253932953
scalar OsgEarthNet.uav[27] utilizationEnergyCharge 159919.40722656
scalar OsgEarthNet.uav[27] utilizationEnergyOverdrawMission 0
scalar OsgEarthNet.uav[27] utilizationEnergyOverdrawMaintenance 0
scalar OsgEarthNet.uav[27] utilizationCountMissions 37
scalar OsgEarthNet.uav[27] utilizationCountManeuversMission 724
scalar OsgEarthNet.uav[27] utilizationCountManeuversMaintenance 73
scalar OsgEarthNet.uav[27] utilizationCountChargeState 37
scalar OsgEarthNet.uav[27] utilizationCountOverdrawnAfterMission 0
scalar OsgEarthNet.uav[27] utilizationCountIdleState 38
scalar OsgEarthNet.uav[27] utilizationFail 0
scalar OsgEarthNet.uav[27] simulationTime 259200
scalar OsgEarthNet.uav[28] utilizationSecMission 31442.125313054
scalar OsgEarthNet.uav[28] utilizationSecMaintenance 16812.284243248
scalar OsgEarthNet.uav[28] utilizationSecCharge 169513.5884437
scalar OsgEarthNet.uav[28] utilizationSecIdle 41432.001
scalar OsgEarthNet.uav[28] utilizationEnergyMission 153758.41938019
scalar OsgEarthNet.uav[28] utilizationEnergyMaintenance 78257.326637268
scalar OsgEarthNet.uav[28] utilizationEnergyCharge 229007.24169922
scalar OsgEarthNet.uav[28] utilizationEnergyOverdrawMission 0
scalar OsgEarthNet.uav[28] utilizationEnergyOverdrawMaintenance 0
scalar OsgEarthNet.uav[28] utilizationCountMissions 53
scalar OsgEarthNet.uav[28] utilizationCountManeuversMission 1056
scalar OsgEarthNet.uav[28] utilizationCountManeuversMaintenance 106
scalar OsgEarthNet.uav[28] utilizationCountChargeState 53
scalar OsgEarthNet.uav[28] utilizationCountOverdrawnAfterMission 0
scalar OsgEarthNet.uav[28] utilizationCountIdleState 27
scalar OsgEarthNet.uav[28] utilizationFail 0
scalar OsgEarthNet.uav[28] simulationTime 259200
scalar OsgEarthNet.uav[29] utilizationSecMission 4862.5006103211
scalar OsgEarthNet.uav[29] utilizationSecMaintenance 2834.3036078114
scalar OsgEarthNet.uav[29] utilizationSecCharge 28020
scalar OsgEarthNet.uav[29] utilizationSecIdle 223483.19478187
scalar OsgEarthNet.uav[29] utilizationEnergyMission 23565.024963379
scalar OsgEarthNet.uav[29] utilizationEnergyMaintenance 13354.759532928
scalar OsgEarthNet.uav[29] utilizationEnergyCharge 35966.178710938
scalar OsgEarthNet.uav[29] utilizationEnergyOverdrawMission 0
scalar OsgEarthNet.uav[29] utilizationEnergyOverdrawMaintenance 0
scalar OsgEarthNet.uav[29] utilizationCountMissions 8
scalar OsgEarthNet.uav[29] utilizationCountManeuversMission 139
scalar OsgEarthNet.uav[29] utilizationCountManeuversMaintenance 16
scalar OsgEarthNet.uav[29] utilizationCountChargeState 8
scalar OsgEarthNet.uav[29] utilizationCountOverdrawnAfterMission 0
scalar OsgEarthNet.uav[29] utilizationCountIdleState 9
scalar OsgEarthNet.uav[29] utilizationFail 0
scalar OsgEarthNet.uav[29] simulationTime 259200
scalar OsgEarthNet.uav[30] utilizationSecMission 5701.2503051606
scalar OsgEarthNet.uav[30] utilizationSecMaintenance 4500.3238573065
scalar OsgEarthNet.uav[30] utilizationSecCharge 38430
scalar OsgEarthNet.uav[30] utilizationSecIdle 210568.42483753
scalar OsgEarthNet.uav[30] utilizationEnergyMission 29040.013511658
scalar OsgEarthNet.uav[30] utilizationEnergyMaintenance 21298.806552887
scalar OsgEarthNet.uav[30] utilizationEnergyCharge 49565.5234375
scalar OsgEarthNet.uav[30] utilizationEnergyOverdrawMission 0
scalar OsgEarthNet.uav[30] utilizationEnergyOverdrawMaintenance 0
scalar OsgEarthNet.uav[30] utilizationCountMissions 11
scalar OsgEarthNet.uav[30] utilizationCountManeuversMission 233
scalar OsgEarthNet.uav[30] utilizationCountManeuversMaintenance 22
scalar OsgEarthNet.uav[30] utilizationCountChargeState 11
scalar OsgEarthNet.uav[30] utilizationCountOverdrawnAfterMission 0
scalar OsgEarthNet.uav[30] utilizationCountIdleState 12
scalar OsgEarthNet.uav[30] utilizationFail 0
scalar OsgEarthNet.uav[30] simulationTime 259200
scalar OsgEarthNet.uav[31] utilizationSecMission 17087.828235104
scalar OsgEarthNet.uav[31] utilizationSecMaintenance 12573.902244637
scalar OsgEarthNet.uav[31] utilizationSecCharge 115086.26252026
scalar OsgEarthNet.uav[31] utilizationSecIdle 114452.006
scalar OsgEarthNet.uav[31] utilizationEnergyMission 84830.193683624
scalar OsgEarthNet.uav[31] utilizationEnergyMaintenance 59671.735134125
scalar OsgEarthNet.uav[31] utilizationEnergyCharge 143363.31933594
scalar OsgEarthNet.uav[31] utilizationEnergyOverdrawMission 0
scalar OsgEarthNet.uav[31] utilizationEnergyOverdrawMaintenance 0
scalar OsgEarthNet.uav[31] utilizationCountMissions 36
scalar OsgEarthNet.uav[31] utilizationCountManeuversMission 662
scalar OsgEarthNet.uav[31] utilizationCountManeuversMaintenance 72
scalar OsgEarthNet.uav[31] utilizationCountChargeState 36
scalar OsgEarthNet.uav[31] utilizationCountOverdrawnAfterMission 0
scalar OsgEarthNet.uav[31] utilizationCountIdleState 36
scalar OsgEarthNet.uav[31] utilizationFail 0
scalar OsgEarthNet.uav[31] simulationTime 259200
scalar OsgEarthNet.uav[32] utilizationSecMission 40617.216215462
scalar OsgEarthNet.uav[32] utilizationSecMaintenance 17760.778784538
scalar OsgEarthNet.uav[32] utilizationSecCharge 196520
scalar OsgEarthNet.uav[32] utilizationSecIdle 4302.004
scalar OsgEarthNet.uav[32] utilizationEnergyMission 197463.01395416
scalar OsgEarthNet.uav[32] utilizationEnergyMaintenance 81702.457775511
scalar OsgEarthNet.uav[32] utilizationEnergyCharge 274531.83349609
scalar OsgEarthNet.uav[32] utilizationEnergyOverdrawMission 0
scalar OsgEarthNet.uav[32] utilizationEnergyOverdrawMaintenance 0
scalar OsgEarthNet.uav[32] utilizationCountMissions 61
scalar OsgEarthNet.uav[32] utilizationCountManeuversMission 1219
scalar OsgEarthNet.uav[32] utilizationCountManeuversMaintenance 122
scalar OsgEarthNet.uav[32] utilizationCountChargeState 60
scalar OsgEarthNet.uav[32] utilizationCountOverdrawnAfterMission 0
scalar OsgEarthNet.uav[32] utilizationCountIdleState 12
scalar OsgEarthNet.uav[32] utilizationFail 0
scalar OsgEarthNet.uav[32] simulationTime 259200
scalar OsgEarthNet.uav[33] utilizationSecMission 40077.627359949
scalar OsgEarthNet.uav[33] utilizationSecMaintenance 17276.759109106
scalar OsgEarthNet.uav[33] utilizationSecCharge 193301.71013666
scalar OsgEarthNet.uav[33] utilizationSecIdle 8543.9023942837
scalar OsgEarthNet.uav[33] utilizationEnergyMission 192617.79454041
scalar OsgEarthNet.uav[33] utilizationEnergyMaintenance 79665.227054596
scalar OsgEarthNet.uav[33] utilizationEnergyCharge 270175.53076172
scalar OsgEarthNet.uav[33] utilizationEnergyOverdrawMission 0
scalar OsgEarthNet.uav[33] utilizationEnergyOverdrawMaintenance 0
scalar OsgEarthNet.uav[33] utilizationCountMissions 59
scalar OsgEarthNet.uav[33] utilizationCountManeuversMission 1152
scalar OsgEarthNet.uav[33] utilizationCountManeuversMaintenance 118
scalar OsgEarthNet.uav[33] utilizationCountChargeState 59
scalar OsgEarthNet.uav[33] utilizationCountOverdrawnAfterMission 0
scalar OsgEarthNet.uav[33] utilizationCountIdleState 12
scalar OsgEarthNet.uav[33] utilizationFail 0
scalar OsgEarthNet.uav[33] simulationTime 259200
scalar OsgEarthNet.uav[34] utilizationSecMission 20117.934459981
scalar OsgEarthNet.uav[34] utilizationSecMaintenance 13848.044472931
scalar OsgEarthNet.uav[34] utilizationSecCharge 131980
scalar OsgEarthNet.uav[34] utilizationSecIdle 93254.020067088
scalar OsgEarthNet.uav[34] utilizationEnergyMission 97836.533222198
scalar OsgEarthNet.uav[34] utilizationEnergyMaintenance 65818.447135925
scalar OsgEarthNet.uav[34] utilizationEnergyCharge 163953.22338867
scalar OsgEarthNet.uav[34] utilizationEnergyOverdrawMission 0
scalar OsgEarthNet.uav[34] utilizationEnergyOverdrawMaintenance 0
scalar OsgEarthNet.uav[34] utilizationCountMissions 41
scalar OsgEarthNet.uav[34] utilizationCountManeuversMission 676
scalar OsgEarthNet.uav[34] utilizationCountManeuversMaintenance 82
scalar OsgEarthNet.uav[34] utilizationCountChargeState 41
scalar OsgEarthNet.uav[34] utilizationCountOverdrawnAfterMission 0
scalar OsgEarthNet.uav[34] utilizationCountIdleState 42
scalar OsgEarthNet.uav[34] utilizationFail 0
scalar OsgEarthNet.uav[34] simulationTime 259200
scalar OsgEarthNet.uav[35] utilizationSecMission 41863.204695925
scalar OsgEarthNet.uav[35] utilizationSecMaintenance 16523.924965301
scalar OsgEarthNet.uav[35] utilizationSecCharge 198640.86933877
scalar OsgEarthNet.uav[35] utilizationSecIdle 2172
scalar OsgEarthNet.uav[35] utilizationEnergyMission 201535.2514866
scalar OsgEarthNet.uav[35] utilizationEnergyMaintenance 75669.371898651
scalar OsgEarthNet.uav[35] utilizationEnergyCharge 276620.33227539
scalar OsgEarthNet.uav[35] utilizationEnergyOverdrawMission 0
scalar OsgEarthNet.uav[35] utilizationEnergyOverdrawMaintenance 0
scalar OsgEarthNet.uav[35] utilizationCountMissions 60
scalar OsgEarthNet.uav[35] utilizationCountManeuversMission 1195
scalar OsgEarthNet.uav[35] utilizationCountManeuversMaintenance 119
scalar OsgEarthNet.uav[35] utilizationCountChargeState 60
scalar OsgEarthNet.uav[35] utilizationCountOverdrawnAfterMission 0
scalar OsgEarthNet.uav[35] utilizationCountIdleState 16
scalar OsgEarthNet.uav[35] utilizationFail 0
scalar OsgEarthNet.uav[35] simulationTime 259200
scalar OsgEarthNet.uav[36] utilizationSecMission 5121.8754577408
scalar OsgEarthNet.uav[36] utilizationSecMaintenance 3438.582208863
scalar OsgEarthNet.uav[36] utilizationSecCharge 31900
scalar OsgEarthNet.uav[36] utilizationSecIdle 218739.5413334
scalar OsgEarthNet.uav[36] utilizationEnergyMission 24707.86737442
scalar OsgEarthNet.uav[36] utilizationEnergyMaintenance 16573.279582977
scalar OsgEarthNet.uav[36] utilizationEnergyCharge 41236.9296875
scalar OsgEarthNet.uav[36] utilizationEnergyOverdrawMission 0
scalar OsgEarthNet.uav[36] utilizationEnergyOverdrawMaintenance 0
scalar OsgEarthNet.uav[36] utilizationCountMissions 9
scalar OsgEarthNet.uav[36] utilizationCountManeuversMission 178
scalar OsgEarthNet.uav[36] utilizationCountManeuversMaintenance 18
scalar OsgEarthNet.uav[36] utilizationCountChargeState 9
scalar OsgEarthNet.uav[36] utilizationCountOverdrawnAfterMission 0
scalar OsgEarthNet.uav[36] utilizationCountIdleState 10
scalar OsgEarthNet.uav[36] utilizationFail 0
scalar OsgEarthNet.uav[36] simulationTime 259200
scalar OsgEarthNet.uav[37] utilizationSecMission 18890.098714624
scalar OsgEarthNet.uav[37] utilizationSecMaintenance 12944.591526937
scalar OsgEarthNet.uav[37] utilizationSecCharge 120113.30575844
scalar OsgEarthNet.uav[37] utilizationSecIdle 107252.003
scalar OsgEarthNet.uav[37] utilizationEnergyMission 93171.913795471
scalar OsgEarthNet.uav[37] utilizationEnergyMaintenance 61010.116584778
scalar OsgEarthNet.uav[37] utilizationEnergyCharge 149461.80651855
scalar OsgEarthNet.uav[37] utilizationEnergyOverdrawMission 0
scalar OsgEarthNet.uav[37] utilizationEnergyOverdrawMaintenance 0
scalar OsgEarthNet.uav[37] utilizationCountMissions 38
scalar OsgEarthNet.uav[37] utilizationCountManeuversMission 654
scalar OsgEarthNet.uav[37] utilizationCountManeuversMaintenance 76
scalar OsgEarthNet.uav[37] utilizationCountChargeState 38
scalar OsgEarthNet.uav[37] utilizationCountOverdrawnAfterMission 0
scalar OsgEarthNet.uav[37] utilizationCountIdleState 38
scalar OsgEarthNet.uav[37] utilizationFail 0
scalar OsgEarthNet.uav[37] simulationTime 259200
scalar OsgEarthNet.uav[38] utilizationSecMission 19156.03861583
scalar OsgEarthNet.uav[38] utilizationSecMaintenance 10498.099381872
scalar OsgEarthNet.uav[38] utilizationSecCharge 107660
scalar OsgEarthNet.uav[38] utilizationSecIdle 121885.8610023
scalar OsgEarthNet.uav[38] utilizationEnergyMission 91180.734212578
scalar OsgEarthNet.uav[38] utilizationEnergyMaintenance 49941.104644775
scalar OsgEarthNet.uav[38] utilizationEnergyCharge 138089.68676758
scalar OsgEarthNet.uav[38] utilizationEnergyOverdrawMission 0
scalar OsgEarthNet.uav[38] utilizationEnergyOverdrawMaintenance 0
scalar OsgEarthNet.uav[38] utilizationCountMissions 31
scalar OsgEarthNet.uav[38] utilizationCountManeuversMission 502
scalar OsgEarthNet.uav[38] utilizationCountManeuversMaintenance 63
scalar OsgEarthNet.uav[38] utilizationCountChargeState 31
scalar OsgEarthNet.uav[38] utilizationCountOverdrawnAfterMission 0
scalar OsgEarthNet.uav[38] utilizationCountIdleState 32
scalar OsgEarthNet.uav[38] utilizationFail 0
scalar OsgEarthNet.uav[38] simulationTime 259200
scalar OsgEarthNet.uav[39] utilizationSecMission 12474.743181892
scalar OsgEarthNet.uav[39] utilizationSecMaintenance 7929.691752131
scalar OsgEarthNet.uav[39] utilizationSecCharge 76330
scalar OsgEarthNet.uav[39] utilizationSecIdle 162465.56406598
scalar OsgEarthNet.uav[39] utilizationEnergyMission 60338.770252228
scalar OsgEarthNet.uav[39] utilizationEnergyMaintenance 37834.210517883
scalar OsgEarthNet.uav[39] utilizationEnergyCharge 98053.276855469
scalar OsgEarthNet.uav[39] utilizationEnergyOverdrawMission 0
scalar OsgEarthNet.uav[39] utilizationEnergyOverdrawMaintenance 0
scalar OsgEarthNet.uav[39] utilizationCountMissions 22
scalar OsgEarthNet.uav[39] utilizationCountManeuversMission 420
scalar OsgEarthNet.uav[39] utilizationCountManeuversMaintenance 44
scalar OsgEarthNet.uav[39] utilizationCountChargeState 22
scalar OsgEarthNet.uav[39] utilizationCountOverdrawnAfterMission 0
scalar OsgEarthNet.uav[39] utilizationCountIdleState 23
scalar OsgEarthNet.uav[39] utilizationFail 0
scalar OsgEarthNet.uav[39] simulationTime 259200
scalar OsgEarthNet.uav[40] utilizationSecMission 13326.876678383
scalar OsgEarthNet.uav[40] utilizationSecMaintenance 7483.3525523172
scalar OsgEarthNet.uav[40] utilizationSecCharge 77190
scalar OsgEarthNet.uav[40] utilizationSecIdle 161199.7697693
scalar OsgEarthNet.uav[40] utilizationEnergyMission 63851.87493515
scalar OsgEarthNet.uav[40] utilizationEnergyMaintenance 35330.210975647
scalar OsgEarthNet.uav[40] utilizationEnergyCharge 99567.29296875
scalar OsgEarthNet.uav[40] utilizationEnergyOverdrawMission 0
scalar OsgEarthNet.uav[40] utilizationEnergyOverdrawMaintenance 0
scalar OsgEarthNet.uav[40] utilizationCountMissions 22
scalar OsgEarthNet.uav[40] utilizationCountManeuversMission 380
scalar OsgEarthNet.uav[40] utilizationCountManeuversMaintenance 44
scalar OsgEarthNet.uav[40] utilizationCountChargeState 22
scalar OsgEarthNet.uav[40] utilizationCountOverdrawnAfterMission 0
scalar OsgEarthNet.uav[40] utilizationCountIdleState 23
scalar OsgEarthNet.uav[40] utilizationFail 0
scalar OsgEarthNet.uav[40] simulationTime 259200
scalar OsgEarthNet.uav[41] utilizationSecMission 34817.633332637
scalar OsgEarthNet.uav[41] utilizationSecMaintenance 15926.307991282
scalar OsgEarthNet.uav[41] utilizationSecCharge 179508.74159425
scalar OsgEarthNet.uav[41] utilizationSecIdle 28947.316081831
scalar OsgEarthNet.uav[41] utilizationEnergyMission 167085.72208786
scalar OsgEarthNet.uav[41] utilizationEnergyMaintenance 72888.350006104
scalar OsgEarthNet.uav[41] utilizationEnergyCharge 240911.99902344
scalar OsgEarthNet.uav[41] utilizationEnergyOverdrawMission 0
scalar OsgEarthNet.uav[41] utilizationEnergyOverdrawMaintenance 0
scalar OsgEarthNet.uav[41] utilizationCountMissions 55
scalar OsgEarthNet.uav[41] utilizationCountManeuversMission 969
scalar OsgEarthNet.uav[41] utilizationCountManeuversMaintenance 110
scalar OsgEarthNet.uav[41] utilizationCountChargeState 55
scalar OsgEarthNet.uav[41] utilizationCountOverdrawnAfterMission 0
scalar OsgEarthNet.uav[41] utilizationCountIdleState 25
scalar OsgEarthNet.uav[41] utilizationFail 0
scalar OsgEarthNet.uav[41] simulationTime 259200
scalar OsgEarthNet.uav[42] utilizationSecMission 41247.448560767
scalar OsgEarthNet.uav[42] utilizationSecMaintenance 17330.548439233
scalar OsgEarthNet.uav[42] utilizationSecCharge 197970
scalar OsgEarthNet.uav[42] utilizationSecIdle 2652.002
scalar OsgEarthNet.uav[42] utilizationEnergyMission 200366.0848468
scalar OsgEarthNet.uav[42] utilizationEnergyMaintenance 79240.048843384
scalar OsgEarthNet.uav[42] utilizationEnergyCharge 275780.16162109
scalar OsgEarthNet.uav[42] utilizationEnergyOverdrawMission 0
scalar OsgEarthNet.uav[42] utilizationEnergyOverdrawMaintenance 0
scalar OsgEarthNet.uav[42] utilizationCountMissions 60
scalar OsgEarthNet.uav[42] utilizationCountManeuversMission 1299
scalar OsgEarthNet.uav[42] utilizationCountManeuversMaintenance 121
scalar OsgEarthNet.uav[42] utilizationCountChargeState 60
scalar OsgEarthNet.uav[42] utilizationCountOverdrawnAfterMission 0
scalar OsgEarthNet.uav[42] utilizationCountIdleState 18
scalar OsgEarthNet.uav[42] utilizationFail 0
scalar OsgEarthNet.uav[42] simulationTime 259200
scalar OsgEarthNet.uav[43] utilizationSecMission 11113.492876731
scalar OsgEarthNet.uav[43] utilizationSecMaintenance 7629.2984442908
scalar OsgEarthNet.uav[43] utilizationSecCharge 69750
scalar OsgEarthNet.uav[43] utilizationSecIdle 170707.20767898
scalar OsgEarthNet.uav[43] utilizationEnergyMission 56691.38458252
scalar OsgEarthNet.uav[43] utilizationEnergyMaintenance 36191.647570745
scalar OsgEarthNet.uav[43] utilizationEnergyCharge 89767.631835938
scalar OsgEarthNet.uav[43] utilizationEnergyOverdrawMission 0
scalar OsgEarthNet.uav[43] utilizationEnergyOverdrawMaintenance 0
scalar OsgEarthNet.uav[43] utilizationCountMissions 20
scalar OsgEarthNet.uav[43] utilizationCountManeuversMission 404
scalar OsgEarthNet.uav[43] utilizationCountManeuversMaintenance 41
scalar OsgEarthNet.uav[43] utilizationCountChargeState 20
scalar OsgEarthNet.uav[43] utilizationCountOverdrawnAfterMission 0
scalar OsgEarthNet.uav[43] utilizationCountIdleState 21
scalar OsgEarthNet.uav[43] utilizationFail 0
scalar OsgEarthNet.uav[43] simulationTime 259200
scalar OsgEarthNet.uav[44] utilizationSecMission 20086.655612612
scalar OsgEarthNet.uav[44] utilizationSecMaintenance 13968.217553763
scalar OsgEarthNet.uav[44] utilizationSecCharge 132150
scalar OsgEarthNet.uav[44] utilizationSecIdle 92995.125833625
scalar OsgEarthNet.uav[44] utilizationEnergyMission 97455.41324234
scalar OsgEarthNet.uav[44] utilizationEnergyMaintenance 66279.89705658
scalar OsgEarthNet.uav[44] utilizationEnergyCharge 162679.48217773
scalar OsgEarthNet.uav[44] utilizationEnergyOverdrawMission 0
scalar OsgEarthNet.uav[44] utilizationEnergyOverdrawMaintenance 0
scalar OsgEarthNet.uav[44] utilizationCountMissions 42
scalar OsgEarthNet.uav[44] utilizationCountManeuversMission 661
scalar OsgEarthNet.uav[44] utilizationCountManeuversMaintenance 84
scalar OsgEarthNet.uav[44] utilizationCountChargeState 42
scalar OsgEarthNet.uav[44] utilizationCountOverdrawnAfterMission 0
scalar OsgEarthNet.uav[44] utilizationCountIdleState 43
scalar OsgEarthNet.uav[44] utilizationFail 0
scalar OsgEarthNet.uav[44] simulationTime 259200
scalar OsgEarthNet.uav[45] utilizationSecMission 42448.584806581
scalar OsgEarthNet.uav[45] utilizationSecMaintenance 16380.630184509
scalar OsgEarthNet.uav[45] utilizationSecCharge 196688.78000891
scalar OsgEarthNet.uav[45] utilizationSecIdle 3682.004
scalar OsgEarthNet.uav[45] utilizationEnergyMission 203631.52801132
scalar OsgEarthNet.uav[45] utilizationEnergyMaintenance 75447.434555054
scalar OsgEarthNet.uav[45] utilizationEnergyCharge 274844.95623779
scalar OsgEarthNet.uav[45] utilizationEnergyOverdrawMission 0
scalar OsgEarthNet.uav[45] utilizationEnergyOverdrawMaintenance 0
scalar OsgEarthNet.uav[45] utilizationCountMissions 60
scalar OsgEarthNet.uav[45] utilizationCountManeuversMission 1166
scalar OsgEarthNet.uav[45] utilizationCountManeuversMaintenance 120
scalar OsgEarthNet.uav[45] utilizationCountChargeState 60
scalar OsgEarthNet.uav[45] utilizationCountOverdrawnAfterMission 0
scalar OsgEarthNet.uav[45] utilizationCountIdleState 12
scalar OsgEarthNet.uav[45] utilizationFail 0
scalar OsgEarthNet.uav[45] simulationTime 259200
scalar OsgEarthNet.uav[46] utilizationSecMission 11054.634106813
scalar OsgEarthNet.uav[46] utilizationSecMaintenance 6950.1927327177
scalar OsgEarthNet.uav[46] utilizationSecCharge 65313.16616047
scalar OsgEarthNet.uav[46] utilizationSecIdle 175882.006
scalar OsgEarthNet.uav[46] utilizationEnergyMission 53510.34299469
scalar OsgEarthNet.uav[46] utilizationEnergyMaintenance 33066.402164459
scalar OsgEarthNet.uav[46] utilizationEnergyCharge 85284.40625
scalar OsgEarthNet.uav[46] utilizationEnergyOverdrawMission 0
scalar OsgEarthNet.uav[46] utilizationEnergyOverdrawMaintenance 0
scalar OsgEarthNet.uav[46] utilizationCountMissions 19
scalar OsgEarthNet.uav[46] utilizationCountManeuversMission 366
scalar OsgEarthNet.uav[46] utilizationCountManeuversMaintenance 38
scalar OsgEarthNet.uav[46] utilizationCountChargeState 19
scalar OsgEarthNet.uav[46] utilizationCountOverdrawnAfterMission 0
scalar OsgEarthNet.uav[46] utilizationCountIdleState 19
scalar OsgEarthNet.uav[46] utilizationFail 0
scalar OsgEarthNet.uav[46] simulationTime 259200
scalar OsgEarthNet.uav[47] utilizationSecMission 19164.837872142
scalar OsgEarthNet.uav[47] utilizationSecMaintenance 12024.980586551
scalar OsgEarthNet.uav[47] utilizationSecCharge 118036.4185538
scalar OsgEarthNet.uav[47] utilizationSecIdle 109973.76198751
scalar OsgEarthNet.uav[47] utilizationEnergyMission 93057.826911926
scalar OsgEarthNet.uav[47] utilizationEnergyMaintenance 57112.148628235
scalar OsgEarthNet.uav[47] utilizationEnergyCharge 147920.83544922
scalar OsgEarthNet.uav[47] utilizationEnergyOverdrawMission 0
scalar OsgEarthNet.uav[47] utilizationEnergyOverdrawMaintenance 0
scalar OsgEarthNet.uav[47] utilizationCountMissions 37
scalar OsgEarthNet.uav[47] utilizationCountManeuversMission 557
scalar OsgEarthNet.uav[47] utilizationCountManeuversMaintenance 74
scalar OsgEarthNet.uav[47] utilizationCountChargeState 37
scalar OsgEarthNet.uav[47] utilizationCountOverdrawnAfterMission 0
scalar OsgEarthNet.uav[47] utilizationCountIdleState 37
scalar OsgEarthNet.uav[47] utilizationFail 0
scalar OsgEarthNet.uav[47] simulationTime 259200
scalar OsgEarthNet.uav[48] utilizationSecMission 41680.304342301
scalar OsgEarthNet.uav[48] utilizationSecMaintenance 16758.242481142
scalar OsgEarthNet.uav[48] utilizationSecCharge 197399.45017656
scalar OsgEarthNet.uav[48] utilizationSecIdle 3362.002
scalar OsgEarthNet.uav[48] utilizationEnergyMission 200121.6698494
scalar OsgEarthNet.uav[48] utilizationEnergyMaintenance 76709.541534424
scalar OsgEarthNet.uav[48] utilizationEnergyCharge 274972.76708984
scalar OsgEarthNet.uav[48] utilizationEnergyOverdrawMission 0
scalar OsgEarthNet.uav[48] utilizationEnergyOverdrawMaintenance 0
scalar OsgEarthNet.uav[48] utilizationCountMissions 60
scalar OsgEarthNet.uav[48] utilizationCountManeuversMission 1147
scalar OsgEarthNet.uav[48] utilizationCountManeuversMaintenance 120
scalar OsgEarthNet.uav[48] utilizationCountChargeState 60
scalar OsgEarthNet.uav[48] utilizationCountOverdrawnAfterMission 0
scalar OsgEarthNet.uav[48] utilizationCountIdleState 15
scalar OsgEarthNet.uav[48] utilizationFail 0
scalar OsgEarthNet.uav[48] simulationTime 259200
scalar OsgEarthNet.uav[49] utilizationSecMission 11903.750915482
scalar OsgEarthNet.uav[49] utilizationSecMaintenance 8754.5600736759
scalar OsgEarthNet.uav[49] utilizationSecCharge 76984.479331864
scalar OsgEarthNet.uav[49] utilizationSecIdle 161557.20867898
scalar OsgEarthNet.uav[49] utilizationEnergyMission 57672.079631805
scalar OsgEarthNet.uav[49] utilizationEnergyMaintenance 41080.955085754
scalar OsgEarthNet.uav[49] utilizationEnergyCharge 100364.21484375
scalar OsgEarthNet.uav[49] utilizationEnergyOverdrawMission 0
scalar OsgEarthNet.uav[49] utilizationEnergyOverdrawMaintenance 0
scalar OsgEarthNet.uav[49] utilizationCountMissions 22
scalar OsgEarthNet.uav[49] utilizationCountManeuversMission 439
scalar OsgEarthNet.uav[49] utilizationCountManeuversMaintenance 44
scalar OsgEarthNet.uav[49] utilizationCountChargeState 22
scalar OsgEarthNet.uav[49] utilizationCountOverdrawnAfterMission 0
scalar OsgEarthNet.uav[49] utilizationCountIdleState 22
scalar OsgEarthNet.uav[49] utilizationFail 0
scalar OsgEarthNet.uav[49] simulationTime 259200
scalar OsgEarthNet.uav[50] utilizationSecMission 11645.001220642
scalar OsgEarthNet.uav[50] utilizationSecMaintenance 7351.20558655
scalar OsgEarthNet.uav[50] utilizationSecCharge 70820
scalar OsgEarthNet.uav[50] utilizationSecIdle 169383.79219281
scalar OsgEarthNet.uav[50] utilizationEnergyMission 55708.057739258
scalar OsgEarthNet.uav[50] utilizationEnergyMaintenance 34987.758865356
scalar OsgEarthNet.uav[50] utilizationEnergyCharge 91469.932128906
scalar OsgEarthNet.uav[50] utilizationEnergyOverdrawMission 0
scalar OsgEarthNet.uav[50] utilizationEnergyOverdrawMaintenance 0
scalar OsgEarthNet.uav[50] utilizationCountMissions 20
scalar OsgEarthNet.uav[50] utilizationCountManeuversMission 374
scalar OsgEarthNet.uav[50] utilizationCountManeuversMaintenance 40
scalar OsgEarthNet.uav[50] utilizationCountChargeState 20
scalar OsgEarthNet.uav[50] utilizationCountOverdrawnAfterMission 0
scalar OsgEarthNet.uav[50] utilizationCountIdleState 21
scalar OsgEarthNet.uav[50] utilizationFail 0
scalar OsgEarthNet.uav[50] simulationTime 259200
scalar OsgEarthNet.uav[51] utilizationSecMission 19397.110047729
scalar OsgEarthNet.uav[51] utilizationSecMaintenance 13972.192141878
scalar OsgEarthNet.uav[51] utilizationSecCharge 130407.97234393
scalar OsgEarthNet.uav[51] utilizationSecIdle 95422.724466459
scalar OsgEarthNet.uav[51] utilizationEnergyMission 94732.813907623
scalar OsgEarthNet.uav[51] utilizationEnergyMaintenance 67458.580417633
scalar OsgEarthNet.uav[51] utilizationEnergyCharge 161092.56005859
scalar OsgEarthNet.uav[51] utilizationEnergyOverdrawMission 0
scalar OsgEarthNet.uav[51] utilizationEnergyOverdrawMaintenance 0
scalar OsgEarthNet.uav[51] utilizationCountMissions 42
scalar OsgEarthNet.uav[51] utilizationCountManeuversMission 641
scalar OsgEarthNet.uav[51] utilizationCountManeuversMaintenance 84
scalar OsgEarthNet.uav[51] utilizationCountChargeState 42
scalar OsgEarthNet.uav[51] utilizationCountOverdrawnAfterMission 0
scalar OsgEarthNet.uav[51] utilizationCountIdleState 42
scalar OsgEarthNet.uav[51] utilizationFail 0
scalar OsgEarthNet.uav[51] simulationTime 259200
scalar OsgEarthNet.uav[52] utilizationSecMission 41147.172169421
scalar OsgEarthNet.uav[52] utilizationSecMaintenance 17273.651720168
scalar OsgEarthNet.uav[52] utilizationSecCharge 197470
scalar OsgEarthNet.uav[52] utilizationSecIdle 3309.1751104107
scalar OsgEarthNet.uav[52] utilizationEnergyMission 198634.68362041
scalar OsgEarthNet.uav[52] utilizationEnergyMaintenance 78384.5756073
scalar OsgEarthNet.uav[52] utilizationEnergyCharge 276492.32373047
scalar OsgEarthNet.uav[52] utilizationEnergyOverdrawMission 0
scalar OsgEarthNet.uav[52] utilizationEnergyOverdrawMaintenance 0
scalar OsgEarthNet.uav[52] utilizationCountMissions 60
scalar OsgEarthNet.uav[52] utilizationCountManeuversMission 1213
scalar OsgEarthNet.uav[52] utilizationCountManeuversMaintenance 121
scalar OsgEarthNet.uav[52] utilizationCountChargeState 60
scalar OsgEarthNet.uav[52] utilizationCountOverdrawnAfterMission 0
scalar OsgEarthNet.uav[52] utilizationCountIdleState 17
scalar OsgEarthNet.uav[52] utilizationFail 0
scalar OsgEarthNet.uav[52] simulationTime 259200
scalar OsgEarthNet.uav[53] utilizationSecMission 10334.118029311
scalar OsgEarthNet.uav[53] utilizationSecMaintenance 6481.5776834147
scalar OsgEarthNet.uav[53] utilizationSecCharge 62930
scalar OsgEarthNet.uav[53] utilizationSecIdle 179454.30328727
scalar OsgEarthNet.uav[53] utilizationEnergyMission 49787.915859222
scalar OsgEarthNet.uav[53] utilizationEnergyMaintenance 31089.860435486
scalar OsgEarthNet.uav[53] utilizationEnergyCharge 81070.447753906
scalar OsgEarthNet.uav[53] utilizationEnergyOverdrawMission 0
scalar OsgEarthNet.uav[53] utilizationEnergyOverdrawMaintenance 0
scalar OsgEarthNet.uav[53] utilizationCountMissions 18
scalar OsgEarthNet.uav[53] utilizationCountManeuversMission 339
scalar OsgEarthNet.uav[53] utilizationCountManeuversMaintenance 36
scalar OsgEarthNet.uav[53] utilizationCountChargeState 18
scalar OsgEarthNet.uav[53] utilizationCountOverdrawnAfterMission 0
scalar OsgEarthNet.uav[53] utilizationCountIdleState 19
scalar OsgEarthNet.uav[53] utilizationFail 0
scalar OsgEarthNet.uav[53] simulationTime 259200
scalar OsgEarthNet.uav[54] utilizationSecMission 19131.709655231
scalar OsgEarthNet.uav[54] utilizationSecMaintenance 13966.285344769
scalar OsgEarthNet.uav[54] utilizationSecCharge 127940
scalar OsgEarthNet.uav[54] utilizationSecIdle 98162.004
scalar OsgEarthNet.uav[54] utilizationEnergyMission 94214.012226105
scalar OsgEarthNet.uav[54] utilizationEnergyMaintenance 66512.714902211
scalar OsgEarthNet.uav[54] utilizationEnergyCharge 160124.49389648
scalar OsgEarthNet.uav[54] utilizationEnergyOverdrawMission 0
scalar OsgEarthNet.uav[54] utilizationEnergyOverdrawMaintenance 0
scalar OsgEarthNet.uav[54] utilizationCountMissions 40
scalar OsgEarthNet.uav[54] utilizationCountManeuversMission 747
scalar OsgEarthNet.uav[54] utilizationCountManeuversMaintenance 80
scalar OsgEarthNet.uav[54] utilizationCountChargeState 39
scalar OsgEarthNet.uav[54] utilizationCountOverdrawnAfterMission 0
scalar OsgEarthNet.uav[54] utilizationCountIdleState 40
scalar OsgEarthNet.uav[54] utilizationFail 0
scalar OsgEarthNet.uav[54] simulationTime 259200
scalar OsgEarthNet.uav[55] utilizationSecMission 41345.079560289
scalar OsgEarthNet.uav[55] utilizationSecMaintenance 17045.679230672
scalar OsgEarthNet.uav[55] utilizationSecCharge 195992.5348465
scalar OsgEarthNet.uav[55] utilizationSecIdle 4816.705362542
scalar OsgEarthNet.uav[55] utilizationEnergyMission 197172.77576447
scalar OsgEarthNet.uav[55] utilizationEnergyMaintenance 78190.24609375
scalar OsgEarthNet.uav[55] utilizationEnergyCharge 274395.83276367
scalar OsgEarthNet.uav[55] utilizationEnergyOverdrawMission 0
scalar OsgEarthNet.uav[55] utilizationEnergyOverdrawMaintenance 0
scalar OsgEarthNet.uav[55] utilizationCountMissions 60
scalar OsgEarthNet.uav[55] utilizationCountManeuversMission 1159
scalar OsgEarthNet.uav[55] utilizationCountManeuversMaintenance 120
scalar OsgEarthNet.uav[55] utilizationCountChargeState 60
scalar OsgEarthNet.uav[55] utilizationCountOverdrawnAfterMission 0
scalar OsgEarthNet.uav[55] utilizationCountIdleState 16
scalar OsgEarthNet.uav[55] utilizationFail 0
scalar OsgEarthNet.uav[55] simulationTime 259200
scalar OsgEarthNet.uav[56] utilizationSecMission 12776.509564553
scalar OsgEarthNet.uav[56] utilizationSecMaintenance 7092.3196362771
scalar OsgEarthNet.uav[56] utilizationSecCharge 73790
scalar OsgEarthNet.uav[56] utilizationSecIdle 165541.16979917
scalar OsgEarthNet.uav[56] utilizationEnergyMission 60895.385936737
scalar OsgEarthNet.uav[56] utilizationEnergyMaintenance 34239.915992737
scalar OsgEarthNet.uav[56] utilizationEnergyCharge 94990.312011719
scalar OsgEarthNet.uav[56] utilizationEnergyOverdrawMission 0
scalar OsgEarthNet.uav[56] utilizationEnergyOverdrawMaintenance 0
scalar OsgEarthNet.uav[56] utilizationCountMissions 21
scalar OsgEarthNet.uav[56] utilizationCountManeuversMission 374
scalar OsgEarthNet.uav[56] utilizationCountManeuversMaintenance 42
scalar OsgEarthNet.uav[56] utilizationCountChargeState 21
scalar OsgEarthNet.uav[56] utilizationCountOverdrawnAfterMission 0
scalar OsgEarthNet.uav[56] utilizationCountIdleState 22
scalar OsgEarthNet.uav[56] utilizationFail 0
scalar OsgEarthNet.uav[56] simulationTime 259200
scalar OsgEarthNet.uav[57] utilizationSecMission 15201.276872975
scalar OsgEarthNet.uav[57] utilizationSecMaintenance 9253.6274567057
scalar OsgEarthNet.uav[57] utilizationSecCharge 92230
scalar OsgEarthNet.uav[57] utilizationSecIdle 142515.09467032
scalar OsgEarthNet.uav[57] utilizationEnergyMission 75387.552913666
scalar OsgEarthNet.uav[57] utilizationEnergyMaintenance 44396.645755768
scalar OsgEarthNet.uav[57] utilizationEnergyCharge 119380.79931641
scalar OsgEarthNet.uav[57] utilizationEnergyOverdrawMission 0
scalar OsgEarthNet.uav[57] utilizationEnergyOverdrawMaintenance 0
scalar OsgEarthNet.uav[57] utilizationCountMissions 26
scalar OsgEarthNet.uav[57] utilizationCountManeuversMission 478
scalar OsgEarthNet.uav[57] utilizationCountManeuversMaintenance 52
scalar OsgEarthNet.uav[57] utilizationCountChargeState 26
scalar OsgEarthNet.uav[57] utilizationCountOverdrawnAfterMission 0
scalar OsgEarthNet.uav[57] utilizationCountIdleState 27
scalar OsgEarthNet.uav[57] utilizationFail 0
scalar OsgEarthNet.uav[57] simulationTime 259200
scalar OsgEarthNet.uav[58] utilizationSecMission 40941.298659047
scalar OsgEarthNet.uav[58] utilizationSecMaintenance 17228.353129
scalar OsgEarthNet.uav[58] utilizationSecCharge 195500.30466454
scalar OsgEarthNet.uav[58] utilizationSecIdle 5530.0425474148
scalar OsgEarthNet.uav[58] utilizationEnergyMission 196039.01089096
scalar OsgEarthNet.uav[58] utilizationEnergyMaintenance 80340.368438721
scalar OsgEarthNet.uav[58] utilizationEnergyCharge 271811.97918701
scalar OsgEarthNet.uav[58] utilizationEnergyOverdrawMission 0
scalar OsgEarthNet.uav[58] utilizationEnergyOverdrawMaintenance 0
scalar OsgEarthNet.uav[58] utilizationCountMissions 60
scalar OsgEarthNet.uav[58] utilizationCountManeuversMission 1116
scalar OsgEarthNet.uav[58] utilizationCountManeuversMaintenance 120
scalar OsgEarthNet.uav[58] utilizationCountChargeState 60
scalar OsgEarthNet.uav[58] utilizationCountOverdrawnAfterMission 0
scalar OsgEarthNet.uav[58] utilizationCountIdleState 14
scalar OsgEarthNet.uav[58] utilizationFail 0
scalar OsgEarthNet.uav[58] simulationTime 259200
scalar OsgEarthNet.uav[59] utilizationSecMission 23640.932634381
scalar OsgEarthNet.uav[59] utilizationSecMaintenance 13610.892433747
scalar OsgEarthNet.uav[59] utilizationSecCharge 135096.17393187
scalar OsgEarthNet.uav[59] utilizationSecIdle 86852
scalar OsgEarthNet.uav[59] utilizationEnergyMission 113339.41892624
scalar OsgEarthNet.uav[59] utilizationEnergyMaintenance 64397.314350128
scalar OsgEarthNet.uav[59] utilizationEnergyCharge 174974.97045898
scalar OsgEarthNet.uav[59] utilizationEnergyOverdrawMission 0
scalar OsgEarthNet.uav[59] utilizationEnergyOverdrawMaintenance 0
scalar OsgEarthNet.uav[59] utilizationCountMissions 39
scalar OsgEarthNet.uav[59] utilizationCountManeuversMission 713
scalar OsgEarthNet.uav[59] utilizationCountManeuversMaintenance 77
scalar OsgEarthNet.uav[59] utilizationCountChargeState 39
scalar OsgEarthNet.uav[59] utilizationCountOverdrawnAfterMission 0
scalar OsgEarthNet.uav[59] utilizationCountIdleState 39
scalar OsgEarthNet.uav[59] utilizationFail 0
scalar OsgEarthNet.uav[59] simulationTime 259200
scalar OsgEarthNet.uav[60] utilizationSecMission 21790.002441285
scalar OsgEarthNet.uav[60] utilizationSecMaintenance 13185.682775195
scalar OsgEarthNet.uav[60] utilizationSecCharge 128972.31278352
scalar OsgEarthNet.uav[60] utilizationSecIdle 95252.001
scalar OsgEarthNet.uav[60] utilizationEnergyMission 104341.70035934
scalar OsgEarthNet.uav[60] utilizationEnergyMaintenance 62934.666957855
scalar OsgEarthNet.uav[60] utilizationEnergyCharge 167584.62451172
scalar OsgEarthNet.uav[60] utilizationEnergyOverdrawMission 0
scalar OsgEarthNet.uav[60] utilizationEnergyOverdrawMaintenance 0
scalar OsgEarthNet.uav[60] utilizationCountMissions 37
scalar OsgEarthNet.uav[60] utilizationCountManeuversMission 673
scalar OsgEarthNet.uav[60] utilizationCountManeuversMaintenance 74
scalar OsgEarthNet.uav[60] utilizationCountChargeState 37
scalar OsgEarthNet.uav[60] utilizationCountOverdrawnAfterMission 0
scalar OsgEarthNet.uav[60] utilizationCountIdleState 37
scalar OsgEarthNet.uav[60] utilizationFail 0
scalar OsgEarthNet.uav[60] simulationTime 259200
scalar OsgEarthNet.uav[61] utilizationSecMission 20304.40985148
scalar OsgEarthNet.uav[61] utilizationSecMaintenance 14796.893759008
scalar OsgEarthNet.uav[61] utilizationSecCharge 137350
scalar OsgEarthNet.uav[61] utilizationSecIdle 86748.695389512
scalar OsgEarthNet.uav[61] utilizationEnergyMission 101333.66680908
scalar OsgEarthNet.uav[61] utilizationEnergyMaintenance 70515.109989166
scalar OsgEarthNet.uav[61] utilizationEnergyCharge 170219.99951172
scalar OsgEarthNet.uav[61] utilizationEnergyOverdrawMission 0
scalar OsgEarthNet.uav[61] utilizationEnergyOverdrawMaintenance 0
scalar OsgEarthNet.uav[61] utilizationCountMissions 43
scalar OsgEarthNet.uav[61] utilizationCountManeuversMission 746
scalar OsgEarthNet.uav[61] utilizationCountManeuversMaintenance 86
scalar OsgEarthNet.uav[61] utilizationCountChargeState 43
scalar OsgEarthNet.uav[61] utilizationCountOverdrawnAfterMission 0
scalar OsgEarthNet.uav[61] utilizationCountIdleState 44
scalar OsgEarthNet.uav[61] utilizationFail 0
scalar OsgEarthNet.uav[61] simulationTime 259200
scalar OsgEarthNet.uav[62] utilizationSecMission 41079.303637835
scalar OsgEarthNet.uav[62] utilizationSecMaintenance 17424.260993793
scalar OsgEarthNet.uav[62] utilizationSecCharge 198334.43436837
scalar OsgEarthNet.uav[62] utilizationSecIdle 2362
scalar OsgEarthNet.uav[62] utilizationEnergyMission 196708.32835722
scalar OsgEarthNet.uav[62] utilizationEnergyMaintenance 80926.130432129
scalar OsgEarthNet.uav[62] utilizationEnergyCharge 277513.37060547
scalar OsgEarthNet.uav[62] utilizationEnergyOverdrawMission 0
scalar OsgEarthNet.uav[62] utilizationEnergyOverdrawMaintenance 0
scalar OsgEarthNet.uav[62] utilizationCountMissions 60
scalar OsgEarthNet.uav[62] utilizationCountManeuversMission 1215
scalar OsgEarthNet.uav[62] utilizationCountManeuversMaintenance 119
scalar OsgEarthNet.uav[62] utilizationCountChargeState 60
scalar OsgEarthNet.uav[62] utilizationCountOverdrawnAfterMission 0
scalar OsgEarthNet.uav[62] utilizationCountIdleState 13
scalar OsgEarthNet.uav[62] utilizationFail 0
scalar OsgEarthNet.uav[62] simulationTime 259200
scalar OsgEarthNet.uav[63] utilizationSecMission 20051.128710168
scalar OsgEarthNet.uav[63] utilizationSecMaintenance 12766.7998229
scalar OsgEarthNet.uav[63] utilizationSecCharge 123530
scalar OsgEarthNet.uav[63] utilizationSecIdle 102852.07046693
scalar OsgEarthNet.uav[63] utilizationEnergyMission 96985.369544983
scalar OsgEarthNet.uav[63] utilizationEnergyMaintenance 59906.347866058
scalar OsgEarthNet.uav[63] utilizationEnergyCharge 156014.71777344
scalar OsgEarthNet.uav[63] utilizationEnergyOverdrawMission 0
scalar OsgEarthNet.uav[63] utilizationEnergyOverdrawMaintenance 0
scalar OsgEarthNet.uav[63] utilizationCountMissions 37
scalar OsgEarthNet.uav[63] utilizationCountManeuversMission 627
scalar OsgEarthNet.uav[63] utilizationCountManeuversMaintenance 74
scalar OsgEarthNet.uav[63] utilizationCountChargeState 37
scalar OsgEarthNet.uav[63] utilizationCountOverdrawnAfterMission 0
scalar OsgEarthNet.uav[63] utilizationCountIdleState 38
scalar OsgEarthNet.uav[63] utilizationFail 0
scalar OsgEarthNet.uav[63] simulationTime 259200
scalar OsgEarthNet.uav[64] utilizationSecMission 21084.001266832
scalar OsgEarthNet.uav[64] utilizationSecMaintenance 14484.270855945
scalar OsgEarthNet.uav[64] utilizationSecCharge 136663.37327434
scalar OsgEarthNet.uav[64] utilizationSecIdle 86968.353602879
scalar OsgEarthNet.uav[64] utilizationEnergyMission 101681.41308594
scalar OsgEarthNet.uav[64] utilizationEnergyMaintenance 69079.862197876
scalar OsgEarthNet.uav[64] utilizationEnergyCharge 170664.89697266
scalar OsgEarthNet.uav[64] utilizationEnergyOverdrawMission 0
scalar OsgEarthNet.uav[64] utilizationEnergyOverdrawMaintenance 0
scalar OsgEarthNet.uav[64] utilizationCountMissions 43
scalar OsgEarthNet.uav[64] utilizationCountManeuversMission 683
scalar OsgEarthNet.uav[64] utilizationCountManeuversMaintenance 86
scalar OsgEarthNet.uav[64] utilizationCountChargeState 43
scalar OsgEarthNet.uav[64] utilizationCountOverdrawnAfterMission 0
scalar OsgEarthNet.uav[64] utilizationCountIdleState 43
scalar OsgEarthNet.uav[64] utilizationFail 0
scalar OsgEarthNet.uav[64] simulationTime 259200
scalar OsgEarthNet.uav[65] utilizationSecMission 41349.34336497
scalar OsgEarthNet.uav[65] utilizationSecMaintenance 16724.261760216
scalar OsgEarthNet.uav[65] utilizationSecCharge 196245.68581745
scalar OsgEarthNet.uav[65] utilizationSecIdle 4880.7080573664
scalar OsgEarthNet.uav[65] utilizationEnergyMission 198629.54496765
[...]
scalar OsgEarthNet.uav[280] utilizationSecIdle 259199.999
scalar OsgEarthNet.uav[280] utilizationEnergyMission 0
scalar OsgEarthNet.uav[280] utilizationEnergyMaintenance 0
scalar OsgEarthNet.uav[280] utilizationEnergyCharge 0
scalar OsgEarthNet.uav[280] utilizationEnergyOverdrawMission 0
scalar OsgEarthNet.uav[280] utilizationEnergyOverdrawMaintenance 0
scalar OsgEarthNet.uav[280] utilizationCountMissions 0
scalar OsgEarthNet.uav[280] utilizationCountManeuversMission 0
scalar OsgEarthNet.uav[280] utilizationCountManeuversMaintenance 0
scalar OsgEarthNet.uav[280] utilizationCountChargeState 0
scalar OsgEarthNet.uav[280] utilizationCountOverdrawnAfterMission 0
scalar OsgEarthNet.uav[280] utilizationCountIdleState 1
scalar OsgEarthNet.uav[280] utilizationFail 0
scalar OsgEarthNet.uav[280] simulationTime 259200
scalar OsgEarthNet.uav[281] utilizationSecMission 0
scalar OsgEarthNet.uav[281] utilizationSecMaintenance 0
scalar OsgEarthNet.uav[281] utilizationSecCharge 0
scalar OsgEarthNet.uav[281] utilizationSecIdle 259199.999
scalar OsgEarthNet.uav[281] utilizationEnergyMission 0
scalar OsgEarthNet.uav[281] utilizationEnergyMaintenance 0
scalar OsgEarthNet.uav[281] utilizationEnergyCharge 0
scalar OsgEarthNet.uav[281] utilizationEnergyOverdrawMission 0
scalar OsgEarthNet.uav[281] utilizationEnergyOverdrawMaintenance 0
scalar OsgEarthNet.uav[281] utilizationCountMissions 0
scalar OsgEarthNet.uav[281] utilizationCountManeuversMission 0
scalar OsgEarthNet.uav[281] utilizationCountManeuversMaintenance 0
scalar OsgEarthNet.uav[281] utilizationCountChargeState 0
scalar OsgEarthNet.uav[281] utilizationCountOverdrawnAfterMission 0
scalar OsgEarthNet.uav[281] utilizationCountIdleState 1
scalar OsgEarthNet.uav[281] utilizationFail 0
scalar OsgEarthNet.uav[281] simulationTime 259200
scalar OsgEarthNet.uav[282] utilizationSecMission 0
scalar OsgEarthNet.uav[282] utilizationSecMaintenance 0
scalar OsgEarthNet.uav[282] utilizationSecCharge 0
scalar OsgEarthNet.uav[282] utilizationSecIdle 259199.999
scalar OsgEarthNet.uav[282] utilizationEnergyMission 0
scalar OsgEarthNet.uav[282] utilizationEnergyMaintenance 0
scalar OsgEarthNet.uav[282] utilizationEnergyCharge 0
scalar OsgEarthNet.uav[282] utilizationEnergyOverdrawMission 0
scalar OsgEarthNet.uav[282] utilizationEnergyOverdrawMaintenance 0
scalar OsgEarthNet.uav[282] utilizationCountMissions 0
scalar OsgEarthNet.uav[282] utilizationCountManeuversMission 0
scalar OsgEarthNet.uav[282] utilizationCountManeuversMaintenance 0
scalar OsgEarthNet.uav[282] utilizationCountChargeState 0
scalar OsgEarthNet.uav[282] utilizationCountOverdrawnAfterMission 0
scalar OsgEarthNet.uav[282] utilizationCountIdleState 1
scalar OsgEarthNet.uav[282] utilizationFail 0
scalar OsgEarthNet.uav[282] simulationTime 259200
scalar OsgEarthNet.uav[283] utilizationSecMission 0
scalar OsgEarthNet.uav[283] utilizationSecMaintenance 0
scalar OsgEarthNet.uav[283] utilizationSecCharge 0
scalar OsgEarthNet.uav[283] utilizationSecIdle 259199.999
scalar OsgEarthNet.uav[283] utilizationEnergyMission 0
scalar OsgEarthNet.uav[283] utilizationEnergyMaintenance 0
scalar OsgEarthNet.uav[283] utilizationEnergyCharge 0
scalar OsgEarthNet.uav[283] utilizationEnergyOverdrawMission 0
scalar OsgEarthNet.uav[283] utilizationEnergyOverdrawMaintenance 0
scalar OsgEarthNet.uav[283] utilizationCountMissions 0
scalar OsgEarthNet.uav[283] utilizationCountManeuversMission 0
scalar OsgEarthNet.uav[283] utilizationCountManeuversMaintenance 0
scalar OsgEarthNet.uav[283] utilizationCountChargeState 0
scalar OsgEarthNet.uav[283] utilizationCountOverdrawnAfterMission 0
scalar OsgEarthNet.uav[283] utilizationCountIdleState 1
scalar OsgEarthNet.uav[283] utilizationFail 0
scalar OsgEarthNet.uav[283] simulationTime 259200
scalar OsgEarthNet.uav[284] utilizationSecMission 0
scalar OsgEarthNet.uav[284] utilizationSecMaintenance 0
scalar OsgEarthNet.uav[284] utilizationSecCharge 0
scalar OsgEarthNet.uav[284] utilizationSecIdle 259199.999
scalar OsgEarthNet.uav[284] utilizationEnergyMission 0
scalar OsgEarthNet.uav[284] utilizationEnergyMaintenance 0
scalar OsgEarthNet.uav[284] utilizationEnergyCharge 0
scalar OsgEarthNet.uav[284] utilizationEnergyOverdrawMission 0
scalar OsgEarthNet.uav[284] utilizationEnergyOverdrawMaintenance 0
scalar OsgEarthNet.uav[284] utilizationCountMissions 0
scalar OsgEarthNet.uav[284] utilizationCountManeuversMission 0
scalar OsgEarthNet.uav[284] utilizationCountManeuversMaintenance 0
scalar OsgEarthNet.uav[284] utilizationCountChargeState 0
scalar OsgEarthNet.uav[284] utilizationCountOverdrawnAfterMission 0
scalar OsgEarthNet.uav[284] utilizationCountIdleState 1
scalar OsgEarthNet.uav[284] utilizationFail 0
scalar OsgEarthNet.uav[284] simulationTime 259200
scalar OsgEarthNet.uav[285] utilizationSecMission 0
scalar OsgEarthNet.uav[285] utilizationSecMaintenance 0
scalar OsgEarthNet.uav[285] utilizationSecCharge 0
scalar OsgEarthNet.uav[285] utilizationSecIdle 259199.999
scalar OsgEarthNet.uav[285] utilizationEnergyMission 0
scalar OsgEarthNet.uav[285] utilizationEnergyMaintenance 0
scalar OsgEarthNet.uav[285] utilizationEnergyCharge 0
scalar OsgEarthNet.uav[285] utilizationEnergyOverdrawMission 0
scalar OsgEarthNet.uav[285] utilizationEnergyOverdrawMaintenance 0
scalar OsgEarthNet.uav[285] utilizationCountMissions 0
scalar OsgEarthNet.uav[285] utilizationCountManeuversMission 0
scalar OsgEarthNet.uav[285] utilizationCountManeuversMaintenance 0
scalar OsgEarthNet.uav[285] utilizationCountChargeState 0
scalar OsgEarthNet.uav[285] utilizationCountOverdrawnAfterMission 0
scalar OsgEarthNet.uav[285] utilizationCountIdleState 1
scalar OsgEarthNet.uav[285] utilizationFail 0
scalar OsgEarthNet.uav[285] simulationTime 259200
scalar OsgEarthNet.uav[286] utilizationSecMission 0
scalar OsgEarthNet.uav[286] utilizationSecMaintenance 0
scalar OsgEarthNet.uav[286] utilizationSecCharge 0
scalar OsgEarthNet.uav[286] utilizationSecIdle 259199.999
scalar OsgEarthNet.uav[286] utilizationEnergyMission 0
scalar OsgEarthNet.uav[286] utilizationEnergyMaintenance 0
scalar OsgEarthNet.uav[286] utilizationEnergyCharge 0
scalar OsgEarthNet.uav[286] utilizationEnergyOverdrawMission 0
scalar OsgEarthNet.uav[286] utilizationEnergyOverdrawMaintenance 0
scalar OsgEarthNet.uav[286] utilizationCountMissions 0
scalar OsgEarthNet.uav[286] utilizationCountManeuversMission 0
scalar OsgEarthNet.uav[286] utilizationCountManeuversMaintenance 0
scalar OsgEarthNet.uav[286] utilizationCountChargeState 0
scalar OsgEarthNet.uav[286] utilizationCountOverdrawnAfterMission 0
scalar OsgEarthNet.uav[286] utilizationCountIdleState 1
scalar OsgEarthNet.uav[286] utilizationFail 0
scalar OsgEarthNet.uav[286] simulationTime 259200
scalar OsgEarthNet.uav[287] utilizationSecMission 0
scalar OsgEarthNet.uav[287] utilizationSecMaintenance 0
scalar OsgEarthNet.uav[287] utilizationSecCharge 0
scalar OsgEarthNet.uav[287] utilizationSecIdle 259199.999
scalar OsgEarthNet.uav[287] utilizationEnergyMission 0
scalar OsgEarthNet.uav[287] utilizationEnergyMaintenance 0
scalar OsgEarthNet.uav[287] utilizationEnergyCharge 0
scalar OsgEarthNet.uav[287] utilizationEnergyOverdrawMission 0
scalar OsgEarthNet.uav[287] utilizationEnergyOverdrawMaintenance 0
scalar OsgEarthNet.uav[287] utilizationCountMissions 0
scalar OsgEarthNet.uav[287] utilizationCountManeuversMission 0
scalar OsgEarthNet.uav[287] utilizationCountManeuversMaintenance 0
scalar OsgEarthNet.uav[287] utilizationCountChargeState 0
scalar OsgEarthNet.uav[287] utilizationCountOverdrawnAfterMission 0
scalar OsgEarthNet.uav[287] utilizationCountIdleState 1
scalar OsgEarthNet.uav[287] utilizationFail 0
scalar OsgEarthNet.uav[287] simulationTime 259200
scalar OsgEarthNet.uav[288] utilizationSecMission 0
scalar OsgEarthNet.uav[288] utilizationSecMaintenance 0
scalar OsgEarthNet.uav[288] utilizationSecCharge 0
scalar OsgEarthNet.uav[288] utilizationSecIdle 259199.999
scalar OsgEarthNet.uav[288] utilizationEnergyMission 0
scalar OsgEarthNet.uav[288] utilizationEnergyMaintenance 0
scalar OsgEarthNet.uav[288] utilizationEnergyCharge 0
scalar OsgEarthNet.uav[288] utilizationEnergyOverdrawMission 0
scalar OsgEarthNet.uav[288] utilizationEnergyOverdrawMaintenance 0
scalar OsgEarthNet.uav[288] utilizationCountMissions 0
scalar OsgEarthNet.uav[288] utilizationCountManeuversMission 0
scalar OsgEarthNet.uav[288] utilizationCountManeuversMaintenance 0
scalar OsgEarthNet.uav[288] utilizationCountChargeState 0
scalar OsgEarthNet.uav[288] utilizationCountOverdrawnAfterMission 0
scalar OsgEarthNet.uav[288] utilizationCountIdleState 1
scalar OsgEarthNet.uav[288] utilizationFail 0
scalar OsgEarthNet.uav[288] simulationTime 259200
scalar OsgEarthNet.uav[289] utilizationSecMission 0
scalar OsgEarthNet.uav[289] utilizationSecMaintenance 0
scalar OsgEarthNet.uav[289] utilizationSecCharge 0
scalar OsgEarthNet.uav[289] utilizationSecIdle 259199.999
scalar OsgEarthNet.uav[289] utilizationEnergyMission 0
scalar OsgEarthNet.uav[289] utilizationEnergyMaintenance 0
scalar OsgEarthNet.uav[289] utilizationEnergyCharge 0
scalar OsgEarthNet.uav[289] utilizationEnergyOverdrawMission 0
scalar OsgEarthNet.uav[289] utilizationEnergyOverdrawMaintenance 0
scalar OsgEarthNet.uav[289] utilizationCountMissions 0
scalar OsgEarthNet.uav[289] utilizationCountManeuversMission 0
scalar OsgEarthNet.uav[289] utilizationCountManeuversMaintenance 0
scalar OsgEarthNet.uav[289] utilizationCountChargeState 0
scalar OsgEarthNet.uav[289] utilizationCountOverdrawnAfterMission 0
scalar OsgEarthNet.uav[289] utilizationCountIdleState 1
scalar OsgEarthNet.uav[289] utilizationFail 0
scalar OsgEarthNet.uav[289] simulationTime 259200
scalar OsgEarthNet.uav[290] utilizationSecMission 0
scalar OsgEarthNet.uav[290] utilizationSecMaintenance 0
scalar OsgEarthNet.uav[290] utilizationSecCharge 0
scalar OsgEarthNet.uav[290] utilizationSecIdle 259199.999
scalar OsgEarthNet.uav[290] utilizationEnergyMission 0
scalar OsgEarthNet.uav[290] utilizationEnergyMaintenance 0
scalar OsgEarthNet.uav[290] utilizationEnergyCharge 0
scalar OsgEarthNet.uav[290] utilizationEnergyOverdrawMission 0
scalar OsgEarthNet.uav[290] utilizationEnergyOverdrawMaintenance 0
scalar OsgEarthNet.uav[290] utilizationCountMissions 0
scalar OsgEarthNet.uav[290] utilizationCountManeuversMission 0
scalar OsgEarthNet.uav[290] utilizationCountManeuversMaintenance 0
scalar OsgEarthNet.uav[290] utilizationCountChargeState 0
scalar OsgEarthNet.uav[290] utilizationCountOverdrawnAfterMission 0
scalar OsgEarthNet.uav[290] utilizationCountIdleState 1
scalar OsgEarthNet.uav[290] utilizationFail 0
scalar OsgEarthNet.uav[290] simulationTime 259200
scalar OsgEarthNet.uav[291] utilizationSecMission 0
scalar OsgEarthNet.uav[291] utilizationSecMaintenance 0
scalar OsgEarthNet.uav[291] utilizationSecCharge 0
scalar OsgEarthNet.uav[291] utilizationSecIdle 259199.999
scalar OsgEarthNet.uav[291] utilizationEnergyMission 0
scalar OsgEarthNet.uav[291] utilizationEnergyMaintenance 0
scalar OsgEarthNet.uav[291] utilizationEnergyCharge 0
scalar OsgEarthNet.uav[291] utilizationEnergyOverdrawMission 0
scalar OsgEarthNet.uav[291] utilizationEnergyOverdrawMaintenance 0
scalar OsgEarthNet.uav[291] utilizationCountMissions 0
scalar OsgEarthNet.uav[291] utilizationCountManeuversMission 0
scalar OsgEarthNet.uav[291] utilizationCountManeuversMaintenance 0
scalar OsgEarthNet.uav[291] utilizationCountChargeState 0
scalar OsgEarthNet.uav[291] utilizationCountOverdrawnAfterMission 0
scalar OsgEarthNet.uav[291] utilizationCountIdleState 1
scalar OsgEarthNet.uav[291] utilizationFail 0
scalar OsgEarthNet.uav[291] simulationTime 259200
scalar OsgEarthNet.uav[292] utilizationSecMission 0
scalar OsgEarthNet.uav[292] utilizationSecMaintenance 0
scalar OsgEarthNet.uav[292] utilizationSecCharge 0
scalar OsgEarthNet.uav[292] utilizationSecIdle 259199.999
scalar OsgEarthNet.uav[292] utilizationEnergyMission 0
scalar OsgEarthNet.uav[292] utilizationEnergyMaintenance 0
scalar OsgEarthNet.uav[292] utilizationEnergyCharge 0
scalar OsgEarthNet.uav[292] utilizationEnergyOverdrawMission 0
scalar OsgEarthNet.uav[292] utilizationEnergyOverdrawMaintenance 0
scalar OsgEarthNet.uav[292] utilizationCountMissions 0
scalar OsgEarthNet.uav[292] utilizationCountManeuversMission 0
scalar OsgEarthNet.uav[292] utilizationCountManeuversMaintenance 0
scalar OsgEarthNet.uav[292] utilizationCountChargeState 0
scalar OsgEarthNet.uav[292] utilizationCountOverdrawnAfterMission 0
scalar OsgEarthNet.uav[292] utilizationCountIdleState 1
scalar OsgEarthNet.uav[292] utilizationFail 0
scalar OsgEarthNet.uav[292] simulationTime 259200
scalar OsgEarthNet.uav[293] utilizationSecMission 0
scalar OsgEarthNet.uav[293] utilizationSecMaintenance 0
scalar OsgEarthNet.uav[293] utilizationSecCharge 0
scalar OsgEarthNet.uav[293] utilizationSecIdle 259199.999
scalar OsgEarthNet.uav[293] utilizationEnergyMission 0
scalar OsgEarthNet.uav[293] utilizationEnergyMaintenance 0
scalar OsgEarthNet.uav[293] utilizationEnergyCharge 0
scalar OsgEarthNet.uav[293] utilizationEnergyOverdrawMission 0
scalar OsgEarthNet.uav[293] utilizationEnergyOverdrawMaintenance 0
scalar OsgEarthNet.uav[293] utilizationCountMissions 0
scalar OsgEarthNet.uav[293] utilizationCountManeuversMission 0
scalar OsgEarthNet.uav[293] utilizationCountManeuversMaintenance 0
scalar OsgEarthNet.uav[293] utilizationCountChargeState 0
scalar OsgEarthNet.uav[293] utilizationCountOverdrawnAfterMission 0
scalar OsgEarthNet.uav[293] utilizationCountIdleState 1
scalar OsgEarthNet.uav[293] utilizationFail 0
scalar OsgEarthNet.uav[293] simulationTime 259200
scalar OsgEarthNet.uav[294] utilizationSecMission 0
scalar OsgEarthNet.uav[294] utilizationSecMaintenance 0
scalar OsgEarthNet.uav[294] utilizationSecCharge 0
scalar OsgEarthNet.uav[294] utilizationSecIdle 259199.999
scalar OsgEarthNet.uav[294] utilizationEnergyMission 0
scalar OsgEarthNet.uav[294] utilizationEnergyMaintenance 0
scalar OsgEarthNet.uav[294] utilizationEnergyCharge 0
scalar OsgEarthNet.uav[294] utilizationEnergyOverdrawMission 0
scalar OsgEarthNet.uav[294] utilizationEnergyOverdrawMaintenance 0
scalar OsgEarthNet.uav[294] utilizationCountMissions 0
scalar OsgEarthNet.uav[294] utilizationCountManeuversMission 0
scalar OsgEarthNet.uav[294] utilizationCountManeuversMaintenance 0
scalar OsgEarthNet.uav[294] utilizationCountChargeState 0
scalar OsgEarthNet.uav[294] utilizationCountOverdrawnAfterMission 0
scalar OsgEarthNet.uav[294] utilizationCountIdleState 1
scalar OsgEarthNet.uav[294] utilizationFail 0
scalar OsgEarthNet.uav[294] simulationTime 259200
scalar OsgEarthNet.uav[295] utilizationSecMission 0
scalar OsgEarthNet.uav[295] utilizationSecMaintenance 0
scalar OsgEarthNet.uav[295] utilizationSecCharge 0
scalar OsgEarthNet.uav[295] utilizationSecIdle 259199.999
scalar OsgEarthNet.uav[295] utilizationEnergyMission 0
scalar OsgEarthNet.uav[295] utilizationEnergyMaintenance 0
scalar OsgEarthNet.uav[295] utilizationEnergyCharge 0
scalar OsgEarthNet.uav[295] utilizationEnergyOverdrawMission 0
scalar OsgEarthNet.uav[295] utilizationEnergyOverdrawMaintenance 0
scalar OsgEarthNet.uav[295] utilizationCountMissions 0
scalar OsgEarthNet.uav[295] utilizationCountManeuversMission 0
scalar OsgEarthNet.uav[295] utilizationCountManeuversMaintenance 0
scalar OsgEarthNet.uav[295] utilizationCountChargeState 0
scalar OsgEarthNet.uav[295] utilizationCountOverdrawnAfterMission 0
scalar OsgEarthNet.uav[295] utilizationCountIdleState 1
scalar OsgEarthNet.uav[295] utilizationFail 0
scalar OsgEarthNet.uav[295] simulationTime 259200
scalar OsgEarthNet.uav[296] utilizationSecMission 0
scalar OsgEarthNet.uav[296] utilizationSecMaintenance 0
scalar OsgEarthNet.uav[296] utilizationSecCharge 0
scalar OsgEarthNet.uav[296] utilizationSecIdle 259199.999
scalar OsgEarthNet.uav[296] utilizationEnergyMission 0
scalar OsgEarthNet.uav[296] utilizationEnergyMaintenance 0
scalar OsgEarthNet.uav[296] utilizationEnergyCharge 0
scalar OsgEarthNet.uav[296] utilizationEnergyOverdrawMission 0
scalar OsgEarthNet.uav[296] utilizationEnergyOverdrawMaintenance 0
scalar OsgEarthNet.uav[296] utilizationCountMissions 0
scalar OsgEarthNet.uav[296] utilizationCountManeuversMission 0
scalar OsgEarthNet.uav[296] utilizationCountManeuversMaintenance 0
scalar OsgEarthNet.uav[296] utilizationCountChargeState 0
scalar OsgEarthNet.uav[296] utilizationCountOverdrawnAfterMission 0
scalar OsgEarthNet.uav[296] utilizationCountIdleState 1
scalar OsgEarthNet.uav[296] utilizationFail 0
scalar OsgEarthNet.uav[296] simulationTime 259200
scalar OsgEarthNet.uav[297] utilizationSecMission 0
scalar OsgEarthNet.uav[297] utilizationSecMaintenance 0
scalar OsgEarthNet.uav[297] utilizationSecCharge 0
scalar OsgEarthNet.uav[297] utilizationSecIdle 259199.999
scalar OsgEarthNet.uav[297] utilizationEnergyMission 0
scalar OsgEarthNet.uav[297] utilizationEnergyMaintenance 0
scalar OsgEarthNet.uav[297] utilizationEnergyCharge 0
scalar OsgEarthNet.uav[297] utilizationEnergyOverdrawMission 0
scalar OsgEarthNet.uav[297] utilizationEnergyOverdrawMaintenance 0
scalar OsgEarthNet.uav[297] utilizationCountMissions 0
scalar OsgEarthNet.uav[297] utilizationCountManeuversMission 0
scalar OsgEarthNet.uav[297] utilizationCountManeuversMaintenance 0
scalar OsgEarthNet.uav[297] utilizationCountChargeState 0
scalar OsgEarthNet.uav[297] utilizationCountOverdrawnAfterMission 0
scalar OsgEarthNet.uav[297] utilizationCountIdleState 1
scalar OsgEarthNet.uav[297] utilizationFail 0
scalar OsgEarthNet.uav[297] simulationTime 259200
scalar OsgEarthNet.uav[298] utilizationSecMission 0
scalar OsgEarthNet.uav[298] utilizationSecMaintenance 0
scalar OsgEarthNet.uav[298] utilizationSecCharge 0
scalar OsgEarthNet.uav[298] utilizationSecIdle 259199.999
scalar OsgEarthNet.uav[298] utilizationEnergyMission 0
scalar OsgEarthNet.uav[298] utilizationEnergyMaintenance 0
scalar OsgEarthNet.uav[298] utilizationEnergyCharge 0
scalar OsgEarthNet.uav[298] utilizationEnergyOverdrawMission 0
scalar OsgEarthNet.uav[298] utilizationEnergyOverdrawMaintenance 0
scalar OsgEarthNet.uav[298] utilizationCountMissions 0
scalar OsgEarthNet.uav[298] utilizationCountManeuversMission 0
scalar OsgEarthNet.uav[298] utilizationCountManeuversMaintenance 0
scalar OsgEarthNet.uav[298] utilizationCountChargeState 0
scalar OsgEarthNet.uav[298] utilizationCountOverdrawnAfterMission 0
scalar OsgEarthNet.uav[298] utilizationCountIdleState 1
scalar OsgEarthNet.uav[298] utilizationFail 0
scalar OsgEarthNet.uav[298] simulationTime 259200
scalar OsgEarthNet.uav[299] utilizationSecMission 0
scalar OsgEarthNet.uav[299] utilizationSecMaintenance 0
scalar OsgEarthNet.uav[299] utilizationSecCharge 0
scalar OsgEarthNet.uav[299] utilizationSecIdle 259199.999
scalar OsgEarthNet.uav[299] utilizationEnergyMission 0
scalar OsgEarthNet.uav[299] utilizationEnergyMaintenance 0
scalar OsgEarthNet.uav[299] utilizationEnergyCharge 0
scalar OsgEarthNet.uav[299] utilizationEnergyOverdrawMission 0
scalar OsgEarthNet.uav[299] utilizationEnergyOverdrawMaintenance 0
scalar OsgEarthNet.uav[299] utilizationCountMissions 0
scalar OsgEarthNet.uav[299] utilizationCountManeuversMission 0
scalar OsgEarthNet.uav[299] utilizationCountManeuversMaintenance 0
scalar OsgEarthNet.uav[299] utilizationCountChargeState 0
scalar OsgEarthNet.uav[299] utilizationCountOverdrawnAfterMission 0
scalar OsgEarthNet.uav[299] utilizationCountIdleState 1
scalar OsgEarthNet.uav[299] utilizationFail 0
scalar OsgEarthNet.uav[299] simulationTime 259200
scalar OsgEarthNet.cs[0] usedPower 4021686.9483576
scalar OsgEarthNet.cs[0] chargedPower 4021686.9483576
scalar OsgEarthNet.cs[0] chargedMobileNodes 878
scalar OsgEarthNet.cs[0] reservations 891
scalar OsgEarthNet.cs[1] usedPower 4132858.4886768
scalar OsgEarthNet.cs[1] chargedPower 4132858.4886768
scalar OsgEarthNet.cs[1] chargedMobileNodes 1030
scalar OsgEarthNet.cs[1] reservations 1044
scalar OsgEarthNet.cs[2] usedPower 8673594.9897874
scalar OsgEarthNet.cs[2] chargedPower 8673594.9897874
scalar OsgEarthNet.cs[2] chargedMobileNodes 449
scalar OsgEarthNet.cs[2] reservations 1896

