version 2
run Szenario_Hotel_Gabelbach-422-20180719-17:40:06-30008
attr configname Szenario_Hotel_Gabelbach
attr datetime 20180719-17:40:06
attr experiment Szenario_Hotel_Gabelbach
attr inifile omnetpp.ini
attr iterationvars "$replM=2, $biWeight=0.35, $replSearchM=1, $numUAVs=88"
attr iterationvarsf replM=2,biWeight=0.35,replSearchM=1,numUAVs=88-
attr measurement "$replM=2, $biWeight=0.35, $replSearchM=1, $numUAVs=88"
attr network OsgEarthNet
attr processid 30008
attr repetition 14
attr replication #14
attr resultdir results
attr runnumber 422
attr seedset 422
itervar biWeight 0.35
itervar numUAVs 88
itervar replM 2
itervar replSearchM 1
param *.osgEarthScene.scene "\"Szenario_Hotel_Gabelbach.earth\""
param *.playgroundLatitude 50.6830269
param *.playgroundLongitude 10.8538055
param *.playgroundWidth 3500m
param *.playgroundHeight 3500m
param *.cs[0].posX 3537m
param *.cs[0].posY 965m
param *.cs[0].posZ 538m
param *.cs[1].posX 312m
param *.cs[1].posY 1262m
param *.cs[1].posZ 539m
param *.cs[2].posX 2185m
param *.cs[2].posY 3026m
param *.cs[2].posZ 777m
param *.cs[3].posX 10m
param *.cs[3].posY 2200m
param *.cs[3].posZ 560m
param *.cs[4].posX 750m
param *.cs[4].posY 200m
param *.cs[4].posZ 540m
param *.cs[5].posX 2450m
param *.cs[5].posY 180m
param *.cs[5].posZ 524m
param *.cs[6].posX 3140m
param *.cs[6].posY 1790m
param *.cs[6].posZ 606m
param *.numCSs 3
param *.uav[*].replacementMethod 2
param *.uav[*].weightedSumWeight 0.35
param *.missionControl.replacementSearchMethod 1
param *.numUAVs 88
param *.*.timeStep 10s
param *.uav[*].commandPreviewCommandCount 20
param *.missionControl.missionFiles "\"missions\\\\Szenario_WB_Hotel_Gabelbach_Mission_Hotel.waypoints,missions\\\\Szenario_WB_Hotel_Gabelbach_Mission_Kickelhahn.waypoints,missions\\\\Szenario_WB_Hotel_Gabelbach_Mission_Ilmenau_Sportplatz.waypoints,missions\\\\Szenario_WB_Hotel_Gabelbach_Mission_Manebach_Mitte.waypoints,missions\\\\Szenario_WB_Hotel_Gabelbach_Mission_Manebach_Sued.waypoints,missions\\\\Szenario_WB_Hotel_Gabelbach_Hover_HoheSchlaufe.waypoints,missions\\\\Szenario_WB_Hotel_Gabelbach_Hover_Kickelhahn.waypoints,missions\\\\Szenario_WB_Hotel_Gabelbach_Hover_Gabelbachskopf.waypoints,missions\\\\Szenario_WB_Hotel_Gabelbach_Hover_Dachskopf.waypoints\""
param *.uav[0].startX 3537m
param *.uav[0].startY 965m
param *.uav[0].startZ 539m
param *.uav[1].startX 312m
param *.uav[1].startY 1262m
param *.uav[1].startZ 540m
param *.uav[2].startX 2185m
param *.uav[2].startY 3026m
param *.uav[2].startZ 778m
param *.uav[3].startX 3537m
param *.uav[3].startY 965m
param *.uav[3].startZ 539m
param *.uav[4].startX 312m
param *.uav[4].startY 1262m
param *.uav[4].startZ 540m
param *.uav[5].startX 2185m
param *.uav[5].startY 3026m
param *.uav[5].startZ 778m
param *.uav[6].startX 3537m
param *.uav[6].startY 965m
param *.uav[6].startZ 539m
param *.uav[7].startX 312m
param *.uav[7].startY 1262m
param *.uav[7].startZ 540m
param *.uav[8].startX 2185m
param *.uav[8].startY 3026m
param *.uav[8].startZ 778m
param *.uav[9].startX 3537m
param *.uav[9].startY 965m
param *.uav[9].startZ 539m
param *.uav[10].startX 3537m
param *.uav[10].startY 965m
param *.uav[10].startZ 539m
param *.uav[11].startX 312m
param *.uav[11].startY 1262m
param *.uav[11].startZ 540m
param *.uav[12].startX 2185m
param *.uav[12].startY 3026m
param *.uav[12].startZ 778m
param *.uav[13].startX 3537m
param *.uav[13].startY 965m
param *.uav[13].startZ 539m
param *.uav[14].startX 312m
param *.uav[14].startY 1262m
param *.uav[14].startZ 540m
param *.uav[15].startX 2185m
param *.uav[15].startY 3026m
param *.uav[15].startZ 778m
param *.uav[16].startX 3537m
param *.uav[16].startY 965m
param *.uav[16].startZ 539m
param *.uav[17].startX 312m
param *.uav[17].startY 1262m
param *.uav[17].startZ 540m
param *.uav[18].startX 2185m
param *.uav[18].startY 3026m
param *.uav[18].startZ 778m
param *.uav[19].startX 3537m
param *.uav[19].startY 965m
param *.uav[19].startZ 539m
param *.uav[20].startX 3537m
param *.uav[20].startY 965m
param *.uav[20].startZ 539m
param *.uav[21].startX 312m
param *.uav[21].startY 1262m
param *.uav[21].startZ 540m
param *.uav[22].startX 2185m
param *.uav[22].startY 3026m
param *.uav[22].startZ 778m
param *.uav[23].startX 3537m
param *.uav[23].startY 965m
param *.uav[23].startZ 539m
param *.uav[24].startX 312m
param *.uav[24].startY 1262m
param *.uav[24].startZ 540m
param *.uav[25].startX 2185m
param *.uav[25].startY 3026m
param *.uav[25].startZ 778m
param *.uav[26].startX 3537m
param *.uav[26].startY 965m
param *.uav[26].startZ 539m
param *.uav[27].startX 312m
param *.uav[27].startY 1262m
param *.uav[27].startZ 540m
param *.uav[28].startX 2185m
param *.uav[28].startY 3026m
param *.uav[28].startZ 778m
param *.uav[29].startX 3537m
param *.uav[29].startY 965m
param *.uav[29].startZ 539m
param *.uav[30].startX 3537m
param *.uav[30].startY 965m
param *.uav[30].startZ 539m
param *.uav[31].startX 312m
param *.uav[31].startY 1262m
param *.uav[31].startZ 540m
param *.uav[32].startX 2185m
param *.uav[32].startY 3026m
param *.uav[32].startZ 778m
param *.uav[33].startX 3537m
param *.uav[33].startY 965m
param *.uav[33].startZ 539m
param *.uav[34].startX 312m
param *.uav[34].startY 1262m
param *.uav[34].startZ 540m
param *.uav[35].startX 2185m
param *.uav[35].startY 3026m
param *.uav[35].startZ 778m
param *.uav[36].startX 3537m
param *.uav[36].startY 965m
param *.uav[36].startZ 539m
param *.uav[37].startX 312m
param *.uav[37].startY 1262m
param *.uav[37].startZ 540m
param *.uav[38].startX 2185m
param *.uav[38].startY 3026m
param *.uav[38].startZ 778m
param *.uav[39].startX 3537m
param *.uav[39].startY 965m
param *.uav[39].startZ 539m
param *.uav[40].startX 3537m
param *.uav[40].startY 965m
param *.uav[40].startZ 539m
param *.uav[41].startX 312m
param *.uav[41].startY 1262m
param *.uav[41].startZ 540m
param *.uav[42].startX 2185m
param *.uav[42].startY 3026m
param *.uav[42].startZ 778m
param *.uav[43].startX 3537m
param *.uav[43].startY 965m
param *.uav[43].startZ 539m
param *.uav[44].startX 312m
param *.uav[44].startY 1262m
param *.uav[44].startZ 540m
param *.uav[45].startX 2185m
param *.uav[45].startY 3026m
param *.uav[45].startZ 778m
param *.uav[46].startX 3537m
param *.uav[46].startY 965m
param *.uav[46].startZ 539m
param *.uav[47].startX 312m
param *.uav[47].startY 1262m
param *.uav[47].startZ 540m
param *.uav[48].startX 2185m
param *.uav[48].startY 3026m
param *.uav[48].startZ 778m
param *.uav[49].startX 3537m
param *.uav[49].startY 965m
param *.uav[49].startZ 539m
param *.uav[50].startX 3537m
param *.uav[50].startY 965m
param *.uav[50].startZ 539m
param *.uav[51].startX 312m
param *.uav[51].startY 1262m
param *.uav[51].startZ 540m
param *.uav[52].startX 2185m
param *.uav[52].startY 3026m
param *.uav[52].startZ 778m
param *.uav[53].startX 3537m
param *.uav[53].startY 965m
param *.uav[53].startZ 539m
param *.uav[54].startX 312m
param *.uav[54].startY 1262m
param *.uav[54].startZ 540m
param *.uav[55].startX 2185m
param *.uav[55].startY 3026m
param *.uav[55].startZ 778m
param *.uav[56].startX 3537m
param *.uav[56].startY 965m
param *.uav[56].startZ 539m
param *.uav[57].startX 312m
param *.uav[57].startY 1262m
param *.uav[57].startZ 540m
param *.uav[58].startX 2185m
param *.uav[58].startY 3026m
param *.uav[58].startZ 778m
param *.uav[59].startX 3537m
param *.uav[59].startY 965m
param *.uav[59].startZ 539m
param *.uav[60].startX 3537m
param *.uav[60].startY 965m
param *.uav[60].startZ 539m
param *.uav[61].startX 312m
param *.uav[61].startY 1262m
param *.uav[61].startZ 540m
param *.uav[62].startX 2185m
param *.uav[62].startY 3026m
param *.uav[62].startZ 778m
param *.uav[63].startX 3537m
param *.uav[63].startY 965m
param *.uav[63].startZ 539m
param *.uav[64].startX 312m
param *.uav[64].startY 1262m
param *.uav[64].startZ 540m
param *.uav[65].startX 2185m
param *.uav[65].startY 3026m
param *.uav[65].startZ 778m
param *.uav[66].startX 3537m
param *.uav[66].startY 965m
param *.uav[66].startZ 539m
param *.uav[67].startX 312m
param *.uav[67].startY 1262m
param *.uav[67].startZ 540m
param *.uav[68].startX 2185m
param *.uav[68].startY 3026m
param *.uav[68].startZ 778m
param *.uav[69].startX 3537m
param *.uav[69].startY 965m
param *.uav[69].startZ 539m
param *.uav[70].startX 3537m
param *.uav[70].startY 965m
param *.uav[70].startZ 539m
param *.uav[71].startX 312m
param *.uav[71].startY 1262m
param *.uav[71].startZ 540m
param *.uav[72].startX 2185m
param *.uav[72].startY 3026m
param *.uav[72].startZ 778m
param *.uav[73].startX 3537m
param *.uav[73].startY 965m
param *.uav[73].startZ 539m
param *.uav[74].startX 312m
param *.uav[74].startY 1262m
param *.uav[74].startZ 540m
param *.uav[75].startX 2185m
param *.uav[75].startY 3026m
param *.uav[75].startZ 778m
param *.uav[76].startX 3537m
param *.uav[76].startY 965m
param *.uav[76].startZ 539m
param *.uav[77].startX 312m
param *.uav[77].startY 1262m
param *.uav[77].startZ 540m
param *.uav[78].startX 2185m
param *.uav[78].startY 3026m
param *.uav[78].startZ 778m
param *.uav[79].startX 3537m
param *.uav[79].startY 965m
param *.uav[79].startZ 539m
param *.uav[80].startX 3537m
param *.uav[80].startY 965m
param *.uav[80].startZ 539m
param *.uav[81].startX 312m
param *.uav[81].startY 1262m
param *.uav[81].startZ 540m
param *.uav[82].startX 2185m
param *.uav[82].startY 3026m
param *.uav[82].startZ 778m
param *.uav[83].startX 3537m
param *.uav[83].startY 965m
param *.uav[83].startZ 539m
param *.uav[84].startX 312m
param *.uav[84].startY 1262m
param *.uav[84].startZ 540m
param *.uav[85].startX 2185m
param *.uav[85].startY 3026m
param *.uav[85].startZ 778m
param *.uav[86].startX 3537m
param *.uav[86].startY 965m
param *.uav[86].startZ 539m
param *.uav[87].startX 312m
param *.uav[87].startY 1262m
param *.uav[87].startZ 540m
param *.uav[88].startX 2185m
param *.uav[88].startY 3026m
param *.uav[88].startZ 778m
param *.uav[89].startX 3537m
param *.uav[89].startY 965m
param *.uav[89].startZ 539m
param *.uav[90].startX 3537m
param *.uav[90].startY 965m
param *.uav[90].startZ 539m
param *.uav[91].startX 312m
param *.uav[91].startY 1262m
param *.uav[91].startZ 540m
param *.uav[92].startX 2185m
param *.uav[92].startY 3026m
param *.uav[92].startZ 778m
param *.uav[93].startX 3537m
param *.uav[93].startY 965m
param *.uav[93].startZ 539m
param *.uav[94].startX 312m
param *.uav[94].startY 1262m
param *.uav[94].startZ 540m
param *.uav[95].startX 2185m
param *.uav[95].startY 3026m
param *.uav[95].startZ 778m
param *.uav[96].startX 3537m
param *.uav[96].startY 965m
param *.uav[96].startZ 539m
param *.uav[97].startX 312m
param *.uav[97].startY 1262m
param *.uav[97].startZ 540m
param *.uav[98].startX 2185m
param *.uav[98].startY 3026m
param *.uav[98].startZ 778m
param *.uav[99].startX 3537m
param *.uav[99].startY 965m
param *.uav[99].startZ 539m
param *.osgEarthScene.scene "\"boston.earth\""
param *.playgroundLatitude 42.3558
param *.playgroundLongitude -71.0677
param *.playgroundWidth 400m
param *.playgroundHeight 200m
param *.channelController.connectionColor "\"#0000FF40\""
param *.channelController.showConnections false
param *.uav[*].modelURL "\"quadrocopter.small.obj.15.scale.0,0,90.rot\""
param *.uav[*].labelColor "\"#FF7C00CC\""
param *.uav[*].label2Color "\"#FF7C00EE\""
param *.uav[*].batteryCapacity 5200mAh
param *.uav[*].batteryRemaining uav[index].batteryCapacity
param *.uav[*].predictionQuantile 0.95
param *.uav[*].replacementMethod 2
param *.uav[*].weightedSumWeight 0.5
param *.cs[*].modelURL "\"chargingstation_v1.osgt.2.scale.0,0,0.rot.0,0,-15e-1.trans\""
param *.cs[*].spotsWaiting 999
param *.cs[*].spotsCharging 999
param *.cs[*].chargeEffectivenessPercentage 100
param *.cs[*].nonLinearPhaseStartPercentage 85
param *.cs[*].chargeCurrent 6.0A
param *.cs[*].prioritizeFastCharge true
param *.missionControl.replacementSearchMethod 0
param *.*.timeStep 9s

scalar OsgEarthNet.uav[0] utilizationSecMission 760.62515258028
scalar OsgEarthNet.uav[0] utilizationSecMaintenance 280.27216773088
scalar OsgEarthNet.uav[0] utilizationSecCharge 3800
scalar OsgEarthNet.uav[0] utilizationSecIdle 254359.10167969
scalar OsgEarthNet.uav[0] utilizationEnergyMission 3693.0079498291
scalar OsgEarthNet.uav[0] utilizationEnergyMaintenance 1328.6923332214
scalar OsgEarthNet.uav[0] utilizationEnergyCharge 5021.6987304688
scalar OsgEarthNet.uav[0] utilizationEnergyOverdrawMission 0
scalar OsgEarthNet.uav[0] utilizationEnergyOverdrawMaintenance 0
scalar OsgEarthNet.uav[0] utilizationCountMissions 1
scalar OsgEarthNet.uav[0] utilizationCountManeuversMission 12
scalar OsgEarthNet.uav[0] utilizationCountManeuversMaintenance 2
scalar OsgEarthNet.uav[0] utilizationCountChargeState 1
scalar OsgEarthNet.uav[0] utilizationCountOverdrawnAfterMission 0
scalar OsgEarthNet.uav[0] utilizationCountIdleState 2
scalar OsgEarthNet.uav[0] utilizationFail 0
scalar OsgEarthNet.uav[0] simulationTime 259200
scalar OsgEarthNet.uav[1] utilizationSecMission 29269.036394755
scalar OsgEarthNet.uav[1] utilizationSecMaintenance 16286.318886189
scalar OsgEarthNet.uav[1] utilizationSecCharge 171352.64171906
scalar OsgEarthNet.uav[1] utilizationSecIdle 42292.002
scalar OsgEarthNet.uav[1] utilizationEnergyMission 140873.83706284
scalar OsgEarthNet.uav[1] utilizationEnergyMaintenance 77172.10382843
scalar OsgEarthNet.uav[1] utilizationEnergyCharge 213327.23925781
scalar OsgEarthNet.uav[1] utilizationEnergyOverdrawMission 0
scalar OsgEarthNet.uav[1] utilizationEnergyOverdrawMaintenance 0
scalar OsgEarthNet.uav[1] utilizationCountMissions 54
scalar OsgEarthNet.uav[1] utilizationCountManeuversMission 833
scalar OsgEarthNet.uav[1] utilizationCountManeuversMaintenance 108
scalar OsgEarthNet.uav[1] utilizationCountChargeState 54
scalar OsgEarthNet.uav[1] utilizationCountOverdrawnAfterMission 0
scalar OsgEarthNet.uav[1] utilizationCountIdleState 54
scalar OsgEarthNet.uav[1] utilizationFail 0
scalar OsgEarthNet.uav[1] simulationTime 259200
scalar OsgEarthNet.uav[2] utilizationSecMission 35614.386060856
scalar OsgEarthNet.uav[2] utilizationSecMaintenance 15325.413316774
scalar OsgEarthNet.uav[2] utilizationSecCharge 186370.98000845
scalar OsgEarthNet.uav[2] utilizationSecIdle 21889.219613916
scalar OsgEarthNet.uav[2] utilizationEnergyMission 171260.73812866
scalar OsgEarthNet.uav[2] utilizationEnergyMaintenance 70578.03540802
scalar OsgEarthNet.uav[2] utilizationEnergyCharge 242474.47119141
scalar OsgEarthNet.uav[2] utilizationEnergyOverdrawMission 0
scalar OsgEarthNet.uav[2] utilizationEnergyOverdrawMaintenance 0
scalar OsgEarthNet.uav[2] utilizationCountMissions 53
scalar OsgEarthNet.uav[2] utilizationCountManeuversMission 1094
scalar OsgEarthNet.uav[2] utilizationCountManeuversMaintenance 106
scalar OsgEarthNet.uav[2] utilizationCountChargeState 53
scalar OsgEarthNet.uav[2] utilizationCountOverdrawnAfterMission 0
scalar OsgEarthNet.uav[2] utilizationCountIdleState 48
scalar OsgEarthNet.uav[2] utilizationFail 0
scalar OsgEarthNet.uav[2] simulationTime 259200
scalar OsgEarthNet.uav[3] utilizationSecMission 460
scalar OsgEarthNet.uav[3] utilizationSecMaintenance 447.1303002674
scalar OsgEarthNet.uav[3] utilizationSecCharge 3590
scalar OsgEarthNet.uav[3] utilizationSecIdle 254702.86869973
scalar OsgEarthNet.uav[3] utilizationEnergyMission 2365.8749923706
scalar OsgEarthNet.uav[3] utilizationEnergyMaintenance 2049.5855827331
scalar OsgEarthNet.uav[3] utilizationEnergyCharge 4637.6420898438
scalar OsgEarthNet.uav[3] utilizationEnergyOverdrawMission 0
scalar OsgEarthNet.uav[3] utilizationEnergyOverdrawMaintenance 0
scalar OsgEarthNet.uav[3] utilizationCountMissions 1
scalar OsgEarthNet.uav[3] utilizationCountManeuversMission 23
scalar OsgEarthNet.uav[3] utilizationCountManeuversMaintenance 2
scalar OsgEarthNet.uav[3] utilizationCountChargeState 1
scalar OsgEarthNet.uav[3] utilizationCountOverdrawnAfterMission 0
scalar OsgEarthNet.uav[3] utilizationCountIdleState 2
scalar OsgEarthNet.uav[3] utilizationFail 0
scalar OsgEarthNet.uav[3] simulationTime 259200
scalar OsgEarthNet.uav[4] utilizationSecMission 27910.783854824
scalar OsgEarthNet.uav[4] utilizationSecMaintenance 17033.744338933
scalar OsgEarthNet.uav[4] utilizationSecCharge 173010
scalar OsgEarthNet.uav[4] utilizationSecIdle 41245.470806243
scalar OsgEarthNet.uav[4] utilizationEnergyMission 136753.79161453
scalar OsgEarthNet.uav[4] utilizationEnergyMaintenance 80690.055427551
scalar OsgEarthNet.uav[4] utilizationEnergyCharge 216436.30639648
scalar OsgEarthNet.uav[4] utilizationEnergyOverdrawMission 0
scalar OsgEarthNet.uav[4] utilizationEnergyOverdrawMaintenance 0
scalar OsgEarthNet.uav[4] utilizationCountMissions 53
scalar OsgEarthNet.uav[4] utilizationCountManeuversMission 926
scalar OsgEarthNet.uav[4] utilizationCountManeuversMaintenance 106
scalar OsgEarthNet.uav[4] utilizationCountChargeState 53
scalar OsgEarthNet.uav[4] utilizationCountOverdrawnAfterMission 0
scalar OsgEarthNet.uav[4] utilizationCountIdleState 54
scalar OsgEarthNet.uav[4] utilizationFail 0
scalar OsgEarthNet.uav[4] simulationTime 259200
scalar OsgEarthNet.uav[5] utilizationSecMission 37382.118077053
scalar OsgEarthNet.uav[5] utilizationSecMaintenance 13652.299381227
scalar OsgEarthNet.uav[5] utilizationSecCharge 183533.57754172
scalar OsgEarthNet.uav[5] utilizationSecIdle 24632.004
scalar OsgEarthNet.uav[5] utilizationEnergyMission 178879.78094101
scalar OsgEarthNet.uav[5] utilizationEnergyMaintenance 61941.95658493
scalar OsgEarthNet.uav[5] utilizationEnergyCharge 239689.49853516
scalar OsgEarthNet.uav[5] utilizationEnergyOverdrawMission 0
scalar OsgEarthNet.uav[5] utilizationEnergyOverdrawMaintenance 0
scalar OsgEarthNet.uav[5] utilizationCountMissions 52
scalar OsgEarthNet.uav[5] utilizationCountManeuversMission 1055
scalar OsgEarthNet.uav[5] utilizationCountManeuversMaintenance 104
scalar OsgEarthNet.uav[5] utilizationCountChargeState 52
scalar OsgEarthNet.uav[5] utilizationCountOverdrawnAfterMission 0
scalar OsgEarthNet.uav[5] utilizationCountIdleState 48
scalar OsgEarthNet.uav[5] utilizationFail 0
scalar OsgEarthNet.uav[5] simulationTime 259200
scalar OsgEarthNet.uav[6] utilizationSecMission 8606.5081067166
scalar OsgEarthNet.uav[6] utilizationSecMaintenance 6362.2781369495
scalar OsgEarthNet.uav[6] utilizationSecCharge 56500
scalar OsgEarthNet.uav[6] utilizationSecIdle 187731.21275633
scalar OsgEarthNet.uav[6] utilizationEnergyMission 42005.515529633
scalar OsgEarthNet.uav[6] utilizationEnergyMaintenance 30609.10446167
scalar OsgEarthNet.uav[6] utilizationEnergyCharge 73041.913574219
scalar OsgEarthNet.uav[6] utilizationEnergyOverdrawMission 0
scalar OsgEarthNet.uav[6] utilizationEnergyOverdrawMaintenance 0
scalar OsgEarthNet.uav[6] utilizationCountMissions 16
scalar OsgEarthNet.uav[6] utilizationCountManeuversMission 309
scalar OsgEarthNet.uav[6] utilizationCountManeuversMaintenance 32
scalar OsgEarthNet.uav[6] utilizationCountChargeState 16
scalar OsgEarthNet.uav[6] utilizationCountOverdrawnAfterMission 0
scalar OsgEarthNet.uav[6] utilizationCountIdleState 17
scalar OsgEarthNet.uav[6] utilizationFail 0
scalar OsgEarthNet.uav[6] simulationTime 259200
scalar OsgEarthNet.uav[7] utilizationSecMission 29228.334324383
scalar OsgEarthNet.uav[7] utilizationSecMaintenance 15969.604552858
scalar OsgEarthNet.uav[7] utilizationSecCharge 170051.00232757
scalar OsgEarthNet.uav[7] utilizationSecIdle 43951.057795193
scalar OsgEarthNet.uav[7] utilizationEnergyMission 139398.0766716
scalar OsgEarthNet.uav[7] utilizationEnergyMaintenance 75845.149738312
scalar OsgEarthNet.uav[7] utilizationEnergyCharge 211071.99017334
scalar OsgEarthNet.uav[7] utilizationEnergyOverdrawMission 0
scalar OsgEarthNet.uav[7] utilizationEnergyOverdrawMaintenance 0
scalar OsgEarthNet.uav[7] utilizationCountMissions 54
scalar OsgEarthNet.uav[7] utilizationCountManeuversMission 779
scalar OsgEarthNet.uav[7] utilizationCountManeuversMaintenance 108
scalar OsgEarthNet.uav[7] utilizationCountChargeState 54
scalar OsgEarthNet.uav[7] utilizationCountOverdrawnAfterMission 0
scalar OsgEarthNet.uav[7] utilizationCountIdleState 54
scalar OsgEarthNet.uav[7] utilizationFail 0
scalar OsgEarthNet.uav[7] simulationTime 259200
scalar OsgEarthNet.uav[8] utilizationSecMission 33858.689037929
scalar OsgEarthNet.uav[8] utilizationSecMaintenance 15665.191056477
scalar OsgEarthNet.uav[8] utilizationSecCharge 182994.66594688
scalar OsgEarthNet.uav[8] utilizationSecIdle 26681.452958717
scalar OsgEarthNet.uav[8] utilizationEnergyMission 163567.36800766
scalar OsgEarthNet.uav[8] utilizationEnergyMaintenance 72516.812915802
scalar OsgEarthNet.uav[8] utilizationEnergyCharge 236494.38037109
scalar OsgEarthNet.uav[8] utilizationEnergyOverdrawMission 0
scalar OsgEarthNet.uav[8] utilizationEnergyOverdrawMaintenance 0
scalar OsgEarthNet.uav[8] utilizationCountMissions 53
scalar OsgEarthNet.uav[8] utilizationCountManeuversMission 1074
scalar OsgEarthNet.uav[8] utilizationCountManeuversMaintenance 106
scalar OsgEarthNet.uav[8] utilizationCountChargeState 53
scalar OsgEarthNet.uav[8] utilizationCountOverdrawnAfterMission 0
scalar OsgEarthNet.uav[8] utilizationCountIdleState 52
scalar OsgEarthNet.uav[8] utilizationFail 0
scalar OsgEarthNet.uav[8] simulationTime 259200
scalar OsgEarthNet.uav[9] utilizationSecMission 6923.7509154817
scalar OsgEarthNet.uav[9] utilizationSecMaintenance 3483.3417904534
scalar OsgEarthNet.uav[9] utilizationSecCharge 38780
scalar OsgEarthNet.uav[9] utilizationSecIdle 210012.90629406
scalar OsgEarthNet.uav[9] utilizationEnergyMission 32921.070907593
scalar OsgEarthNet.uav[9] utilizationEnergyMaintenance 16610.047794342
scalar OsgEarthNet.uav[9] utilizationEnergyCharge 49900.754394531
scalar OsgEarthNet.uav[9] utilizationEnergyOverdrawMission 0
scalar OsgEarthNet.uav[9] utilizationEnergyOverdrawMaintenance 0
scalar OsgEarthNet.uav[9] utilizationCountMissions 11
scalar OsgEarthNet.uav[9] utilizationCountManeuversMission 190
scalar OsgEarthNet.uav[9] utilizationCountManeuversMaintenance 22
scalar OsgEarthNet.uav[9] utilizationCountChargeState 11
scalar OsgEarthNet.uav[9] utilizationCountOverdrawnAfterMission 0
scalar OsgEarthNet.uav[9] utilizationCountIdleState 12
scalar OsgEarthNet.uav[9] utilizationFail 0
scalar OsgEarthNet.uav[9] simulationTime 259200
scalar OsgEarthNet.uav[10] utilizationSecMission 36935.861024665
scalar OsgEarthNet.uav[10] utilizationSecMaintenance 14469.466617122
scalar OsgEarthNet.uav[10] utilizationSecCharge 187112.67135821
scalar OsgEarthNet.uav[10] utilizationSecIdle 20682
scalar OsgEarthNet.uav[10] utilizationEnergyMission 180253.39929581
scalar OsgEarthNet.uav[10] utilizationEnergyMaintenance 66007.158351898
scalar OsgEarthNet.uav[10] utilizationEnergyCharge 244714.21289062
scalar OsgEarthNet.uav[10] utilizationEnergyOverdrawMission 0
scalar OsgEarthNet.uav[10] utilizationEnergyOverdrawMaintenance 0
scalar OsgEarthNet.uav[10] utilizationCountMissions 53
scalar OsgEarthNet.uav[10] utilizationCountManeuversMission 1125
scalar OsgEarthNet.uav[10] utilizationCountManeuversMaintenance 105
scalar OsgEarthNet.uav[10] utilizationCountChargeState 53
scalar OsgEarthNet.uav[10] utilizationCountOverdrawnAfterMission 0
scalar OsgEarthNet.uav[10] utilizationCountIdleState 49
scalar OsgEarthNet.uav[10] utilizationFail 0
scalar OsgEarthNet.uav[10] simulationTime 259200
scalar OsgEarthNet.uav[11] utilizationSecMission 30316.163275813
scalar OsgEarthNet.uav[11] utilizationSecMaintenance 17109.185359235
scalar OsgEarthNet.uav[11] utilizationSecCharge 177203.68637928
scalar OsgEarthNet.uav[11] utilizationSecIdle 34570.963985674
scalar OsgEarthNet.uav[11] utilizationEnergyMission 146327.53009033
scalar OsgEarthNet.uav[11] utilizationEnergyMaintenance 80913.869606018
scalar OsgEarthNet.uav[11] utilizationEnergyCharge 225722.65087891
scalar OsgEarthNet.uav[11] utilizationEnergyOverdrawMission 0
scalar OsgEarthNet.uav[11] utilizationEnergyOverdrawMaintenance 0
scalar OsgEarthNet.uav[11] utilizationCountMissions 53
scalar OsgEarthNet.uav[11] utilizationCountManeuversMission 982
scalar OsgEarthNet.uav[11] utilizationCountManeuversMaintenance 106
scalar OsgEarthNet.uav[11] utilizationCountChargeState 53
scalar OsgEarthNet.uav[11] utilizationCountOverdrawnAfterMission 0
scalar OsgEarthNet.uav[11] utilizationCountIdleState 53
scalar OsgEarthNet.uav[11] utilizationFail 0
scalar OsgEarthNet.uav[11] simulationTime 259200
scalar OsgEarthNet.uav[12] utilizationSecMission 37063.504351339
scalar OsgEarthNet.uav[12] utilizationSecMaintenance 14252.573969331
scalar OsgEarthNet.uav[12] utilizationSecCharge 186361.91867933
scalar OsgEarthNet.uav[12] utilizationSecIdle 21522.002
scalar OsgEarthNet.uav[12] utilizationEnergyMission 180991.3699379
scalar OsgEarthNet.uav[12] utilizationEnergyMaintenance 65626.48727417
scalar OsgEarthNet.uav[12] utilizationEnergyCharge 243266.27978516
scalar OsgEarthNet.uav[12] utilizationEnergyOverdrawMission 0
scalar OsgEarthNet.uav[12] utilizationEnergyOverdrawMaintenance 0
scalar OsgEarthNet.uav[12] utilizationCountMissions 53
scalar OsgEarthNet.uav[12] utilizationCountManeuversMission 1165
scalar OsgEarthNet.uav[12] utilizationCountManeuversMaintenance 106
scalar OsgEarthNet.uav[12] utilizationCountChargeState 53
scalar OsgEarthNet.uav[12] utilizationCountOverdrawnAfterMission 0
scalar OsgEarthNet.uav[12] utilizationCountIdleState 49
scalar OsgEarthNet.uav[12] utilizationFail 0
scalar OsgEarthNet.uav[12] simulationTime 259200
scalar OsgEarthNet.uav[13] utilizationSecMission 15625.048222407
scalar OsgEarthNet.uav[13] utilizationSecMaintenance 10496.241156764
scalar OsgEarthNet.uav[13] utilizationSecCharge 98750
scalar OsgEarthNet.uav[13] utilizationSecIdle 134328.70962083
scalar OsgEarthNet.uav[13] utilizationEnergyMission 77550.419269562
scalar OsgEarthNet.uav[13] utilizationEnergyMaintenance 49571.093990326
scalar OsgEarthNet.uav[13] utilizationEnergyCharge 127253.33447266
scalar OsgEarthNet.uav[13] utilizationEnergyOverdrawMission 0
scalar OsgEarthNet.uav[13] utilizationEnergyOverdrawMaintenance 0
scalar OsgEarthNet.uav[13] utilizationCountMissions 28
scalar OsgEarthNet.uav[13] utilizationCountManeuversMission 551
scalar OsgEarthNet.uav[13] utilizationCountManeuversMaintenance 55
scalar OsgEarthNet.uav[13] utilizationCountChargeState 28
scalar OsgEarthNet.uav[13] utilizationCountOverdrawnAfterMission 0
scalar OsgEarthNet.uav[13] utilizationCountIdleState 29
scalar OsgEarthNet.uav[13] utilizationFail 0
scalar OsgEarthNet.uav[13] simulationTime 259200
scalar OsgEarthNet.uav[14] utilizationSecMission 28070.888012394
scalar OsgEarthNet.uav[14] utilizationSecMaintenance 16702.072875096
scalar OsgEarthNet.uav[14] utilizationSecCharge 170079.23250453
scalar OsgEarthNet.uav[14] utilizationSecIdle 44347.805607979
scalar OsgEarthNet.uav[14] utilizationEnergyMission 136254.63681793
scalar OsgEarthNet.uav[14] utilizationEnergyMaintenance 79284.926044464
scalar OsgEarthNet.uav[14] utilizationEnergyCharge 211273.64819336
scalar OsgEarthNet.uav[14] utilizationEnergyOverdrawMission 0
scalar OsgEarthNet.uav[14] utilizationEnergyOverdrawMaintenance 0
scalar OsgEarthNet.uav[14] utilizationCountMissions 54
scalar OsgEarthNet.uav[14] utilizationCountManeuversMission 845
scalar OsgEarthNet.uav[14] utilizationCountManeuversMaintenance 108
scalar OsgEarthNet.uav[14] utilizationCountChargeState 54
scalar OsgEarthNet.uav[14] utilizationCountOverdrawnAfterMission 0
scalar OsgEarthNet.uav[14] utilizationCountIdleState 54
scalar OsgEarthNet.uav[14] utilizationFail 0
scalar OsgEarthNet.uav[14] simulationTime 259200
scalar OsgEarthNet.uav[15] utilizationSecMission 15780.426020783
scalar OsgEarthNet.uav[15] utilizationSecMaintenance 10384.116801497
scalar OsgEarthNet.uav[15] utilizationSecCharge 95046.48746208
scalar OsgEarthNet.uav[15] utilizationSecIdle 137988.96871564
scalar OsgEarthNet.uav[15] utilizationEnergyMission 76359.492637634
scalar OsgEarthNet.uav[15] utilizationEnergyMaintenance 49153.206447601
scalar OsgEarthNet.uav[15] utilizationEnergyCharge 122600.35327148
scalar OsgEarthNet.uav[15] utilizationEnergyOverdrawMission 0
scalar OsgEarthNet.uav[15] utilizationEnergyOverdrawMaintenance 0
scalar OsgEarthNet.uav[15] utilizationCountMissions 28
scalar OsgEarthNet.uav[15] utilizationCountManeuversMission 513
scalar OsgEarthNet.uav[15] utilizationCountManeuversMaintenance 56
scalar OsgEarthNet.uav[15] utilizationCountChargeState 28
scalar OsgEarthNet.uav[15] utilizationCountOverdrawnAfterMission 0
scalar OsgEarthNet.uav[15] utilizationCountIdleState 28
scalar OsgEarthNet.uav[15] utilizationFail 0
scalar OsgEarthNet.uav[15] simulationTime 259200
scalar OsgEarthNet.uav[16] utilizationSecMission 18131.793735458
scalar OsgEarthNet.uav[16] utilizationSecMaintenance 11596.204264542
scalar OsgEarthNet.uav[16] utilizationSecCharge 109710
scalar OsgEarthNet.uav[16] utilizationSecIdle 119762.001
scalar OsgEarthNet.uav[16] utilizationEnergyMission 87926.949789877
scalar OsgEarthNet.uav[16] utilizationEnergyMaintenance 55359.519458771
scalar OsgEarthNet.uav[16] utilizationEnergyCharge 141481.87744141
scalar OsgEarthNet.uav[16] utilizationEnergyOverdrawMission 0
scalar OsgEarthNet.uav[16] utilizationEnergyOverdrawMaintenance 0
scalar OsgEarthNet.uav[16] utilizationCountMissions 31
scalar OsgEarthNet.uav[16] utilizationCountManeuversMission 595
scalar OsgEarthNet.uav[16] utilizationCountManeuversMaintenance 63
scalar OsgEarthNet.uav[16] utilizationCountChargeState 31
scalar OsgEarthNet.uav[16] utilizationCountOverdrawnAfterMission 0
scalar OsgEarthNet.uav[16] utilizationCountIdleState 32
scalar OsgEarthNet.uav[16] utilizationFail 0
scalar OsgEarthNet.uav[16] simulationTime 259200
scalar OsgEarthNet.uav[17] utilizationSecMission 29326.467275023
scalar OsgEarthNet.uav[17] utilizationSecMaintenance 16593.41823874
scalar OsgEarthNet.uav[17] utilizationSecCharge 175246.44530825
scalar OsgEarthNet.uav[17] utilizationSecIdle 38033.668177988
scalar OsgEarthNet.uav[17] utilizationEnergyMission 139570.56607819
scalar OsgEarthNet.uav[17] utilizationEnergyMaintenance 78989.062438965
scalar OsgEarthNet.uav[17] utilizationEnergyCharge 218576.65283203
scalar OsgEarthNet.uav[17] utilizationEnergyOverdrawMission 0
scalar OsgEarthNet.uav[17] utilizationEnergyOverdrawMaintenance 0
scalar OsgEarthNet.uav[17] utilizationCountMissions 55
scalar OsgEarthNet.uav[17] utilizationCountManeuversMission 774
scalar OsgEarthNet.uav[17] utilizationCountManeuversMaintenance 110
scalar OsgEarthNet.uav[17] utilizationCountChargeState 55
scalar OsgEarthNet.uav[17] utilizationCountOverdrawnAfterMission 0
scalar OsgEarthNet.uav[17] utilizationCountIdleState 55
scalar OsgEarthNet.uav[17] utilizationFail 0
scalar OsgEarthNet.uav[17] simulationTime 259200
scalar OsgEarthNet.uav[18] utilizationSecMission 35132.731668091
scalar OsgEarthNet.uav[18] utilizationSecMaintenance 15355.85107908
scalar OsgEarthNet.uav[18] utilizationSecCharge 185989.41325283
scalar OsgEarthNet.uav[18] utilizationSecIdle 22722.003
scalar OsgEarthNet.uav[18] utilizationEnergyMission 172249.63131714
scalar OsgEarthNet.uav[18] utilizationEnergyMaintenance 70955.295558929
scalar OsgEarthNet.uav[18] utilizationEnergyCharge 242452.0402832
scalar OsgEarthNet.uav[18] utilizationEnergyOverdrawMission 0
scalar OsgEarthNet.uav[18] utilizationEnergyOverdrawMaintenance 0
scalar OsgEarthNet.uav[18] utilizationCountMissions 53
scalar OsgEarthNet.uav[18] utilizationCountManeuversMission 1228
scalar OsgEarthNet.uav[18] utilizationCountManeuversMaintenance 106
scalar OsgEarthNet.uav[18] utilizationCountChargeState 53
scalar OsgEarthNet.uav[18] utilizationCountOverdrawnAfterMission 0
scalar OsgEarthNet.uav[18] utilizationCountIdleState 49
scalar OsgEarthNet.uav[18] utilizationFail 0
scalar OsgEarthNet.uav[18] simulationTime 259200
scalar OsgEarthNet.uav[19] utilizationSecMission 16507.501830963
scalar OsgEarthNet.uav[19] utilizationSecMaintenance 10001.064718671
scalar OsgEarthNet.uav[19] utilizationSecCharge 96978.983572975
scalar OsgEarthNet.uav[19] utilizationSecIdle 135712.44887739
scalar OsgEarthNet.uav[19] utilizationEnergyMission 80585.510650635
scalar OsgEarthNet.uav[19] utilizationEnergyMaintenance 47601.317642212
scalar OsgEarthNet.uav[19] utilizationEnergyCharge 126015.38696289
scalar OsgEarthNet.uav[19] utilizationEnergyOverdrawMission 0
scalar OsgEarthNet.uav[19] utilizationEnergyOverdrawMaintenance 0
scalar OsgEarthNet.uav[19] utilizationCountMissions 28
scalar OsgEarthNet.uav[19] utilizationCountManeuversMission 513
scalar OsgEarthNet.uav[19] utilizationCountManeuversMaintenance 56
scalar OsgEarthNet.uav[19] utilizationCountChargeState 28
scalar OsgEarthNet.uav[19] utilizationCountOverdrawnAfterMission 0
scalar OsgEarthNet.uav[19] utilizationCountIdleState 28
scalar OsgEarthNet.uav[19] utilizationFail 0
scalar OsgEarthNet.uav[19] simulationTime 259200
scalar OsgEarthNet.uav[20] utilizationSecMission 34670.612807716
scalar OsgEarthNet.uav[20] utilizationSecMaintenance 15736.604524551
scalar OsgEarthNet.uav[20] utilizationSecCharge 184860.43119441
scalar OsgEarthNet.uav[20] utilizationSecIdle 23932.350473324
scalar OsgEarthNet.uav[20] utilizationEnergyMission 171000.5007782
scalar OsgEarthNet.uav[20] utilizationEnergyMaintenance 70845.937721252
scalar OsgEarthNet.uav[20] utilizationEnergyCharge 240407.54406738
scalar OsgEarthNet.uav[20] utilizationEnergyOverdrawMission 0
scalar OsgEarthNet.uav[20] utilizationEnergyOverdrawMaintenance 0
scalar OsgEarthNet.uav[20] utilizationCountMissions 53
scalar OsgEarthNet.uav[20] utilizationCountManeuversMission 1238
scalar OsgEarthNet.uav[20] utilizationCountManeuversMaintenance 106
scalar OsgEarthNet.uav[20] utilizationCountChargeState 53
scalar OsgEarthNet.uav[20] utilizationCountOverdrawnAfterMission 0
scalar OsgEarthNet.uav[20] utilizationCountIdleState 50
scalar OsgEarthNet.uav[20] utilizationFail 0
scalar OsgEarthNet.uav[20] simulationTime 259200
scalar OsgEarthNet.uav[21] utilizationSecMission 29430.578570238
scalar OsgEarthNet.uav[21] utilizationSecMaintenance 16652.403178781
scalar OsgEarthNet.uav[21] utilizationSecCharge 172046.99697684
scalar OsgEarthNet.uav[21] utilizationSecIdle 41070.020274145
scalar OsgEarthNet.uav[21] utilizationEnergyMission 142638.10036469
scalar OsgEarthNet.uav[21] utilizationEnergyMaintenance 78014.920734406
scalar OsgEarthNet.uav[21] utilizationEnergyCharge 214881.91265869
scalar OsgEarthNet.uav[21] utilizationEnergyOverdrawMission 0
scalar OsgEarthNet.uav[21] utilizationEnergyOverdrawMaintenance 0
scalar OsgEarthNet.uav[21] utilizationCountMissions 54
scalar OsgEarthNet.uav[21] utilizationCountManeuversMission 870
scalar OsgEarthNet.uav[21] utilizationCountManeuversMaintenance 108
scalar OsgEarthNet.uav[21] utilizationCountChargeState 54
scalar OsgEarthNet.uav[21] utilizationCountOverdrawnAfterMission 0
scalar OsgEarthNet.uav[21] utilizationCountIdleState 54
scalar OsgEarthNet.uav[21] utilizationFail 0
scalar OsgEarthNet.uav[21] simulationTime 259200
scalar OsgEarthNet.uav[22] utilizationSecMission 37999.693952354
scalar OsgEarthNet.uav[22] utilizationSecMaintenance 14098.632240599
scalar OsgEarthNet.uav[22] utilizationSecCharge 185279.67280705
scalar OsgEarthNet.uav[22] utilizationSecIdle 21822
scalar OsgEarthNet.uav[22] utilizationEnergyMission 181757.77886345
scalar OsgEarthNet.uav[22] utilizationEnergyMaintenance 64516.724941254
scalar OsgEarthNet.uav[22] utilizationEnergyCharge 240581.41491699
scalar OsgEarthNet.uav[22] utilizationEnergyOverdrawMission 0
scalar OsgEarthNet.uav[22] utilizationEnergyOverdrawMaintenance 0
scalar OsgEarthNet.uav[22] utilizationCountMissions 53
scalar OsgEarthNet.uav[22] utilizationCountManeuversMission 1042
scalar OsgEarthNet.uav[22] utilizationCountManeuversMaintenance 105
scalar OsgEarthNet.uav[22] utilizationCountChargeState 53
scalar OsgEarthNet.uav[22] utilizationCountOverdrawnAfterMission 0
scalar OsgEarthNet.uav[22] utilizationCountIdleState 52
scalar OsgEarthNet.uav[22] utilizationFail 0
scalar OsgEarthNet.uav[22] simulationTime 259200
scalar OsgEarthNet.uav[23] utilizationSecMission 34632.378039328
scalar OsgEarthNet.uav[23] utilizationSecMaintenance 15230.861099606
scalar OsgEarthNet.uav[23] utilizationSecCharge 183468.37201216
scalar OsgEarthNet.uav[23] utilizationSecIdle 25868.38784891
scalar OsgEarthNet.uav[23] utilizationEnergyMission 169064.43731308
scalar OsgEarthNet.uav[23] utilizationEnergyMaintenance 69890.252773285
scalar OsgEarthNet.uav[23] utilizationEnergyCharge 238454.84472656
scalar OsgEarthNet.uav[23] utilizationEnergyOverdrawMission 0
scalar OsgEarthNet.uav[23] utilizationEnergyOverdrawMaintenance 0
scalar OsgEarthNet.uav[23] utilizationCountMissions 52
scalar OsgEarthNet.uav[23] utilizationCountManeuversMission 1111
scalar OsgEarthNet.uav[23] utilizationCountManeuversMaintenance 104
scalar OsgEarthNet.uav[23] utilizationCountChargeState 52
scalar OsgEarthNet.uav[23] utilizationCountOverdrawnAfterMission 0
scalar OsgEarthNet.uav[23] utilizationCountIdleState 52
scalar OsgEarthNet.uav[23] utilizationFail 0
scalar OsgEarthNet.uav[23] simulationTime 259200
scalar OsgEarthNet.uav[24] utilizationSecMission 27751.934917368
scalar OsgEarthNet.uav[24] utilizationSecMaintenance 16778.48156258
scalar OsgEarthNet.uav[24] utilizationSecCharge 171107.57652005
scalar OsgEarthNet.uav[24] utilizationSecIdle 43562.006
scalar OsgEarthNet.uav[24] utilizationEnergyMission 131917.76379013
scalar OsgEarthNet.uav[24] utilizationEnergyMaintenance 79641.289997101
scalar OsgEarthNet.uav[24] utilizationEnergyCharge 211222.00170898
scalar OsgEarthNet.uav[24] utilizationEnergyOverdrawMission 0
scalar OsgEarthNet.uav[24] utilizationEnergyOverdrawMaintenance 0
scalar OsgEarthNet.uav[24] utilizationCountMissions 55
scalar OsgEarthNet.uav[24] utilizationCountManeuversMission 783
scalar OsgEarthNet.uav[24] utilizationCountManeuversMaintenance 110
scalar OsgEarthNet.uav[24] utilizationCountChargeState 55
scalar OsgEarthNet.uav[24] utilizationCountOverdrawnAfterMission 0
scalar OsgEarthNet.uav[24] utilizationCountIdleState 55
scalar OsgEarthNet.uav[24] utilizationFail 0
scalar OsgEarthNet.uav[24] simulationTime 259200
scalar OsgEarthNet.uav[25] utilizationSecMission 37548.157129361
scalar OsgEarthNet.uav[25] utilizationSecMaintenance 13627.102241341
scalar OsgEarthNet.uav[25] utilizationSecCharge 183342.7356293
scalar OsgEarthNet.uav[25] utilizationSecIdle 24682.004
scalar OsgEarthNet.uav[25] utilizationEnergyMission 181830.53493118
scalar OsgEarthNet.uav[25] utilizationEnergyMaintenance 62360.286117554
scalar OsgEarthNet.uav[25] utilizationEnergyCharge 238952.62658691
scalar OsgEarthNet.uav[25] utilizationEnergyOverdrawMission 0
scalar OsgEarthNet.uav[25] utilizationEnergyOverdrawMaintenance 0
scalar OsgEarthNet.uav[25] utilizationCountMissions 52
scalar OsgEarthNet.uav[25] utilizationCountManeuversMission 1152
scalar OsgEarthNet.uav[25] utilizationCountManeuversMaintenance 104
scalar OsgEarthNet.uav[25] utilizationCountChargeState 52
scalar OsgEarthNet.uav[25] utilizationCountOverdrawnAfterMission 0
scalar OsgEarthNet.uav[25] utilizationCountIdleState 50
scalar OsgEarthNet.uav[25] utilizationFail 0
scalar OsgEarthNet.uav[25] simulationTime 259200
scalar OsgEarthNet.uav[26] utilizationSecMission 15216.618639633
scalar OsgEarthNet.uav[26] utilizationSecMaintenance 9131.4368155356
scalar OsgEarthNet.uav[26] utilizationSecCharge 91790
scalar OsgEarthNet.uav[26] utilizationSecIdle 143061.94354483
scalar OsgEarthNet.uav[26] utilizationEnergyMission 74252.829105377
scalar OsgEarthNet.uav[26] utilizationEnergyMaintenance 42779.121910095
scalar OsgEarthNet.uav[26] utilizationEnergyCharge 118121.10107422
scalar OsgEarthNet.uav[26] utilizationEnergyOverdrawMission 0
scalar OsgEarthNet.uav[26] utilizationEnergyOverdrawMaintenance 0
scalar OsgEarthNet.uav[26] utilizationCountMissions 26
scalar OsgEarthNet.uav[26] utilizationCountManeuversMission 479
scalar OsgEarthNet.uav[26] utilizationCountManeuversMaintenance 52
scalar OsgEarthNet.uav[26] utilizationCountChargeState 26
scalar OsgEarthNet.uav[26] utilizationCountOverdrawnAfterMission 0
scalar OsgEarthNet.uav[26] utilizationCountIdleState 27
scalar OsgEarthNet.uav[26] utilizationFail 0
scalar OsgEarthNet.uav[26] simulationTime 259200
scalar OsgEarthNet.uav[27] utilizationSecMission 29139.883458089
scalar OsgEarthNet.uav[27] utilizationSecMaintenance 15775.555361575
scalar OsgEarthNet.uav[27] utilizationSecCharge 169007.15028899
scalar OsgEarthNet.uav[27] utilizationSecIdle 45277.40989135
scalar OsgEarthNet.uav[27] utilizationEnergyMission 141013.31868362
scalar OsgEarthNet.uav[27] utilizationEnergyMaintenance 74647.51342392
scalar OsgEarthNet.uav[27] utilizationEnergyCharge 213166.37939453
scalar OsgEarthNet.uav[27] utilizationEnergyOverdrawMission 0
scalar OsgEarthNet.uav[27] utilizationEnergyOverdrawMaintenance 0
scalar OsgEarthNet.uav[27] utilizationCountMissions 52
scalar OsgEarthNet.uav[27] utilizationCountManeuversMission 850
scalar OsgEarthNet.uav[27] utilizationCountManeuversMaintenance 104
scalar OsgEarthNet.uav[27] utilizationCountChargeState 52
scalar OsgEarthNet.uav[27] utilizationCountOverdrawnAfterMission 0
scalar OsgEarthNet.uav[27] utilizationCountIdleState 52
scalar OsgEarthNet.uav[27] utilizationFail 0
scalar OsgEarthNet.uav[27] simulationTime 259200
scalar OsgEarthNet.uav[28] utilizationSecMission 36008.498300882
scalar OsgEarthNet.uav[28] utilizationSecMaintenance 14522.652537121
scalar OsgEarthNet.uav[28] utilizationSecCharge 185100
scalar OsgEarthNet.uav[28] utilizationSecIdle 23568.848161997
scalar OsgEarthNet.uav[28] utilizationEnergyMission 178125.10250156
scalar OsgEarthNet.uav[28] utilizationEnergyMaintenance 66977.52696991
scalar OsgEarthNet.uav[28] utilizationEnergyCharge 240319.29199219
scalar OsgEarthNet.uav[28] utilizationEnergyOverdrawMission 0
scalar OsgEarthNet.uav[28] utilizationEnergyOverdrawMaintenance 0
scalar OsgEarthNet.uav[28] utilizationCountMissions 52
scalar OsgEarthNet.uav[28] utilizationCountManeuversMission 1252
scalar OsgEarthNet.uav[28] utilizationCountManeuversMaintenance 105
scalar OsgEarthNet.uav[28] utilizationCountChargeState 52
scalar OsgEarthNet.uav[28] utilizationCountOverdrawnAfterMission 0
scalar OsgEarthNet.uav[28] utilizationCountIdleState 52
scalar OsgEarthNet.uav[28] utilizationFail 0
scalar OsgEarthNet.uav[28] simulationTime 259200
scalar OsgEarthNet.uav[29] utilizationSecMission 20858.675964146
scalar OsgEarthNet.uav[29] utilizationSecMaintenance 13124.049490714
scalar OsgEarthNet.uav[29] utilizationSecCharge 129525.26454514
scalar OsgEarthNet.uav[29] utilizationSecIdle 95692.009
scalar OsgEarthNet.uav[29] utilizationEnergyMission 100943.49382019
scalar OsgEarthNet.uav[29] utilizationEnergyMaintenance 63101.081867218
scalar OsgEarthNet.uav[29] utilizationEnergyCharge 164791.09326172
scalar OsgEarthNet.uav[29] utilizationEnergyOverdrawMission 0
scalar OsgEarthNet.uav[29] utilizationEnergyOverdrawMaintenance 0
scalar OsgEarthNet.uav[29] utilizationCountMissions 39
scalar OsgEarthNet.uav[29] utilizationCountManeuversMission 647
scalar OsgEarthNet.uav[29] utilizationCountManeuversMaintenance 78
scalar OsgEarthNet.uav[29] utilizationCountChargeState 39
scalar OsgEarthNet.uav[29] utilizationCountOverdrawnAfterMission 0
scalar OsgEarthNet.uav[29] utilizationCountIdleState 39
scalar OsgEarthNet.uav[29] utilizationFail 0
scalar OsgEarthNet.uav[29] simulationTime 259200
scalar OsgEarthNet.uav[30] utilizationSecMission 16115.368334472
scalar OsgEarthNet.uav[30] utilizationSecMaintenance 10982.202967303
scalar OsgEarthNet.uav[30] utilizationSecCharge 102290.42169822
scalar OsgEarthNet.uav[30] utilizationSecIdle 129812.006
scalar OsgEarthNet.uav[30] utilizationEnergyMission 79130.372116089
scalar OsgEarthNet.uav[30] utilizationEnergyMaintenance 52542.255580902
scalar OsgEarthNet.uav[30] utilizationEnergyCharge 132655.71191406
scalar OsgEarthNet.uav[30] utilizationEnergyOverdrawMission 0
scalar OsgEarthNet.uav[30] utilizationEnergyOverdrawMaintenance 0
scalar OsgEarthNet.uav[30] utilizationCountMissions 29
scalar OsgEarthNet.uav[30] utilizationCountManeuversMission 576
scalar OsgEarthNet.uav[30] utilizationCountManeuversMaintenance 58
scalar OsgEarthNet.uav[30] utilizationCountChargeState 29
scalar OsgEarthNet.uav[30] utilizationCountOverdrawnAfterMission 0
scalar OsgEarthNet.uav[30] utilizationCountIdleState 29
scalar OsgEarthNet.uav[30] utilizationFail 0
scalar OsgEarthNet.uav[30] simulationTime 259200
scalar OsgEarthNet.uav[31] utilizationSecMission 26605.566231035
scalar OsgEarthNet.uav[31] utilizationSecMaintenance 14966.927998947
scalar OsgEarthNet.uav[31] utilizationSecCharge 155750
scalar OsgEarthNet.uav[31] utilizationSecIdle 61877.504770018
scalar OsgEarthNet.uav[31] utilizationEnergyMission 127913.61110687
scalar OsgEarthNet.uav[31] utilizationEnergyMaintenance 70729.775276184
scalar OsgEarthNet.uav[31] utilizationEnergyCharge 197785.20800781
scalar OsgEarthNet.uav[31] utilizationEnergyOverdrawMission 0
scalar OsgEarthNet.uav[31] utilizationEnergyOverdrawMaintenance 0
scalar OsgEarthNet.uav[31] utilizationCountMissions 46
scalar OsgEarthNet.uav[31] utilizationCountManeuversMission 822
scalar OsgEarthNet.uav[31] utilizationCountManeuversMaintenance 92
scalar OsgEarthNet.uav[31] utilizationCountChargeState 46
scalar OsgEarthNet.uav[31] utilizationCountOverdrawnAfterMission 0
scalar OsgEarthNet.uav[31] utilizationCountIdleState 47
scalar OsgEarthNet.uav[31] utilizationFail 0
scalar OsgEarthNet.uav[31] simulationTime 259200
scalar OsgEarthNet.uav[32] utilizationSecMission 33708.986169236
scalar OsgEarthNet.uav[32] utilizationSecMaintenance 16966.281673938
scalar OsgEarthNet.uav[32] utilizationSecCharge 188440
scalar OsgEarthNet.uav[32] utilizationSecIdle 20084.731156826
scalar OsgEarthNet.uav[32] utilizationEnergyMission 165201.60482407
scalar OsgEarthNet.uav[32] utilizationEnergyMaintenance 78387.64377594
scalar OsgEarthNet.uav[32] utilizationEnergyCharge 244019.13232422
scalar OsgEarthNet.uav[32] utilizationEnergyOverdrawMission 0
scalar OsgEarthNet.uav[32] utilizationEnergyOverdrawMaintenance 0
scalar OsgEarthNet.uav[32] utilizationCountMissions 54
scalar OsgEarthNet.uav[32] utilizationCountManeuversMission 1256
scalar OsgEarthNet.uav[32] utilizationCountManeuversMaintenance 108
scalar OsgEarthNet.uav[32] utilizationCountChargeState 54
scalar OsgEarthNet.uav[32] utilizationCountOverdrawnAfterMission 0
scalar OsgEarthNet.uav[32] utilizationCountIdleState 50
scalar OsgEarthNet.uav[32] utilizationFail 0
scalar OsgEarthNet.uav[32] simulationTime 259200
scalar OsgEarthNet.uav[33] utilizationSecMission 17347.501830963
scalar OsgEarthNet.uav[33] utilizationSecMaintenance 10721.173466224
scalar OsgEarthNet.uav[33] utilizationSecCharge 105130
scalar OsgEarthNet.uav[33] utilizationSecIdle 126001.32370281
scalar OsgEarthNet.uav[33] utilizationEnergyMission 83868.746112823
scalar OsgEarthNet.uav[33] utilizationEnergyMaintenance 50695.698005676
scalar OsgEarthNet.uav[33] utilizationEnergyCharge 135260.671875
scalar OsgEarthNet.uav[33] utilizationEnergyOverdrawMission 0
scalar OsgEarthNet.uav[33] utilizationEnergyOverdrawMaintenance 0
scalar OsgEarthNet.uav[33] utilizationCountMissions 30
scalar OsgEarthNet.uav[33] utilizationCountManeuversMission 555
scalar OsgEarthNet.uav[33] utilizationCountManeuversMaintenance 60
scalar OsgEarthNet.uav[33] utilizationCountChargeState 30
scalar OsgEarthNet.uav[33] utilizationCountOverdrawnAfterMission 0
scalar OsgEarthNet.uav[33] utilizationCountIdleState 31
scalar OsgEarthNet.uav[33] utilizationFail 0
scalar OsgEarthNet.uav[33] simulationTime 259200
scalar OsgEarthNet.uav[34] utilizationSecMission 29000.433577277
scalar OsgEarthNet.uav[34] utilizationSecMaintenance 17103.808855161
scalar OsgEarthNet.uav[34] utilizationSecCharge 175538.44048573
scalar OsgEarthNet.uav[34] utilizationSecIdle 37557.316081831
scalar OsgEarthNet.uav[34] utilizationEnergyMission 140684.58948517
scalar OsgEarthNet.uav[34] utilizationEnergyMaintenance 81417.463165283
scalar OsgEarthNet.uav[34] utilizationEnergyCharge 219335.60742188
scalar OsgEarthNet.uav[34] utilizationEnergyOverdrawMission 0
scalar OsgEarthNet.uav[34] utilizationEnergyOverdrawMaintenance 0
scalar OsgEarthNet.uav[34] utilizationCountMissions 55
scalar OsgEarthNet.uav[34] utilizationCountManeuversMission 877
scalar OsgEarthNet.uav[34] utilizationCountManeuversMaintenance 110
scalar OsgEarthNet.uav[34] utilizationCountChargeState 55
scalar OsgEarthNet.uav[34] utilizationCountOverdrawnAfterMission 0
scalar OsgEarthNet.uav[34] utilizationCountIdleState 55
scalar OsgEarthNet.uav[34] utilizationFail 0
scalar OsgEarthNet.uav[34] simulationTime 259200
scalar OsgEarthNet.uav[35] utilizationSecMission 37257.810523526
scalar OsgEarthNet.uav[35] utilizationSecMaintenance 14093.984779479
scalar OsgEarthNet.uav[35] utilizationSecCharge 186036.203697
scalar OsgEarthNet.uav[35] utilizationSecIdle 21812
scalar OsgEarthNet.uav[35] utilizationEnergyMission 180081.99810682
scalar OsgEarthNet.uav[35] utilizationEnergyMaintenance 65406.079647064
scalar OsgEarthNet.uav[35] utilizationEnergyCharge 243043.44238281
scalar OsgEarthNet.uav[35] utilizationEnergyOverdrawMission 0
scalar OsgEarthNet.uav[35] utilizationEnergyOverdrawMaintenance 0
scalar OsgEarthNet.uav[35] utilizationCountMissions 53
scalar OsgEarthNet.uav[35] utilizationCountManeuversMission 1161
scalar OsgEarthNet.uav[35] utilizationCountManeuversMaintenance 105
scalar OsgEarthNet.uav[35] utilizationCountChargeState 53
scalar OsgEarthNet.uav[35] utilizationCountOverdrawnAfterMission 0
scalar OsgEarthNet.uav[35] utilizationCountIdleState 50
scalar OsgEarthNet.uav[35] utilizationFail 0
scalar OsgEarthNet.uav[35] simulationTime 259200
scalar OsgEarthNet.uav[36] utilizationSecMission 16667.501830963
scalar OsgEarthNet.uav[36] utilizationSecMaintenance 9826.3100125251
scalar OsgEarthNet.uav[36] utilizationSecCharge 96524.171156511
scalar OsgEarthNet.uav[36] utilizationSecIdle 136182.016
scalar OsgEarthNet.uav[36] utilizationEnergyMission 80944.692710876
scalar OsgEarthNet.uav[36] utilizationEnergyMaintenance 47205.614334106
scalar OsgEarthNet.uav[36] utilizationEnergyCharge 124839.84399414
scalar OsgEarthNet.uav[36] utilizationEnergyOverdrawMission 0
scalar OsgEarthNet.uav[36] utilizationEnergyOverdrawMaintenance 0
scalar OsgEarthNet.uav[36] utilizationCountMissions 28
scalar OsgEarthNet.uav[36] utilizationCountManeuversMission 521
scalar OsgEarthNet.uav[36] utilizationCountManeuversMaintenance 56
scalar OsgEarthNet.uav[36] utilizationCountChargeState 28
scalar OsgEarthNet.uav[36] utilizationCountOverdrawnAfterMission 0
scalar OsgEarthNet.uav[36] utilizationCountIdleState 28
scalar OsgEarthNet.uav[36] utilizationFail 0
scalar OsgEarthNet.uav[36] simulationTime 259200
scalar OsgEarthNet.uav[37] utilizationSecMission 30483.441391729
scalar OsgEarthNet.uav[37] utilizationSecMaintenance 15754.549608271
scalar OsgEarthNet.uav[37] utilizationSecCharge 175870
scalar OsgEarthNet.uav[37] utilizationSecIdle 37092.008
scalar OsgEarthNet.uav[37] utilizationEnergyMission 145194.59442902
scalar OsgEarthNet.uav[37] utilizationEnergyMaintenance 75285.237523097
scalar OsgEarthNet.uav[37] utilizationEnergyCharge 220006.00561523
scalar OsgEarthNet.uav[37] utilizationEnergyOverdrawMission 0
scalar OsgEarthNet.uav[37] utilizationEnergyOverdrawMaintenance 0
scalar OsgEarthNet.uav[37] utilizationCountMissions 54
scalar OsgEarthNet.uav[37] utilizationCountManeuversMission 764
scalar OsgEarthNet.uav[37] utilizationCountManeuversMaintenance 109
scalar OsgEarthNet.uav[37] utilizationCountChargeState 54
scalar OsgEarthNet.uav[37] utilizationCountOverdrawnAfterMission 0
scalar OsgEarthNet.uav[37] utilizationCountIdleState 55
scalar OsgEarthNet.uav[37] utilizationFail 0
scalar OsgEarthNet.uav[37] simulationTime 259200
scalar OsgEarthNet.uav[38] utilizationSecMission 36141.674015859
scalar OsgEarthNet.uav[38] utilizationSecMaintenance 15160.87472011
scalar OsgEarthNet.uav[38] utilizationSecCharge 188340
scalar OsgEarthNet.uav[38] utilizationSecIdle 19557.450264031
scalar OsgEarthNet.uav[38] utilizationEnergyMission 176062.18762589
scalar OsgEarthNet.uav[38] utilizationEnergyMaintenance 69819.988470463
scalar OsgEarthNet.uav[38] utilizationEnergyCharge 245781.85449219
scalar OsgEarthNet.uav[38] utilizationEnergyOverdrawMission 0
scalar OsgEarthNet.uav[38] utilizationEnergyOverdrawMaintenance 0
scalar OsgEarthNet.uav[38] utilizationCountMissions 53
scalar OsgEarthNet.uav[38] utilizationCountManeuversMission 1114
scalar OsgEarthNet.uav[38] utilizationCountManeuversMaintenance 107
scalar OsgEarthNet.uav[38] utilizationCountChargeState 53
scalar OsgEarthNet.uav[38] utilizationCountOverdrawnAfterMission 0
scalar OsgEarthNet.uav[38] utilizationCountIdleState 49
scalar OsgEarthNet.uav[38] utilizationFail 0
scalar OsgEarthNet.uav[38] simulationTime 259200
scalar OsgEarthNet.uav[39] utilizationSecMission 13977.134717134
scalar OsgEarthNet.uav[39] utilizationSecMaintenance 7810.32495744
scalar OsgEarthNet.uav[39] utilizationSecCharge 80940
scalar OsgEarthNet.uav[39] utilizationSecIdle 156472.53932543
scalar OsgEarthNet.uav[39] utilizationEnergyMission 66266.587047577
scalar OsgEarthNet.uav[39] utilizationEnergyMaintenance 37226.610340118
scalar OsgEarthNet.uav[39] utilizationEnergyCharge 104359.69921875
scalar OsgEarthNet.uav[39] utilizationEnergyOverdrawMission 0
scalar OsgEarthNet.uav[39] utilizationEnergyOverdrawMaintenance 0
scalar OsgEarthNet.uav[39] utilizationCountMissions 23
scalar OsgEarthNet.uav[39] utilizationCountManeuversMission 408
scalar OsgEarthNet.uav[39] utilizationCountManeuversMaintenance 46
scalar OsgEarthNet.uav[39] utilizationCountChargeState 23
scalar OsgEarthNet.uav[39] utilizationCountOverdrawnAfterMission 0
scalar OsgEarthNet.uav[39] utilizationCountIdleState 24
scalar OsgEarthNet.uav[39] utilizationFail 0
scalar OsgEarthNet.uav[39] simulationTime 259200
scalar OsgEarthNet.uav[40] utilizationSecMission 13425.001220642
scalar OsgEarthNet.uav[40] utilizationSecMaintenance 9053.5852341874
scalar OsgEarthNet.uav[40] utilizationSecCharge 81731.468288626
scalar OsgEarthNet.uav[40] utilizationSecIdle 154989.94425654
scalar OsgEarthNet.uav[40] utilizationEnergyMission 65002.937072754
scalar OsgEarthNet.uav[40] utilizationEnergyMaintenance 42881.369995117
scalar OsgEarthNet.uav[40] utilizationEnergyCharge 105858.98730469
scalar OsgEarthNet.uav[40] utilizationEnergyOverdrawMission 0
scalar OsgEarthNet.uav[40] utilizationEnergyOverdrawMaintenance 0
scalar OsgEarthNet.uav[40] utilizationCountMissions 24
scalar OsgEarthNet.uav[40] utilizationCountManeuversMission 463
scalar OsgEarthNet.uav[40] utilizationCountManeuversMaintenance 48
scalar OsgEarthNet.uav[40] utilizationCountChargeState 24
scalar OsgEarthNet.uav[40] utilizationCountOverdrawnAfterMission 0
scalar OsgEarthNet.uav[40] utilizationCountIdleState 24
scalar OsgEarthNet.uav[40] utilizationFail 0
scalar OsgEarthNet.uav[40] simulationTime 259200
scalar OsgEarthNet.uav[41] utilizationSecMission 28634.076249444
scalar OsgEarthNet.uav[41] utilizationSecMaintenance 17883.922750556
scalar OsgEarthNet.uav[41] utilizationSecCharge 180310
scalar OsgEarthNet.uav[41] utilizationSecIdle 32372
scalar OsgEarthNet.uav[41] utilizationEnergyMission 138707.86764418
scalar OsgEarthNet.uav[41] utilizationEnergyMaintenance 85440.050559998
scalar OsgEarthNet.uav[41] utilizationEnergyCharge 222243.60864258
scalar OsgEarthNet.uav[41] utilizationEnergyOverdrawMission 0
scalar OsgEarthNet.uav[41] utilizationEnergyOverdrawMaintenance 0
scalar OsgEarthNet.uav[41] utilizationCountMissions 57
scalar OsgEarthNet.uav[41] utilizationCountManeuversMission 818
scalar OsgEarthNet.uav[41] utilizationCountManeuversMaintenance 115
scalar OsgEarthNet.uav[41] utilizationCountChargeState 57
scalar OsgEarthNet.uav[41] utilizationCountOverdrawnAfterMission 0
scalar OsgEarthNet.uav[41] utilizationCountIdleState 58
scalar OsgEarthNet.uav[41] utilizationFail 0
scalar OsgEarthNet.uav[41] simulationTime 259200
scalar OsgEarthNet.uav[42] utilizationSecMission 35560.308706203
scalar OsgEarthNet.uav[42] utilizationSecMaintenance 15389.853479756
scalar OsgEarthNet.uav[42] utilizationSecCharge 184240
scalar OsgEarthNet.uav[42] utilizationSecIdle 24009.83681404
scalar OsgEarthNet.uav[42] utilizationEnergyMission 172743.06143188
scalar OsgEarthNet.uav[42] utilizationEnergyMaintenance 71409.25420661
scalar OsgEarthNet.uav[42] utilizationEnergyCharge 239100.60888672
scalar OsgEarthNet.uav[42] utilizationEnergyOverdrawMission 0
scalar OsgEarthNet.uav[42] utilizationEnergyOverdrawMaintenance 0
scalar OsgEarthNet.uav[42] utilizationCountMissions 53
scalar OsgEarthNet.uav[42] utilizationCountManeuversMission 1076
scalar OsgEarthNet.uav[42] utilizationCountManeuversMaintenance 106
scalar OsgEarthNet.uav[42] utilizationCountChargeState 52
scalar OsgEarthNet.uav[42] utilizationCountOverdrawnAfterMission 0
scalar OsgEarthNet.uav[42] utilizationCountIdleState 50
scalar OsgEarthNet.uav[42] utilizationFail 0
scalar OsgEarthNet.uav[42] simulationTime 259200
scalar OsgEarthNet.uav[43] utilizationSecMission 15765.735448302
scalar OsgEarthNet.uav[43] utilizationSecMaintenance 10313.617723498
scalar OsgEarthNet.uav[43] utilizationSecCharge 96798.6388282
scalar OsgEarthNet.uav[43] utilizationSecIdle 136322.007
scalar OsgEarthNet.uav[43] utilizationEnergyMission 78088.228694916
scalar OsgEarthNet.uav[43] utilizationEnergyMaintenance 49099.459396362
scalar OsgEarthNet.uav[43] utilizationEnergyCharge 125627.15063477
scalar OsgEarthNet.uav[43] utilizationEnergyOverdrawMission 0
scalar OsgEarthNet.uav[43] utilizationEnergyOverdrawMaintenance 0
scalar OsgEarthNet.uav[43] utilizationCountMissions 28
scalar OsgEarthNet.uav[43] utilizationCountManeuversMission 537
scalar OsgEarthNet.uav[43] utilizationCountManeuversMaintenance 56
scalar OsgEarthNet.uav[43] utilizationCountChargeState 28
scalar OsgEarthNet.uav[43] utilizationCountOverdrawnAfterMission 0
scalar OsgEarthNet.uav[43] utilizationCountIdleState 28
scalar OsgEarthNet.uav[43] utilizationFail 0
scalar OsgEarthNet.uav[43] simulationTime 259200
scalar OsgEarthNet.uav[44] utilizationSecMission 28905.970489238
scalar OsgEarthNet.uav[44] utilizationSecMaintenance 17429.312934317
scalar OsgEarthNet.uav[44] utilizationSecCharge 177042.71057645
scalar OsgEarthNet.uav[44] utilizationSecIdle 35822.005
scalar OsgEarthNet.uav[44] utilizationEnergyMission 138959.37678909
scalar OsgEarthNet.uav[44] utilizationEnergyMaintenance 83447.728515625
scalar OsgEarthNet.uav[44] utilizationEnergyCharge 219913.44848633
scalar OsgEarthNet.uav[44] utilizationEnergyOverdrawMission 0
scalar OsgEarthNet.uav[44] utilizationEnergyOverdrawMaintenance 0
scalar OsgEarthNet.uav[44] utilizationCountMissions 56
scalar OsgEarthNet.uav[44] utilizationCountManeuversMission 833
scalar OsgEarthNet.uav[44] utilizationCountManeuversMaintenance 112
scalar OsgEarthNet.uav[44] utilizationCountChargeState 56
scalar OsgEarthNet.uav[44] utilizationCountOverdrawnAfterMission 0
scalar OsgEarthNet.uav[44] utilizationCountIdleState 56
scalar OsgEarthNet.uav[44] utilizationFail 0
scalar OsgEarthNet.uav[44] simulationTime 259200
scalar OsgEarthNet.uav[45] utilizationSecMission 37580.179772209
scalar OsgEarthNet.uav[45] utilizationSecMaintenance 14074.093852751
scalar OsgEarthNet.uav[45] utilizationSecCharge 186633.72537504
scalar OsgEarthNet.uav[45] utilizationSecIdle 20912
scalar OsgEarthNet.uav[45] utilizationEnergyMission 183331.61665344
scalar OsgEarthNet.uav[45] utilizationEnergyMaintenance 64435.692005157
scalar OsgEarthNet.uav[45] utilizationEnergyCharge 244584.84521484
scalar OsgEarthNet.uav[45] utilizationEnergyOverdrawMission 0
scalar OsgEarthNet.uav[45] utilizationEnergyOverdrawMaintenance 0
scalar OsgEarthNet.uav[45] utilizationCountMissions 53
scalar OsgEarthNet.uav[45] utilizationCountManeuversMission 1119
scalar OsgEarthNet.uav[45] utilizationCountManeuversMaintenance 106
scalar OsgEarthNet.uav[45] utilizationCountChargeState 53
scalar OsgEarthNet.uav[45] utilizationCountOverdrawnAfterMission 0
scalar OsgEarthNet.uav[45] utilizationCountIdleState 50
scalar OsgEarthNet.uav[45] utilizationFail 0
scalar OsgEarthNet.uav[45] simulationTime 259200
scalar OsgEarthNet.uav[46] utilizationSecMission 16046.767603304
scalar OsgEarthNet.uav[46] utilizationSecMaintenance 10268.617046436
scalar OsgEarthNet.uav[46] utilizationSecCharge 99020
scalar OsgEarthNet.uav[46] utilizationSecIdle 133864.61435026
scalar OsgEarthNet.uav[46] utilizationEnergyMission 77767.395076752
scalar OsgEarthNet.uav[46] utilizationEnergyMaintenance 48832.593338013
scalar OsgEarthNet.uav[46] utilizationEnergyCharge 127951.06005859
scalar OsgEarthNet.uav[46] utilizationEnergyOverdrawMission 0
scalar OsgEarthNet.uav[46] utilizationEnergyOverdrawMaintenance 0
scalar OsgEarthNet.uav[46] utilizationCountMissions 28
scalar OsgEarthNet.uav[46] utilizationCountManeuversMission 533
scalar OsgEarthNet.uav[46] utilizationCountManeuversMaintenance 56
scalar OsgEarthNet.uav[46] utilizationCountChargeState 28
scalar OsgEarthNet.uav[46] utilizationCountOverdrawnAfterMission 0
scalar OsgEarthNet.uav[46] utilizationCountIdleState 29
scalar OsgEarthNet.uav[46] utilizationFail 0
scalar OsgEarthNet.uav[46] simulationTime 259200
scalar OsgEarthNet.uav[47] utilizationSecMission 31329.655154257
scalar OsgEarthNet.uav[47] utilizationSecMaintenance 16253.304603893
scalar OsgEarthNet.uav[47] utilizationSecCharge 180205.03924185
scalar OsgEarthNet.uav[47] utilizationSecIdle 31412
scalar OsgEarthNet.uav[47] utilizationEnergyMission 147439.75992203
scalar OsgEarthNet.uav[47] utilizationEnergyMaintenance 76910.088684082
scalar OsgEarthNet.uav[47] utilizationEnergyCharge 224839.8137207
scalar OsgEarthNet.uav[47] utilizationEnergyOverdrawMission 0
scalar OsgEarthNet.uav[47] utilizationEnergyOverdrawMaintenance 0
scalar OsgEarthNet.uav[47] utilizationCountMissions 56
scalar OsgEarthNet.uav[47] utilizationCountManeuversMission 778
scalar OsgEarthNet.uav[47] utilizationCountManeuversMaintenance 111
scalar OsgEarthNet.uav[47] utilizationCountChargeState 56
scalar OsgEarthNet.uav[47] utilizationCountOverdrawnAfterMission 0
scalar OsgEarthNet.uav[47] utilizationCountIdleState 56
scalar OsgEarthNet.uav[47] utilizationFail 0
scalar OsgEarthNet.uav[47] simulationTime 259200
scalar OsgEarthNet.uav[48] utilizationSecMission 35966.154669086
scalar OsgEarthNet.uav[48] utilizationSecMaintenance 15025.047142922
scalar OsgEarthNet.uav[48] utilizationSecCharge 187796.79618799
scalar OsgEarthNet.uav[48] utilizationSecIdle 20412.001
scalar OsgEarthNet.uav[48] utilizationEnergyMission 175769.54718781
scalar OsgEarthNet.uav[48] utilizationEnergyMaintenance 69687.015544891
scalar OsgEarthNet.uav[48] utilizationEnergyCharge 244986.375
scalar OsgEarthNet.uav[48] utilizationEnergyOverdrawMission 0
scalar OsgEarthNet.uav[48] utilizationEnergyOverdrawMaintenance 0
scalar OsgEarthNet.uav[48] utilizationCountMissions 53
scalar OsgEarthNet.uav[48] utilizationCountManeuversMission 1173
scalar OsgEarthNet.uav[48] utilizationCountManeuversMaintenance 106
scalar OsgEarthNet.uav[48] utilizationCountChargeState 53
scalar OsgEarthNet.uav[48] utilizationCountOverdrawnAfterMission 0
scalar OsgEarthNet.uav[48] utilizationCountIdleState 52
scalar OsgEarthNet.uav[48] utilizationFail 0
scalar OsgEarthNet.uav[48] simulationTime 259200
scalar OsgEarthNet.uav[49] utilizationSecMission 17897.243792213
scalar OsgEarthNet.uav[49] utilizationSecMaintenance 11376.43183677
scalar OsgEarthNet.uav[49] utilizationSecCharge 106604.31837102
scalar OsgEarthNet.uav[49] utilizationSecIdle 123322.005
scalar OsgEarthNet.uav[49] utilizationEnergyMission 86154.455490112
scalar OsgEarthNet.uav[49] utilizationEnergyMaintenance 54313.223957062
scalar OsgEarthNet.uav[49] utilizationEnergyCharge 137819.43457031
scalar OsgEarthNet.uav[49] utilizationEnergyOverdrawMission 0
scalar OsgEarthNet.uav[49] utilizationEnergyOverdrawMaintenance 0
scalar OsgEarthNet.uav[49] utilizationCountMissions 31
scalar OsgEarthNet.uav[49] utilizationCountManeuversMission 587
scalar OsgEarthNet.uav[49] utilizationCountManeuversMaintenance 62
scalar OsgEarthNet.uav[49] utilizationCountChargeState 31
scalar OsgEarthNet.uav[49] utilizationCountOverdrawnAfterMission 0
scalar OsgEarthNet.uav[49] utilizationCountIdleState 31
scalar OsgEarthNet.uav[49] utilizationFail 0
scalar OsgEarthNet.uav[49] simulationTime 259200
scalar OsgEarthNet.uav[50] utilizationSecMission 14497.134717134
scalar OsgEarthNet.uav[50] utilizationSecMaintenance 8345.1039440509
scalar OsgEarthNet.uav[50] utilizationSecCharge 84610
scalar OsgEarthNet.uav[50] utilizationSecIdle 151747.76033882
scalar OsgEarthNet.uav[50] utilizationEnergyMission 68963.524089813
scalar OsgEarthNet.uav[50] utilizationEnergyMaintenance 39450.64730835
scalar OsgEarthNet.uav[50] utilizationEnergyCharge 108969.30957031
scalar OsgEarthNet.uav[50] utilizationEnergyOverdrawMission 0
scalar OsgEarthNet.uav[50] utilizationEnergyOverdrawMaintenance 0
scalar OsgEarthNet.uav[50] utilizationCountMissions 24
scalar OsgEarthNet.uav[50] utilizationCountManeuversMission 434
scalar OsgEarthNet.uav[50] utilizationCountManeuversMaintenance 48
scalar OsgEarthNet.uav[50] utilizationCountChargeState 24
scalar OsgEarthNet.uav[50] utilizationCountOverdrawnAfterMission 0
scalar OsgEarthNet.uav[50] utilizationCountIdleState 25
scalar OsgEarthNet.uav[50] utilizationFail 0
scalar OsgEarthNet.uav[50] simulationTime 259200
scalar OsgEarthNet.uav[51] utilizationSecMission 29782.369896253
scalar OsgEarthNet.uav[51] utilizationSecMaintenance 16225.338439891
scalar OsgEarthNet.uav[51] utilizationSecCharge 176370
scalar OsgEarthNet.uav[51] utilizationSecIdle 36822.290663857
scalar OsgEarthNet.uav[51] utilizationEnergyMission 141807.66294098
scalar OsgEarthNet.uav[51] utilizationEnergyMaintenance 76479.088733673
scalar OsgEarthNet.uav[51] utilizationEnergyCharge 220801.00244141
scalar OsgEarthNet.uav[51] utilizationEnergyOverdrawMission 0
scalar OsgEarthNet.uav[51] utilizationEnergyOverdrawMaintenance 0
scalar OsgEarthNet.uav[51] utilizationCountMissions 54
scalar OsgEarthNet.uav[51] utilizationCountManeuversMission 799
scalar OsgEarthNet.uav[51] utilizationCountManeuversMaintenance 108
scalar OsgEarthNet.uav[51] utilizationCountChargeState 54
scalar OsgEarthNet.uav[51] utilizationCountOverdrawnAfterMission 0
scalar OsgEarthNet.uav[51] utilizationCountIdleState 55
scalar OsgEarthNet.uav[51] utilizationFail 0
scalar OsgEarthNet.uav[51] simulationTime 259200
scalar OsgEarthNet.uav[52] utilizationSecMission 35074.29674054
scalar OsgEarthNet.uav[52] utilizationSecMaintenance 15676.527149049
scalar OsgEarthNet.uav[52] utilizationSecCharge 187480
scalar OsgEarthNet.uav[52] utilizationSecIdle 20969.175110411
scalar OsgEarthNet.uav[52] utilizationEnergyMission 172430.14686135
scalar OsgEarthNet.uav[52] utilizationEnergyMaintenance 71383.803173065
scalar OsgEarthNet.uav[52] utilizationEnergyCharge 243674.15380859
scalar OsgEarthNet.uav[52] utilizationEnergyOverdrawMission 0
scalar OsgEarthNet.uav[52] utilizationEnergyOverdrawMaintenance 0
scalar OsgEarthNet.uav[52] utilizationCountMissions 53
scalar OsgEarthNet.uav[52] utilizationCountManeuversMission 1266
scalar OsgEarthNet.uav[52] utilizationCountManeuversMaintenance 107
scalar OsgEarthNet.uav[52] utilizationCountChargeState 53
scalar OsgEarthNet.uav[52] utilizationCountOverdrawnAfterMission 0
scalar OsgEarthNet.uav[52] utilizationCountIdleState 50
scalar OsgEarthNet.uav[52] utilizationFail 0
scalar OsgEarthNet.uav[52] simulationTime 259200
scalar OsgEarthNet.uav[53] utilizationSecMission 16879.744402534
scalar OsgEarthNet.uav[53] utilizationSecMaintenance 8209.6785198453
scalar OsgEarthNet.uav[53] utilizationSecCharge 91670
scalar OsgEarthNet.uav[53] utilizationSecIdle 142440.57607762
scalar OsgEarthNet.uav[53] utilizationEnergyMission 81075.011966705
scalar OsgEarthNet.uav[53] utilizationEnergyMaintenance 38832.758659363
scalar OsgEarthNet.uav[53] utilizationEnergyCharge 117777.56103516
scalar OsgEarthNet.uav[53] utilizationEnergyOverdrawMission 0
scalar OsgEarthNet.uav[53] utilizationEnergyOverdrawMaintenance 0
scalar OsgEarthNet.uav[53] utilizationCountMissions 26
scalar OsgEarthNet.uav[53] utilizationCountManeuversMission 432
scalar OsgEarthNet.uav[53] utilizationCountManeuversMaintenance 52
scalar OsgEarthNet.uav[53] utilizationCountChargeState 26
scalar OsgEarthNet.uav[53] utilizationCountOverdrawnAfterMission 0
scalar OsgEarthNet.uav[53] utilizationCountIdleState 27
scalar OsgEarthNet.uav[53] utilizationFail 0
scalar OsgEarthNet.uav[53] simulationTime 259200
scalar OsgEarthNet.uav[54] utilizationSecMission 29794.965934932
scalar OsgEarthNet.uav[54] utilizationSecMaintenance 16503.061274364
scalar OsgEarthNet.uav[54] utilizationSecCharge 177189.9627907
scalar OsgEarthNet.uav[54] utilizationSecIdle 35712.009
scalar OsgEarthNet.uav[54] utilizationEnergyMission 142813.91130066
scalar OsgEarthNet.uav[54] utilizationEnergyMaintenance 78053.254310608
scalar OsgEarthNet.uav[54] utilizationEnergyCharge 223268.85058594
scalar OsgEarthNet.uav[54] utilizationEnergyOverdrawMission 0
scalar OsgEarthNet.uav[54] utilizationEnergyOverdrawMaintenance 0
scalar OsgEarthNet.uav[54] utilizationCountMissions 54
scalar OsgEarthNet.uav[54] utilizationCountManeuversMission 829
scalar OsgEarthNet.uav[54] utilizationCountManeuversMaintenance 108
scalar OsgEarthNet.uav[54] utilizationCountChargeState 54
scalar OsgEarthNet.uav[54] utilizationCountOverdrawnAfterMission 0
scalar OsgEarthNet.uav[54] utilizationCountIdleState 54
scalar OsgEarthNet.uav[54] utilizationFail 0
scalar OsgEarthNet.uav[54] simulationTime 259200
scalar OsgEarthNet.uav[55] utilizationSecMission 35697.15479416
scalar OsgEarthNet.uav[55] utilizationSecMaintenance 14810.83920584
scalar OsgEarthNet.uav[55] utilizationSecCharge 183990
scalar OsgEarthNet.uav[55] utilizationSecIdle 24702.005
scalar OsgEarthNet.uav[55] utilizationEnergyMission 174815.25504363
scalar OsgEarthNet.uav[55] utilizationEnergyMaintenance 68230.115982056
scalar OsgEarthNet.uav[55] utilizationEnergyCharge 238753.73828125
scalar OsgEarthNet.uav[55] utilizationEnergyOverdrawMission 0
scalar OsgEarthNet.uav[55] utilizationEnergyOverdrawMaintenance 0
scalar OsgEarthNet.uav[55] utilizationCountMissions 52
scalar OsgEarthNet.uav[55] utilizationCountManeuversMission 1171
scalar OsgEarthNet.uav[55] utilizationCountManeuversMaintenance 105
scalar OsgEarthNet.uav[55] utilizationCountChargeState 52
scalar OsgEarthNet.uav[55] utilizationCountOverdrawnAfterMission 0
scalar OsgEarthNet.uav[55] utilizationCountIdleState 50
scalar OsgEarthNet.uav[55] utilizationFail 0
scalar OsgEarthNet.uav[55] simulationTime 259200
scalar OsgEarthNet.uav[56] utilizationSecMission 16805.001220642
scalar OsgEarthNet.uav[56] utilizationSecMaintenance 11923.48529402
scalar OsgEarthNet.uav[56] utilizationSecCharge 108419.51048534
scalar OsgEarthNet.uav[56] utilizationSecIdle 122052.002
scalar OsgEarthNet.uav[56] utilizationEnergyMission 82108.533748627
scalar OsgEarthNet.uav[56] utilizationEnergyMaintenance 56741.076099396
scalar OsgEarthNet.uav[56] utilizationEnergyCharge 139812.9296875
scalar OsgEarthNet.uav[56] utilizationEnergyOverdrawMission 0
scalar OsgEarthNet.uav[56] utilizationEnergyOverdrawMaintenance 0
scalar OsgEarthNet.uav[56] utilizationCountMissions 31
scalar OsgEarthNet.uav[56] utilizationCountManeuversMission 632
scalar OsgEarthNet.uav[56] utilizationCountManeuversMaintenance 62
scalar OsgEarthNet.uav[56] utilizationCountChargeState 31
scalar OsgEarthNet.uav[56] utilizationCountOverdrawnAfterMission 0
scalar OsgEarthNet.uav[56] utilizationCountIdleState 31
scalar OsgEarthNet.uav[56] utilizationFail 0
scalar OsgEarthNet.uav[56] simulationTime 259200
scalar OsgEarthNet.uav[57] utilizationSecMission 29553.662921205
scalar OsgEarthNet.uav[57] utilizationSecMaintenance 17394.334572073
scalar OsgEarthNet.uav[57] utilizationSecCharge 179280
scalar OsgEarthNet.uav[57] utilizationSecIdle 32972.001506722
scalar OsgEarthNet.uav[57] utilizationEnergyMission 143210.43328094
scalar OsgEarthNet.uav[57] utilizationEnergyMaintenance 82372.920024089
scalar OsgEarthNet.uav[57] utilizationEnergyCharge 225878.23852539
scalar OsgEarthNet.uav[57] utilizationEnergyOverdrawMission 0
scalar OsgEarthNet.uav[57] utilizationEnergyOverdrawMaintenance 0
scalar OsgEarthNet.uav[57] utilizationCountMissions 54
scalar OsgEarthNet.uav[57] utilizationCountManeuversMission 934
scalar OsgEarthNet.uav[57] utilizationCountManeuversMaintenance 109
scalar OsgEarthNet.uav[57] utilizationCountChargeState 54
scalar OsgEarthNet.uav[57] utilizationCountOverdrawnAfterMission 0
scalar OsgEarthNet.uav[57] utilizationCountIdleState 55
scalar OsgEarthNet.uav[57] utilizationFail 0
scalar OsgEarthNet.uav[57] simulationTime 259200
scalar OsgEarthNet.uav[58] utilizationSecMission 35896.970563574
scalar OsgEarthNet.uav[58] utilizationSecMaintenance 14657.327401363
scalar OsgEarthNet.uav[58] utilizationSecCharge 185080
scalar OsgEarthNet.uav[58] utilizationSecIdle 23565.701035063
scalar OsgEarthNet.uav[58] utilizationEnergyMission 173161.72743988
scalar OsgEarthNet.uav[58] utilizationEnergyMaintenance 67516.75730896
scalar OsgEarthNet.uav[58] utilizationEnergyCharge 240502.67529297
scalar OsgEarthNet.uav[58] utilizationEnergyOverdrawMission 0
scalar OsgEarthNet.uav[58] utilizationEnergyOverdrawMaintenance 0
scalar OsgEarthNet.uav[58] utilizationCountMissions 52
scalar OsgEarthNet.uav[58] utilizationCountManeuversMission 1061
scalar OsgEarthNet.uav[58] utilizationCountManeuversMaintenance 104
scalar OsgEarthNet.uav[58] utilizationCountChargeState 52
scalar OsgEarthNet.uav[58] utilizationCountOverdrawnAfterMission 0
scalar OsgEarthNet.uav[58] utilizationCountIdleState 52
scalar OsgEarthNet.uav[58] utilizationFail 0
scalar OsgEarthNet.uav[58] simulationTime 259200
scalar OsgEarthNet.uav[59] utilizationSecMission 16955.884411973
scalar OsgEarthNet.uav[59] utilizationSecMaintenance 11538.185338576
scalar OsgEarthNet.uav[59] utilizationSecCharge 106080
scalar OsgEarthNet.uav[59] utilizationSecIdle 124625.92924945
scalar OsgEarthNet.uav[59] utilizationEnergyMission 82377.892753601
scalar OsgEarthNet.uav[59] utilizationEnergyMaintenance 54913.092842102
scalar OsgEarthNet.uav[59] utilizationEnergyCharge 136931.20898438
scalar OsgEarthNet.uav[59] utilizationEnergyOverdrawMission 0
scalar OsgEarthNet.uav[59] utilizationEnergyOverdrawMaintenance 0
scalar OsgEarthNet.uav[59] utilizationCountMissions 30
scalar OsgEarthNet.uav[59] utilizationCountManeuversMission 609
scalar OsgEarthNet.uav[59] utilizationCountManeuversMaintenance 60
scalar OsgEarthNet.uav[59] utilizationCountChargeState 30
scalar OsgEarthNet.uav[59] utilizationCountOverdrawnAfterMission 0
scalar OsgEarthNet.uav[59] utilizationCountIdleState 31
scalar OsgEarthNet.uav[59] utilizationFail 0
scalar OsgEarthNet.uav[59] simulationTime 259200
scalar OsgEarthNet.uav[60] utilizationSecMission 20689.268213625
scalar OsgEarthNet.uav[60] utilizationSecMaintenance 12907.881061552
scalar OsgEarthNet.uav[60] utilizationSecCharge 124500
scalar OsgEarthNet.uav[60] utilizationSecIdle 101102.84972482
scalar OsgEarthNet.uav[60] utilizationEnergyMission 99821.849052429
scalar OsgEarthNet.uav[60] utilizationEnergyMaintenance 61468.120365143
scalar OsgEarthNet.uav[60] utilizationEnergyCharge 160901.22412109
scalar OsgEarthNet.uav[60] utilizationEnergyOverdrawMission 0
scalar OsgEarthNet.uav[60] utilizationEnergyOverdrawMaintenance 0
scalar OsgEarthNet.uav[60] utilizationCountMissions 35
scalar OsgEarthNet.uav[60] utilizationCountManeuversMission 661
scalar OsgEarthNet.uav[60] utilizationCountManeuversMaintenance 70
scalar OsgEarthNet.uav[60] utilizationCountChargeState 35
scalar OsgEarthNet.uav[60] utilizationCountOverdrawnAfterMission 0
scalar OsgEarthNet.uav[60] utilizationCountIdleState 36
scalar OsgEarthNet.uav[60] utilizationFail 0
scalar OsgEarthNet.uav[60] simulationTime 259200
scalar OsgEarthNet.uav[61] utilizationSecMission 35232.602734097
scalar OsgEarthNet.uav[61] utilizationSecMaintenance 15355.790457694
scalar OsgEarthNet.uav[61] utilizationSecCharge 185666.16271952
scalar OsgEarthNet.uav[61] utilizationSecIdle 22945.443088691
scalar OsgEarthNet.uav[61] utilizationEnergyMission 171475.73771286
scalar OsgEarthNet.uav[61] utilizationEnergyMaintenance 71653.771633148
scalar OsgEarthNet.uav[61] utilizationEnergyCharge 241418.93139648
scalar OsgEarthNet.uav[61] utilizationEnergyOverdrawMission 0
scalar OsgEarthNet.uav[61] utilizationEnergyOverdrawMaintenance 0
scalar OsgEarthNet.uav[61] utilizationCountMissions 53
scalar OsgEarthNet.uav[61] utilizationCountManeuversMission 1175
scalar OsgEarthNet.uav[61] utilizationCountManeuversMaintenance 106
scalar OsgEarthNet.uav[61] utilizationCountChargeState 53
scalar OsgEarthNet.uav[61] utilizationCountOverdrawnAfterMission 0
scalar OsgEarthNet.uav[61] utilizationCountIdleState 51
scalar OsgEarthNet.uav[61] utilizationFail 0
scalar OsgEarthNet.uav[61] simulationTime 259200
scalar OsgEarthNet.uav[62] utilizationSecMission 34917.402002002
scalar OsgEarthNet.uav[62] utilizationSecMaintenance 16167.660510152
scalar OsgEarthNet.uav[62] utilizationSecCharge 187682.93648785
scalar OsgEarthNet.uav[62] utilizationSecIdle 20432
scalar OsgEarthNet.uav[62] utilizationEnergyMission 171416.5164299
scalar OsgEarthNet.uav[62] utilizationEnergyMaintenance 75322.730487824
scalar OsgEarthNet.uav[62] utilizationEnergyCharge 244567.15942383
scalar OsgEarthNet.uav[62] utilizationEnergyOverdrawMission 0
scalar OsgEarthNet.uav[62] utilizationEnergyOverdrawMaintenance 0
scalar OsgEarthNet.uav[62] utilizationCountMissions 54
scalar OsgEarthNet.uav[62] utilizationCountManeuversMission 1242
scalar OsgEarthNet.uav[62] utilizationCountManeuversMaintenance 108
scalar OsgEarthNet.uav[62] utilizationCountChargeState 54
scalar OsgEarthNet.uav[62] utilizationCountOverdrawnAfterMission 0
scalar OsgEarthNet.uav[62] utilizationCountIdleState 51
scalar OsgEarthNet.uav[62] utilizationFail 0
scalar OsgEarthNet.uav[62] simulationTime 259200
scalar OsgEarthNet.uav[63] utilizationSecMission 16166.876678383
scalar OsgEarthNet.uav[63] utilizationSecMaintenance 10003.188207269
scalar OsgEarthNet.uav[63] utilizationSecCharge 96957.919114348
scalar OsgEarthNet.uav[63] utilizationSecIdle 136072.015
scalar OsgEarthNet.uav[63] utilizationEnergyMission 77619.91046524
scalar OsgEarthNet.uav[63] utilizationEnergyMaintenance 47838.259304046
scalar OsgEarthNet.uav[63] utilizationEnergyCharge 125683.86767578
scalar OsgEarthNet.uav[63] utilizationEnergyOverdrawMission 0
scalar OsgEarthNet.uav[63] utilizationEnergyOverdrawMaintenance 0
scalar OsgEarthNet.uav[63] utilizationCountMissions 28
scalar OsgEarthNet.uav[63] utilizationCountManeuversMission 522
scalar OsgEarthNet.uav[63] utilizationCountManeuversMaintenance 56
scalar OsgEarthNet.uav[63] utilizationCountChargeState 28
scalar OsgEarthNet.uav[63] utilizationCountOverdrawnAfterMission 0
scalar OsgEarthNet.uav[63] utilizationCountIdleState 28
scalar OsgEarthNet.uav[63] utilizationFail 0
scalar OsgEarthNet.uav[63] simulationTime 259200
scalar OsgEarthNet.uav[64] utilizationSecMission 29950.834678992
scalar OsgEarthNet.uav[64] utilizationSecMaintenance 15714.680406672
scalar OsgEarthNet.uav[64] utilizationSecCharge 171498.67291926
scalar OsgEarthNet.uav[64] utilizationSecIdle 42035.81099508
scalar OsgEarthNet.uav[64] utilizationEnergyMission 143142.529953
scalar OsgEarthNet.uav[64] utilizationEnergyMaintenance 74604.635231018
scalar OsgEarthNet.uav[64] utilizationEnergyCharge 215568.33215332
scalar OsgEarthNet.uav[64] utilizationEnergyOverdrawMission 0
scalar OsgEarthNet.uav[64] utilizationEnergyOverdrawMaintenance 0
scalar OsgEarthNet.uav[64] utilizationCountMissions 53
scalar OsgEarthNet.uav[64] utilizationCountManeuversMission 825
scalar OsgEarthNet.uav[64] utilizationCountManeuversMaintenance 106
scalar OsgEarthNet.uav[64] utilizationCountChargeState 53
scalar OsgEarthNet.uav[64] utilizationCountOverdrawnAfterMission 0
scalar OsgEarthNet.uav[64] utilizationCountIdleState 53
scalar OsgEarthNet.uav[64] utilizationFail 0
scalar OsgEarthNet.uav[64] simulationTime 259200
scalar OsgEarthNet.uav[65] utilizationSecMission 34117.005597256
scalar OsgEarthNet.uav[65] utilizationSecMaintenance 16279.118175571
[...]
scalar OsgEarthNet.uav[69] utilizationCountMissions 32
scalar OsgEarthNet.uav[69] utilizationCountManeuversMission 628
scalar OsgEarthNet.uav[69] utilizationCountManeuversMaintenance 64
scalar OsgEarthNet.uav[69] utilizationCountChargeState 32
scalar OsgEarthNet.uav[69] utilizationCountOverdrawnAfterMission 0
scalar OsgEarthNet.uav[69] utilizationCountIdleState 32
scalar OsgEarthNet.uav[69] utilizationFail 0
scalar OsgEarthNet.uav[69] simulationTime 259200
scalar OsgEarthNet.uav[70] utilizationSecMission 22611.252746445
scalar OsgEarthNet.uav[70] utilizationSecMaintenance 12415.089775861
scalar OsgEarthNet.uav[70] utilizationSecCharge 126311.65647769
scalar OsgEarthNet.uav[70] utilizationSecIdle 97862
scalar OsgEarthNet.uav[70] utilizationEnergyMission 108873.70915222
scalar OsgEarthNet.uav[70] utilizationEnergyMaintenance 58791.748409271
scalar OsgEarthNet.uav[70] utilizationEnergyCharge 162317.46624756
scalar OsgEarthNet.uav[70] utilizationEnergyOverdrawMission 0
scalar OsgEarthNet.uav[70] utilizationEnergyOverdrawMaintenance 0
scalar OsgEarthNet.uav[70] utilizationCountMissions 37
scalar OsgEarthNet.uav[70] utilizationCountManeuversMission 662
scalar OsgEarthNet.uav[70] utilizationCountManeuversMaintenance 74
scalar OsgEarthNet.uav[70] utilizationCountChargeState 37
scalar OsgEarthNet.uav[70] utilizationCountOverdrawnAfterMission 0
scalar OsgEarthNet.uav[70] utilizationCountIdleState 37
scalar OsgEarthNet.uav[70] utilizationFail 0
scalar OsgEarthNet.uav[70] simulationTime 259200
scalar OsgEarthNet.uav[71] utilizationSecMission 29638.223208591
scalar OsgEarthNet.uav[71] utilizationSecMaintenance 17127.070092372
scalar OsgEarthNet.uav[71] utilizationSecCharge 177920
scalar OsgEarthNet.uav[71] utilizationSecIdle 34514.705699036
scalar OsgEarthNet.uav[71] utilizationEnergyMission 141684.83228302
scalar OsgEarthNet.uav[71] utilizationEnergyMaintenance 80780.881719865
scalar OsgEarthNet.uav[71] utilizationEnergyCharge 222033.61425781
scalar OsgEarthNet.uav[71] utilizationEnergyOverdrawMission 0
scalar OsgEarthNet.uav[71] utilizationEnergyOverdrawMaintenance 0
scalar OsgEarthNet.uav[71] utilizationCountMissions 55
scalar OsgEarthNet.uav[71] utilizationCountManeuversMission 842
scalar OsgEarthNet.uav[71] utilizationCountManeuversMaintenance 111
scalar OsgEarthNet.uav[71] utilizationCountChargeState 55
scalar OsgEarthNet.uav[71] utilizationCountOverdrawnAfterMission 0
scalar OsgEarthNet.uav[71] utilizationCountIdleState 56
scalar OsgEarthNet.uav[71] utilizationFail 0
scalar OsgEarthNet.uav[71] simulationTime 259200
scalar OsgEarthNet.uav[72] utilizationSecMission 34411.413411155
scalar OsgEarthNet.uav[72] utilizationSecMaintenance 16366.580588845
scalar OsgEarthNet.uav[72] utilizationSecCharge 186470
scalar OsgEarthNet.uav[72] utilizationSecIdle 21952.005
scalar OsgEarthNet.uav[72] utilizationEnergyMission 172203.94570958
scalar OsgEarthNet.uav[72] utilizationEnergyMaintenance 75527.287559509
scalar OsgEarthNet.uav[72] utilizationEnergyCharge 241710.83178711
scalar OsgEarthNet.uav[72] utilizationEnergyOverdrawMission 0
scalar OsgEarthNet.uav[72] utilizationEnergyOverdrawMaintenance 0
scalar OsgEarthNet.uav[72] utilizationCountMissions 53
scalar OsgEarthNet.uav[72] utilizationCountManeuversMission 1256
scalar OsgEarthNet.uav[72] utilizationCountManeuversMaintenance 107
scalar OsgEarthNet.uav[72] utilizationCountChargeState 53
scalar OsgEarthNet.uav[72] utilizationCountOverdrawnAfterMission 0
scalar OsgEarthNet.uav[72] utilizationCountIdleState 49
scalar OsgEarthNet.uav[72] utilizationFail 0
scalar OsgEarthNet.uav[72] simulationTime 259200
scalar OsgEarthNet.uav[73] utilizationSecMission 17446.251525803
scalar OsgEarthNet.uav[73] utilizationSecMaintenance 11764.483610677
scalar OsgEarthNet.uav[73] utilizationSecCharge 108770
scalar OsgEarthNet.uav[73] utilizationSecIdle 121219.26386352
scalar OsgEarthNet.uav[73] utilizationEnergyMission 84763.284259796
scalar OsgEarthNet.uav[73] utilizationEnergyMaintenance 56183.956470489
scalar OsgEarthNet.uav[73] utilizationEnergyCharge 140271.2421875
scalar OsgEarthNet.uav[73] utilizationEnergyOverdrawMission 0
scalar OsgEarthNet.uav[73] utilizationEnergyOverdrawMaintenance 0
scalar OsgEarthNet.uav[73] utilizationCountMissions 31
scalar OsgEarthNet.uav[73] utilizationCountManeuversMission 612
scalar OsgEarthNet.uav[73] utilizationCountManeuversMaintenance 62
scalar OsgEarthNet.uav[73] utilizationCountChargeState 31
scalar OsgEarthNet.uav[73] utilizationCountOverdrawnAfterMission 0
scalar OsgEarthNet.uav[73] utilizationCountIdleState 32
scalar OsgEarthNet.uav[73] utilizationFail 0
scalar OsgEarthNet.uav[73] simulationTime 259200
scalar OsgEarthNet.uav[74] utilizationSecMission 30977.706966573
scalar OsgEarthNet.uav[74] utilizationSecMaintenance 16744.672322136
scalar OsgEarthNet.uav[74] utilizationSecCharge 181179.26610841
scalar OsgEarthNet.uav[74] utilizationSecIdle 30298.353602879
scalar OsgEarthNet.uav[74] utilizationEnergyMission 148190.91573334
scalar OsgEarthNet.uav[74] utilizationEnergyMaintenance 79339.478534698
scalar OsgEarthNet.uav[74] utilizationEnergyCharge 229306.44311523
scalar OsgEarthNet.uav[74] utilizationEnergyOverdrawMission 0
scalar OsgEarthNet.uav[74] utilizationEnergyOverdrawMaintenance 0
scalar OsgEarthNet.uav[74] utilizationCountMissions 54
scalar OsgEarthNet.uav[74] utilizationCountManeuversMission 889
scalar OsgEarthNet.uav[74] utilizationCountManeuversMaintenance 108
scalar OsgEarthNet.uav[74] utilizationCountChargeState 54
scalar OsgEarthNet.uav[74] utilizationCountOverdrawnAfterMission 0
scalar OsgEarthNet.uav[74] utilizationCountIdleState 54
scalar OsgEarthNet.uav[74] utilizationFail 0
scalar OsgEarthNet.uav[74] simulationTime 259200
scalar OsgEarthNet.uav[75] utilizationSecMission 36198.475951524
scalar OsgEarthNet.uav[75] utilizationSecMaintenance 15053.930975913
scalar OsgEarthNet.uav[75] utilizationSecCharge 185352.13641916
scalar OsgEarthNet.uav[75] utilizationSecIdle 22595.455653403
scalar OsgEarthNet.uav[75] utilizationEnergyMission 174623.83688354
scalar OsgEarthNet.uav[75] utilizationEnergyMaintenance 69261.232093811
scalar OsgEarthNet.uav[75] utilizationEnergyCharge 240713.12597656
scalar OsgEarthNet.uav[75] utilizationEnergyOverdrawMission 0
scalar OsgEarthNet.uav[75] utilizationEnergyOverdrawMaintenance 0
scalar OsgEarthNet.uav[75] utilizationCountMissions 53
scalar OsgEarthNet.uav[75] utilizationCountManeuversMission 1190
scalar OsgEarthNet.uav[75] utilizationCountManeuversMaintenance 106
scalar OsgEarthNet.uav[75] utilizationCountChargeState 53
scalar OsgEarthNet.uav[75] utilizationCountOverdrawnAfterMission 0
scalar OsgEarthNet.uav[75] utilizationCountIdleState 53
scalar OsgEarthNet.uav[75] utilizationFail 0
scalar OsgEarthNet.uav[75] simulationTime 259200
scalar OsgEarthNet.uav[76] utilizationSecMission 18407.501830963
scalar OsgEarthNet.uav[76] utilizationSecMaintenance 11878.158948039
scalar OsgEarthNet.uav[76] utilizationSecCharge 113020
scalar OsgEarthNet.uav[76] utilizationSecIdle 115894.338221
scalar OsgEarthNet.uav[76] utilizationEnergyMission 88550.62021637
scalar OsgEarthNet.uav[76] utilizationEnergyMaintenance 56189.12423706
scalar OsgEarthNet.uav[76] utilizationEnergyCharge 145967.19921875
scalar OsgEarthNet.uav[76] utilizationEnergyOverdrawMission 0
scalar OsgEarthNet.uav[76] utilizationEnergyOverdrawMaintenance 0
scalar OsgEarthNet.uav[76] utilizationCountMissions 32
scalar OsgEarthNet.uav[76] utilizationCountManeuversMission 608
scalar OsgEarthNet.uav[76] utilizationCountManeuversMaintenance 64
scalar OsgEarthNet.uav[76] utilizationCountChargeState 32
scalar OsgEarthNet.uav[76] utilizationCountOverdrawnAfterMission 0
scalar OsgEarthNet.uav[76] utilizationCountIdleState 33
scalar OsgEarthNet.uav[76] utilizationFail 0
scalar OsgEarthNet.uav[76] simulationTime 259200
scalar OsgEarthNet.uav[77] utilizationSecMission 29863.071966625
scalar OsgEarthNet.uav[77] utilizationSecMaintenance 16541.662405943
scalar OsgEarthNet.uav[77] utilizationSecCharge 176113.25762743
scalar OsgEarthNet.uav[77] utilizationSecIdle 36682.007
scalar OsgEarthNet.uav[77] utilizationEnergyMission 144071.21527481
scalar OsgEarthNet.uav[77] utilizationEnergyMaintenance 78232.087501526
scalar OsgEarthNet.uav[77] utilizationEnergyCharge 221054.41723633
scalar OsgEarthNet.uav[77] utilizationEnergyOverdrawMission 0
scalar OsgEarthNet.uav[77] utilizationEnergyOverdrawMaintenance 0
scalar OsgEarthNet.uav[77] utilizationCountMissions 54
scalar OsgEarthNet.uav[77] utilizationCountManeuversMission 855
scalar OsgEarthNet.uav[77] utilizationCountManeuversMaintenance 108
scalar OsgEarthNet.uav[77] utilizationCountChargeState 54
scalar OsgEarthNet.uav[77] utilizationCountOverdrawnAfterMission 0
scalar OsgEarthNet.uav[77] utilizationCountIdleState 54
scalar OsgEarthNet.uav[77] utilizationFail 0
scalar OsgEarthNet.uav[77] simulationTime 259200
scalar OsgEarthNet.uav[78] utilizationSecMission 37858.822003684
scalar OsgEarthNet.uav[78] utilizationSecMaintenance 13181.930933747
scalar OsgEarthNet.uav[78] utilizationSecCharge 184109.82071528
scalar OsgEarthNet.uav[78] utilizationSecIdle 24049.42534729
scalar OsgEarthNet.uav[78] utilizationEnergyMission 180802.16997147
scalar OsgEarthNet.uav[78] utilizationEnergyMaintenance 62171.124172211
scalar OsgEarthNet.uav[78] utilizationEnergyCharge 240586.18725586
scalar OsgEarthNet.uav[78] utilizationEnergyOverdrawMission 0
scalar OsgEarthNet.uav[78] utilizationEnergyOverdrawMaintenance 0
scalar OsgEarthNet.uav[78] utilizationCountMissions 52
scalar OsgEarthNet.uav[78] utilizationCountManeuversMission 1006
scalar OsgEarthNet.uav[78] utilizationCountManeuversMaintenance 104
scalar OsgEarthNet.uav[78] utilizationCountChargeState 52
scalar OsgEarthNet.uav[78] utilizationCountOverdrawnAfterMission 0
scalar OsgEarthNet.uav[78] utilizationCountIdleState 49
scalar OsgEarthNet.uav[78] utilizationFail 0
scalar OsgEarthNet.uav[78] simulationTime 259200
scalar OsgEarthNet.uav[79] utilizationSecMission 16587.501830963
scalar OsgEarthNet.uav[79] utilizationSecMaintenance 10050.493169037
scalar OsgEarthNet.uav[79] utilizationSecCharge 99150
scalar OsgEarthNet.uav[79] utilizationSecIdle 133412.004
scalar OsgEarthNet.uav[79] utilizationEnergyMission 81175.700405121
scalar OsgEarthNet.uav[79] utilizationEnergyMaintenance 47336.763813283
scalar OsgEarthNet.uav[79] utilizationEnergyCharge 128197.73291016
scalar OsgEarthNet.uav[79] utilizationEnergyOverdrawMission 0
scalar OsgEarthNet.uav[79] utilizationEnergyOverdrawMaintenance 0
scalar OsgEarthNet.uav[79] utilizationCountMissions 28
scalar OsgEarthNet.uav[79] utilizationCountManeuversMission 517
scalar OsgEarthNet.uav[79] utilizationCountManeuversMaintenance 57
scalar OsgEarthNet.uav[79] utilizationCountChargeState 28
scalar OsgEarthNet.uav[79] utilizationCountOverdrawnAfterMission 0
scalar OsgEarthNet.uav[79] utilizationCountIdleState 29
scalar OsgEarthNet.uav[79] utilizationFail 0
scalar OsgEarthNet.uav[79] simulationTime 259200
scalar OsgEarthNet.uav[80] utilizationSecMission 16525.626373223
scalar OsgEarthNet.uav[80] utilizationSecMaintenance 11396.542694395
scalar OsgEarthNet.uav[80] utilizationSecCharge 105920
scalar OsgEarthNet.uav[80] utilizationSecIdle 125357.82993238
scalar OsgEarthNet.uav[80] utilizationEnergyMission 80294.722366333
scalar OsgEarthNet.uav[80] utilizationEnergyMaintenance 53770.118202209
scalar OsgEarthNet.uav[80] utilizationEnergyCharge 136427.30322266
scalar OsgEarthNet.uav[80] utilizationEnergyOverdrawMission 0
scalar OsgEarthNet.uav[80] utilizationEnergyOverdrawMaintenance 0
scalar OsgEarthNet.uav[80] utilizationCountMissions 30
scalar OsgEarthNet.uav[80] utilizationCountManeuversMission 592
scalar OsgEarthNet.uav[80] utilizationCountManeuversMaintenance 60
scalar OsgEarthNet.uav[80] utilizationCountChargeState 30
scalar OsgEarthNet.uav[80] utilizationCountOverdrawnAfterMission 0
scalar OsgEarthNet.uav[80] utilizationCountIdleState 31
scalar OsgEarthNet.uav[80] utilizationFail 0
scalar OsgEarthNet.uav[80] simulationTime 259200
scalar OsgEarthNet.uav[81] utilizationSecMission 28511.798397906
scalar OsgEarthNet.uav[81] utilizationSecMaintenance 16760.692590391
scalar OsgEarthNet.uav[81] utilizationSecCharge 174445.69971017
scalar OsgEarthNet.uav[81] utilizationSecIdle 39481.80830153
scalar OsgEarthNet.uav[81] utilizationEnergyMission 136846.39759827
scalar OsgEarthNet.uav[81] utilizationEnergyMaintenance 80008.83480072
scalar OsgEarthNet.uav[81] utilizationEnergyCharge 213851.25854492
scalar OsgEarthNet.uav[81] utilizationEnergyOverdrawMission 0
scalar OsgEarthNet.uav[81] utilizationEnergyOverdrawMaintenance 0
scalar OsgEarthNet.uav[81] utilizationCountMissions 57
scalar OsgEarthNet.uav[81] utilizationCountManeuversMission 741
scalar OsgEarthNet.uav[81] utilizationCountManeuversMaintenance 114
scalar OsgEarthNet.uav[81] utilizationCountChargeState 57
scalar OsgEarthNet.uav[81] utilizationCountOverdrawnAfterMission 0
scalar OsgEarthNet.uav[81] utilizationCountIdleState 57
scalar OsgEarthNet.uav[81] utilizationFail 0
scalar OsgEarthNet.uav[81] simulationTime 259200
scalar OsgEarthNet.uav[82] utilizationSecMission 35703.80093195
scalar OsgEarthNet.uav[82] utilizationSecMaintenance 15242.413376323
scalar OsgEarthNet.uav[82] utilizationSecCharge 187431.78369173
scalar OsgEarthNet.uav[82] utilizationSecIdle 20822.001
scalar OsgEarthNet.uav[82] utilizationEnergyMission 176478.35631943
scalar OsgEarthNet.uav[82] utilizationEnergyMaintenance 70341.491352081
scalar OsgEarthNet.uav[82] utilizationEnergyCharge 244560.47021484
scalar OsgEarthNet.uav[82] utilizationEnergyOverdrawMission 0
scalar OsgEarthNet.uav[82] utilizationEnergyOverdrawMaintenance 0
scalar OsgEarthNet.uav[82] utilizationCountMissions 53
scalar OsgEarthNet.uav[82] utilizationCountManeuversMission 1260
scalar OsgEarthNet.uav[82] utilizationCountManeuversMaintenance 106
scalar OsgEarthNet.uav[82] utilizationCountChargeState 53
scalar OsgEarthNet.uav[82] utilizationCountOverdrawnAfterMission 0
scalar OsgEarthNet.uav[82] utilizationCountIdleState 50
scalar OsgEarthNet.uav[82] utilizationFail 0
scalar OsgEarthNet.uav[82] simulationTime 259200
scalar OsgEarthNet.uav[83] utilizationSecMission 16558.83391023
scalar OsgEarthNet.uav[83] utilizationSecMaintenance 13389.15108977
scalar OsgEarthNet.uav[83] utilizationSecCharge 112100
scalar OsgEarthNet.uav[83] utilizationSecIdle 117152.014
scalar OsgEarthNet.uav[83] utilizationEnergyMission 84911.015957913
scalar OsgEarthNet.uav[83] utilizationEnergyMaintenance 63730.995994568
scalar OsgEarthNet.uav[83] utilizationEnergyCharge 144309.46240234
scalar OsgEarthNet.uav[83] utilizationEnergyOverdrawMission 0
scalar OsgEarthNet.uav[83] utilizationEnergyOverdrawMaintenance 0
scalar OsgEarthNet.uav[83] utilizationCountMissions 32
scalar OsgEarthNet.uav[83] utilizationCountManeuversMission 715
scalar OsgEarthNet.uav[83] utilizationCountManeuversMaintenance 65
scalar OsgEarthNet.uav[83] utilizationCountChargeState 32
scalar OsgEarthNet.uav[83] utilizationCountOverdrawnAfterMission 0
scalar OsgEarthNet.uav[83] utilizationCountIdleState 33
scalar OsgEarthNet.uav[83] utilizationFail 0
scalar OsgEarthNet.uav[83] simulationTime 259200
scalar OsgEarthNet.uav[84] utilizationSecMission 30622.622130609
scalar OsgEarthNet.uav[84] utilizationSecMaintenance 16865.375869391
scalar OsgEarthNet.uav[84] utilizationSecCharge 179900
scalar OsgEarthNet.uav[84] utilizationSecIdle 31812.001
scalar OsgEarthNet.uav[84] utilizationEnergyMission 147863.25197505
scalar OsgEarthNet.uav[84] utilizationEnergyMaintenance 79873.425251007
scalar OsgEarthNet.uav[84] utilizationEnergyCharge 225241.81396484
scalar OsgEarthNet.uav[84] utilizationEnergyOverdrawMission 0
scalar OsgEarthNet.uav[84] utilizationEnergyOverdrawMaintenance 0
scalar OsgEarthNet.uav[84] utilizationCountMissions 55
scalar OsgEarthNet.uav[84] utilizationCountManeuversMission 859
scalar OsgEarthNet.uav[84] utilizationCountManeuversMaintenance 111
scalar OsgEarthNet.uav[84] utilizationCountChargeState 55
scalar OsgEarthNet.uav[84] utilizationCountOverdrawnAfterMission 0
scalar OsgEarthNet.uav[84] utilizationCountIdleState 56
scalar OsgEarthNet.uav[84] utilizationFail 0
scalar OsgEarthNet.uav[84] simulationTime 259200
scalar OsgEarthNet.uav[85] utilizationSecMission 36555.726889734
scalar OsgEarthNet.uav[85] utilizationSecMaintenance 14702.771807277
scalar OsgEarthNet.uav[85] utilizationSecCharge 184782.0419549
scalar OsgEarthNet.uav[85] utilizationSecIdle 23159.458348089
scalar OsgEarthNet.uav[85] utilizationEnergyMission 177986.68248367
scalar OsgEarthNet.uav[85] utilizationEnergyMaintenance 67555.583961487
scalar OsgEarthNet.uav[85] utilizationEnergyCharge 240484.20562744
scalar OsgEarthNet.uav[85] utilizationEnergyOverdrawMission 0
scalar OsgEarthNet.uav[85] utilizationEnergyOverdrawMaintenance 0
scalar OsgEarthNet.uav[85] utilizationCountMissions 53
scalar OsgEarthNet.uav[85] utilizationCountManeuversMission 1099
scalar OsgEarthNet.uav[85] utilizationCountManeuversMaintenance 106
scalar OsgEarthNet.uav[85] utilizationCountChargeState 53
scalar OsgEarthNet.uav[85] utilizationCountOverdrawnAfterMission 0
scalar OsgEarthNet.uav[85] utilizationCountIdleState 50
scalar OsgEarthNet.uav[85] utilizationFail 0
scalar OsgEarthNet.uav[85] simulationTime 259200
scalar OsgEarthNet.uav[86] utilizationSecMission 19588.126983544
scalar OsgEarthNet.uav[86] utilizationSecMaintenance 12431.389500848
scalar OsgEarthNet.uav[86] utilizationSecCharge 119940
scalar OsgEarthNet.uav[86] utilizationSecIdle 107240.48251561
scalar OsgEarthNet.uav[86] utilizationEnergyMission 93864.51884079
scalar OsgEarthNet.uav[86] utilizationEnergyMaintenance 58863.737419128
scalar OsgEarthNet.uav[86] utilizationEnergyCharge 154359.52392578
scalar OsgEarthNet.uav[86] utilizationEnergyOverdrawMission 0
scalar OsgEarthNet.uav[86] utilizationEnergyOverdrawMaintenance 0
scalar OsgEarthNet.uav[86] utilizationCountMissions 34
scalar OsgEarthNet.uav[86] utilizationCountManeuversMission 641
scalar OsgEarthNet.uav[86] utilizationCountManeuversMaintenance 68
scalar OsgEarthNet.uav[86] utilizationCountChargeState 34
scalar OsgEarthNet.uav[86] utilizationCountOverdrawnAfterMission 0
scalar OsgEarthNet.uav[86] utilizationCountIdleState 35
scalar OsgEarthNet.uav[86] utilizationFail 0
scalar OsgEarthNet.uav[86] simulationTime 259200
scalar OsgEarthNet.uav[87] utilizationSecMission 29781.376994097
scalar OsgEarthNet.uav[87] utilizationSecMaintenance 16668.880902972
scalar OsgEarthNet.uav[87] utilizationSecCharge 177543.73586303
scalar OsgEarthNet.uav[87] utilizationSecIdle 35206.005239897
scalar OsgEarthNet.uav[87] utilizationEnergyMission 140398.15498734
scalar OsgEarthNet.uav[87] utilizationEnergyMaintenance 79262.787395477
scalar OsgEarthNet.uav[87] utilizationEnergyCharge 220362.44018555
scalar OsgEarthNet.uav[87] utilizationEnergyOverdrawMission 0
scalar OsgEarthNet.uav[87] utilizationEnergyOverdrawMaintenance 0
scalar OsgEarthNet.uav[87] utilizationCountMissions 56
scalar OsgEarthNet.uav[87] utilizationCountManeuversMission 743
scalar OsgEarthNet.uav[87] utilizationCountManeuversMaintenance 112
scalar OsgEarthNet.uav[87] utilizationCountChargeState 56
scalar OsgEarthNet.uav[87] utilizationCountOverdrawnAfterMission 0
scalar OsgEarthNet.uav[87] utilizationCountIdleState 56
scalar OsgEarthNet.uav[87] utilizationFail 0
scalar OsgEarthNet.uav[87] simulationTime 259200
scalar OsgEarthNet.cs[0] usedPower 4028893.8391608
scalar OsgEarthNet.cs[0] chargedPower 4028893.8391608
scalar OsgEarthNet.cs[0] chargedMobileNodes 879
scalar OsgEarthNet.cs[0] reservations 892
scalar OsgEarthNet.cs[1] usedPower 5709351.4856212
scalar OsgEarthNet.cs[1] chargedPower 5709351.4856212
scalar OsgEarthNet.cs[1] chargedMobileNodes 1398
scalar OsgEarthNet.cs[1] reservations 1417
scalar OsgEarthNet.cs[2] usedPower 6961867.3572745
scalar OsgEarthNet.cs[2] chargedPower 6961867.3572745
scalar OsgEarthNet.cs[2] chargedMobileNodes 1420
scalar OsgEarthNet.cs[2] reservations 1520

