version 2
run Szenario_Hotel_Gabelbach-109-20180719-05:14:18-4844
attr configname Szenario_Hotel_Gabelbach
attr datetime 20180719-05:14:18
attr experiment Szenario_Hotel_Gabelbach
attr inifile omnetpp.ini
attr iterationvars "$replM=2, $biWeight=0.35, $replSearchM=1, $numUAVs=59"
attr iterationvarsf replM=2,biWeight=0.35,replSearchM=1,numUAVs=59-
attr measurement "$replM=2, $biWeight=0.35, $replSearchM=1, $numUAVs=59"
attr network OsgEarthNet
attr processid 4844
attr repetition 13
attr replication #13
attr resultdir results
attr runnumber 109
attr seedset 109
itervar biWeight 0.35
itervar numUAVs 59
itervar replM 2
itervar replSearchM 1
param *.osgEarthScene.scene "\"Szenario_Hotel_Gabelbach.earth\""
param *.playgroundLatitude 50.6830269
param *.playgroundLongitude 10.8538055
param *.playgroundWidth 3500m
param *.playgroundHeight 3500m
param *.cs[0].posX 3537m
param *.cs[0].posY 965m
param *.cs[0].posZ 538m
param *.cs[1].posX 312m
param *.cs[1].posY 1262m
param *.cs[1].posZ 539m
param *.cs[2].posX 2185m
param *.cs[2].posY 3026m
param *.cs[2].posZ 777m
param *.cs[3].posX 10m
param *.cs[3].posY 2200m
param *.cs[3].posZ 560m
param *.cs[4].posX 750m
param *.cs[4].posY 200m
param *.cs[4].posZ 540m
param *.cs[5].posX 2450m
param *.cs[5].posY 180m
param *.cs[5].posZ 524m
param *.cs[6].posX 3140m
param *.cs[6].posY 1790m
param *.cs[6].posZ 606m
param *.numCSs 3
param *.uav[*].replacementMethod 2
param *.uav[*].weightedSumWeight 0.35
param *.missionControl.replacementSearchMethod 1
param *.numUAVs 59
param *.*.timeStep 10s
param *.uav[*].commandPreviewCommandCount 20
param *.missionControl.missionFiles "\"missions\\\\Szenario_WB_Hotel_Gabelbach_Mission_Hotel.waypoints,missions\\\\Szenario_WB_Hotel_Gabelbach_Mission_Kickelhahn.waypoints,missions\\\\Szenario_WB_Hotel_Gabelbach_Mission_Ilmenau_Sportplatz.waypoints,missions\\\\Szenario_WB_Hotel_Gabelbach_Mission_Manebach_Mitte.waypoints,missions\\\\Szenario_WB_Hotel_Gabelbach_Mission_Manebach_Sued.waypoints,missions\\\\Szenario_WB_Hotel_Gabelbach_Hover_HoheSchlaufe.waypoints,missions\\\\Szenario_WB_Hotel_Gabelbach_Hover_Kickelhahn.waypoints,missions\\\\Szenario_WB_Hotel_Gabelbach_Hover_Gabelbachskopf.waypoints,missions\\\\Szenario_WB_Hotel_Gabelbach_Hover_Dachskopf.waypoints\""
param *.uav[0].startX 3537m
param *.uav[0].startY 965m
param *.uav[0].startZ 539m
param *.uav[1].startX 312m
param *.uav[1].startY 1262m
param *.uav[1].startZ 540m
param *.uav[2].startX 2185m
param *.uav[2].startY 3026m
param *.uav[2].startZ 778m
param *.uav[3].startX 3537m
param *.uav[3].startY 965m
param *.uav[3].startZ 539m
param *.uav[4].startX 312m
param *.uav[4].startY 1262m
param *.uav[4].startZ 540m
param *.uav[5].startX 2185m
param *.uav[5].startY 3026m
param *.uav[5].startZ 778m
param *.uav[6].startX 3537m
param *.uav[6].startY 965m
param *.uav[6].startZ 539m
param *.uav[7].startX 312m
param *.uav[7].startY 1262m
param *.uav[7].startZ 540m
param *.uav[8].startX 2185m
param *.uav[8].startY 3026m
param *.uav[8].startZ 778m
param *.uav[9].startX 3537m
param *.uav[9].startY 965m
param *.uav[9].startZ 539m
param *.uav[10].startX 3537m
param *.uav[10].startY 965m
param *.uav[10].startZ 539m
param *.uav[11].startX 312m
param *.uav[11].startY 1262m
param *.uav[11].startZ 540m
param *.uav[12].startX 2185m
param *.uav[12].startY 3026m
param *.uav[12].startZ 778m
param *.uav[13].startX 3537m
param *.uav[13].startY 965m
param *.uav[13].startZ 539m
param *.uav[14].startX 312m
param *.uav[14].startY 1262m
param *.uav[14].startZ 540m
param *.uav[15].startX 2185m
param *.uav[15].startY 3026m
param *.uav[15].startZ 778m
param *.uav[16].startX 3537m
param *.uav[16].startY 965m
param *.uav[16].startZ 539m
param *.uav[17].startX 312m
param *.uav[17].startY 1262m
param *.uav[17].startZ 540m
param *.uav[18].startX 2185m
param *.uav[18].startY 3026m
param *.uav[18].startZ 778m
param *.uav[19].startX 3537m
param *.uav[19].startY 965m
param *.uav[19].startZ 539m
param *.uav[20].startX 3537m
param *.uav[20].startY 965m
param *.uav[20].startZ 539m
param *.uav[21].startX 312m
param *.uav[21].startY 1262m
param *.uav[21].startZ 540m
param *.uav[22].startX 2185m
param *.uav[22].startY 3026m
param *.uav[22].startZ 778m
param *.uav[23].startX 3537m
param *.uav[23].startY 965m
param *.uav[23].startZ 539m
param *.uav[24].startX 312m
param *.uav[24].startY 1262m
param *.uav[24].startZ 540m
param *.uav[25].startX 2185m
param *.uav[25].startY 3026m
param *.uav[25].startZ 778m
param *.uav[26].startX 3537m
param *.uav[26].startY 965m
param *.uav[26].startZ 539m
param *.uav[27].startX 312m
param *.uav[27].startY 1262m
param *.uav[27].startZ 540m
param *.uav[28].startX 2185m
param *.uav[28].startY 3026m
param *.uav[28].startZ 778m
param *.uav[29].startX 3537m
param *.uav[29].startY 965m
param *.uav[29].startZ 539m
param *.uav[30].startX 3537m
param *.uav[30].startY 965m
param *.uav[30].startZ 539m
param *.uav[31].startX 312m
param *.uav[31].startY 1262m
param *.uav[31].startZ 540m
param *.uav[32].startX 2185m
param *.uav[32].startY 3026m
param *.uav[32].startZ 778m
param *.uav[33].startX 3537m
param *.uav[33].startY 965m
param *.uav[33].startZ 539m
param *.uav[34].startX 312m
param *.uav[34].startY 1262m
param *.uav[34].startZ 540m
param *.uav[35].startX 2185m
param *.uav[35].startY 3026m
param *.uav[35].startZ 778m
param *.uav[36].startX 3537m
param *.uav[36].startY 965m
param *.uav[36].startZ 539m
param *.uav[37].startX 312m
param *.uav[37].startY 1262m
param *.uav[37].startZ 540m
param *.uav[38].startX 2185m
param *.uav[38].startY 3026m
param *.uav[38].startZ 778m
param *.uav[39].startX 3537m
param *.uav[39].startY 965m
param *.uav[39].startZ 539m
param *.uav[40].startX 3537m
param *.uav[40].startY 965m
param *.uav[40].startZ 539m
param *.uav[41].startX 312m
param *.uav[41].startY 1262m
param *.uav[41].startZ 540m
param *.uav[42].startX 2185m
param *.uav[42].startY 3026m
param *.uav[42].startZ 778m
param *.uav[43].startX 3537m
param *.uav[43].startY 965m
param *.uav[43].startZ 539m
param *.uav[44].startX 312m
param *.uav[44].startY 1262m
param *.uav[44].startZ 540m
param *.uav[45].startX 2185m
param *.uav[45].startY 3026m
param *.uav[45].startZ 778m
param *.uav[46].startX 3537m
param *.uav[46].startY 965m
param *.uav[46].startZ 539m
param *.uav[47].startX 312m
param *.uav[47].startY 1262m
param *.uav[47].startZ 540m
param *.uav[48].startX 2185m
param *.uav[48].startY 3026m
param *.uav[48].startZ 778m
param *.uav[49].startX 3537m
param *.uav[49].startY 965m
param *.uav[49].startZ 539m
param *.uav[50].startX 3537m
param *.uav[50].startY 965m
param *.uav[50].startZ 539m
param *.uav[51].startX 312m
param *.uav[51].startY 1262m
param *.uav[51].startZ 540m
param *.uav[52].startX 2185m
param *.uav[52].startY 3026m
param *.uav[52].startZ 778m
param *.uav[53].startX 3537m
param *.uav[53].startY 965m
param *.uav[53].startZ 539m
param *.uav[54].startX 312m
param *.uav[54].startY 1262m
param *.uav[54].startZ 540m
param *.uav[55].startX 2185m
param *.uav[55].startY 3026m
param *.uav[55].startZ 778m
param *.uav[56].startX 3537m
param *.uav[56].startY 965m
param *.uav[56].startZ 539m
param *.uav[57].startX 312m
param *.uav[57].startY 1262m
param *.uav[57].startZ 540m
param *.uav[58].startX 2185m
param *.uav[58].startY 3026m
param *.uav[58].startZ 778m
param *.uav[59].startX 3537m
param *.uav[59].startY 965m
param *.uav[59].startZ 539m
param *.uav[60].startX 3537m
param *.uav[60].startY 965m
param *.uav[60].startZ 539m
param *.uav[61].startX 312m
param *.uav[61].startY 1262m
param *.uav[61].startZ 540m
param *.uav[62].startX 2185m
param *.uav[62].startY 3026m
param *.uav[62].startZ 778m
param *.uav[63].startX 3537m
param *.uav[63].startY 965m
param *.uav[63].startZ 539m
param *.uav[64].startX 312m
param *.uav[64].startY 1262m
param *.uav[64].startZ 540m
param *.uav[65].startX 2185m
param *.uav[65].startY 3026m
param *.uav[65].startZ 778m
param *.uav[66].startX 3537m
param *.uav[66].startY 965m
param *.uav[66].startZ 539m
param *.uav[67].startX 312m
param *.uav[67].startY 1262m
param *.uav[67].startZ 540m
param *.uav[68].startX 2185m
param *.uav[68].startY 3026m
param *.uav[68].startZ 778m
param *.uav[69].startX 3537m
param *.uav[69].startY 965m
param *.uav[69].startZ 539m
param *.uav[70].startX 3537m
param *.uav[70].startY 965m
param *.uav[70].startZ 539m
param *.uav[71].startX 312m
param *.uav[71].startY 1262m
param *.uav[71].startZ 540m
param *.uav[72].startX 2185m
param *.uav[72].startY 3026m
param *.uav[72].startZ 778m
param *.uav[73].startX 3537m
param *.uav[73].startY 965m
param *.uav[73].startZ 539m
param *.uav[74].startX 312m
param *.uav[74].startY 1262m
param *.uav[74].startZ 540m
param *.uav[75].startX 2185m
param *.uav[75].startY 3026m
param *.uav[75].startZ 778m
param *.uav[76].startX 3537m
param *.uav[76].startY 965m
param *.uav[76].startZ 539m
param *.uav[77].startX 312m
param *.uav[77].startY 1262m
param *.uav[77].startZ 540m
param *.uav[78].startX 2185m
param *.uav[78].startY 3026m
param *.uav[78].startZ 778m
param *.uav[79].startX 3537m
param *.uav[79].startY 965m
param *.uav[79].startZ 539m
param *.uav[80].startX 3537m
param *.uav[80].startY 965m
param *.uav[80].startZ 539m
param *.uav[81].startX 312m
param *.uav[81].startY 1262m
param *.uav[81].startZ 540m
param *.uav[82].startX 2185m
param *.uav[82].startY 3026m
param *.uav[82].startZ 778m
param *.uav[83].startX 3537m
param *.uav[83].startY 965m
param *.uav[83].startZ 539m
param *.uav[84].startX 312m
param *.uav[84].startY 1262m
param *.uav[84].startZ 540m
param *.uav[85].startX 2185m
param *.uav[85].startY 3026m
param *.uav[85].startZ 778m
param *.uav[86].startX 3537m
param *.uav[86].startY 965m
param *.uav[86].startZ 539m
param *.uav[87].startX 312m
param *.uav[87].startY 1262m
param *.uav[87].startZ 540m
param *.uav[88].startX 2185m
param *.uav[88].startY 3026m
param *.uav[88].startZ 778m
param *.uav[89].startX 3537m
param *.uav[89].startY 965m
param *.uav[89].startZ 539m
param *.uav[90].startX 3537m
param *.uav[90].startY 965m
param *.uav[90].startZ 539m
param *.uav[91].startX 312m
param *.uav[91].startY 1262m
param *.uav[91].startZ 540m
param *.uav[92].startX 2185m
param *.uav[92].startY 3026m
param *.uav[92].startZ 778m
param *.uav[93].startX 3537m
param *.uav[93].startY 965m
param *.uav[93].startZ 539m
param *.uav[94].startX 312m
param *.uav[94].startY 1262m
param *.uav[94].startZ 540m
param *.uav[95].startX 2185m
param *.uav[95].startY 3026m
param *.uav[95].startZ 778m
param *.uav[96].startX 3537m
param *.uav[96].startY 965m
param *.uav[96].startZ 539m
param *.uav[97].startX 312m
param *.uav[97].startY 1262m
param *.uav[97].startZ 540m
param *.uav[98].startX 2185m
param *.uav[98].startY 3026m
param *.uav[98].startZ 778m
param *.uav[99].startX 3537m
param *.uav[99].startY 965m
param *.uav[99].startZ 539m
param *.osgEarthScene.scene "\"boston.earth\""
param *.playgroundLatitude 42.3558
param *.playgroundLongitude -71.0677
param *.playgroundWidth 400m
param *.playgroundHeight 200m
param *.channelController.connectionColor "\"#0000FF40\""
param *.channelController.showConnections false
param *.uav[*].modelURL "\"quadrocopter.small.obj.15.scale.0,0,90.rot\""
param *.uav[*].labelColor "\"#FF7C00CC\""
param *.uav[*].label2Color "\"#FF7C00EE\""
param *.uav[*].batteryCapacity 5200mAh
param *.uav[*].batteryRemaining uav[index].batteryCapacity
param *.uav[*].predictionQuantile 0.95
param *.uav[*].replacementMethod 2
param *.uav[*].weightedSumWeight 0.5
param *.cs[*].modelURL "\"chargingstation_v1.osgt.2.scale.0,0,0.rot.0,0,-15e-1.trans\""
param *.cs[*].spotsWaiting 999
param *.cs[*].spotsCharging 999
param *.cs[*].chargeEffectivenessPercentage 100
param *.cs[*].nonLinearPhaseStartPercentage 85
param *.cs[*].chargeCurrent 6.0A
param *.cs[*].prioritizeFastCharge true
param *.missionControl.replacementSearchMethod 0
param *.*.timeStep 9s

scalar OsgEarthNet.uav[0] utilizationSecMission 36775.209152793
scalar OsgEarthNet.uav[0] utilizationSecMaintenance 24536.209190335
scalar OsgEarthNet.uav[0] utilizationSecCharge 194980
scalar OsgEarthNet.uav[0] utilizationSecIdle 2908.5806568717
scalar OsgEarthNet.uav[0] utilizationEnergyMission 180696.36510419
scalar OsgEarthNet.uav[0] utilizationEnergyMaintenance 116593.3416481
scalar OsgEarthNet.uav[0] utilizationEnergyCharge 295684.89770508
scalar OsgEarthNet.uav[0] utilizationEnergyOverdrawMission 0
scalar OsgEarthNet.uav[0] utilizationEnergyOverdrawMaintenance 0
scalar OsgEarthNet.uav[0] utilizationCountMissions 67
scalar OsgEarthNet.uav[0] utilizationCountManeuversMission 1232
scalar OsgEarthNet.uav[0] utilizationCountManeuversMaintenance 135
scalar OsgEarthNet.uav[0] utilizationCountChargeState 67
scalar OsgEarthNet.uav[0] utilizationCountOverdrawnAfterMission 0
scalar OsgEarthNet.uav[0] utilizationCountIdleState 2
scalar OsgEarthNet.uav[0] utilizationFail 0
scalar OsgEarthNet.uav[0] simulationTime 259200
scalar OsgEarthNet.uav[1] utilizationSecMission 32586.199231385
scalar OsgEarthNet.uav[1] utilizationSecMaintenance 23483.999550009
scalar OsgEarthNet.uav[1] utilizationSecCharge 200260
scalar OsgEarthNet.uav[1] utilizationSecIdle 2869.8002186065
scalar OsgEarthNet.uav[1] utilizationEnergyMission 158500.08532353
scalar OsgEarthNet.uav[1] utilizationEnergyMaintenance 110883.10530472
scalar OsgEarthNet.uav[1] utilizationEnergyCharge 267944.15356445
scalar OsgEarthNet.uav[1] utilizationEnergyOverdrawMission 0
scalar OsgEarthNet.uav[1] utilizationEnergyOverdrawMaintenance 0
scalar OsgEarthNet.uav[1] utilizationCountMissions 70
scalar OsgEarthNet.uav[1] utilizationCountManeuversMission 1128
scalar OsgEarthNet.uav[1] utilizationCountManeuversMaintenance 141
scalar OsgEarthNet.uav[1] utilizationCountChargeState 70
scalar OsgEarthNet.uav[1] utilizationCountOverdrawnAfterMission 0
scalar OsgEarthNet.uav[1] utilizationCountIdleState 6
scalar OsgEarthNet.uav[1] utilizationFail 0
scalar OsgEarthNet.uav[1] simulationTime 259200
scalar OsgEarthNet.uav[2] utilizationSecMission 42939.447028733
scalar OsgEarthNet.uav[2] utilizationSecMaintenance 19045.116597553
scalar OsgEarthNet.uav[2] utilizationSecCharge 195293.43237371
scalar OsgEarthNet.uav[2] utilizationSecIdle 1922.003
scalar OsgEarthNet.uav[2] utilizationEnergyMission 207803.21697235
scalar OsgEarthNet.uav[2] utilizationEnergyMaintenance 87652.123470306
scalar OsgEarthNet.uav[2] utilizationEnergyCharge 293531.82983398
scalar OsgEarthNet.uav[2] utilizationEnergyOverdrawMission 0
scalar OsgEarthNet.uav[2] utilizationEnergyOverdrawMaintenance 0
scalar OsgEarthNet.uav[2] utilizationCountMissions 65
scalar OsgEarthNet.uav[2] utilizationCountManeuversMission 1319
scalar OsgEarthNet.uav[2] utilizationCountManeuversMaintenance 130
scalar OsgEarthNet.uav[2] utilizationCountChargeState 65
scalar OsgEarthNet.uav[2] utilizationCountOverdrawnAfterMission 0
scalar OsgEarthNet.uav[2] utilizationCountIdleState 3
scalar OsgEarthNet.uav[2] utilizationFail 0
scalar OsgEarthNet.uav[2] simulationTime 259200
scalar OsgEarthNet.uav[3] utilizationSecMission 43939.705490845
scalar OsgEarthNet.uav[3] utilizationSecMaintenance 18438.293509155
scalar OsgEarthNet.uav[3] utilizationSecCharge 196800
scalar OsgEarthNet.uav[3] utilizationSecIdle 22
scalar OsgEarthNet.uav[3] utilizationEnergyMission 213591.52183845
scalar OsgEarthNet.uav[3] utilizationEnergyMaintenance 85096.115322113
scalar OsgEarthNet.uav[3] utilizationEnergyCharge 295528.95556641
scalar OsgEarthNet.uav[3] utilizationEnergyOverdrawMission 0
scalar OsgEarthNet.uav[3] utilizationEnergyOverdrawMaintenance 0
scalar OsgEarthNet.uav[3] utilizationCountMissions 65
scalar OsgEarthNet.uav[3] utilizationCountManeuversMission 1368
scalar OsgEarthNet.uav[3] utilizationCountManeuversMaintenance 130
scalar OsgEarthNet.uav[3] utilizationCountChargeState 65
scalar OsgEarthNet.uav[3] utilizationCountOverdrawnAfterMission 0
scalar OsgEarthNet.uav[3] utilizationCountIdleState 2
scalar OsgEarthNet.uav[3] utilizationFail 0
scalar OsgEarthNet.uav[3] simulationTime 259200
scalar OsgEarthNet.uav[4] utilizationSecMission 34879.914410559
scalar OsgEarthNet.uav[4] utilizationSecMaintenance 22378.082589441
scalar OsgEarthNet.uav[4] utilizationSecCharge 199430
scalar OsgEarthNet.uav[4] utilizationSecIdle 2512.002
scalar OsgEarthNet.uav[4] utilizationEnergyMission 169413.15839386
scalar OsgEarthNet.uav[4] utilizationEnergyMaintenance 106542.58367622
scalar OsgEarthNet.uav[4] utilizationEnergyCharge 271820.47729492
scalar OsgEarthNet.uav[4] utilizationEnergyOverdrawMission 0
scalar OsgEarthNet.uav[4] utilizationEnergyOverdrawMaintenance 0
scalar OsgEarthNet.uav[4] utilizationCountMissions 68
scalar OsgEarthNet.uav[4] utilizationCountManeuversMission 1082
scalar OsgEarthNet.uav[4] utilizationCountManeuversMaintenance 136
scalar OsgEarthNet.uav[4] utilizationCountChargeState 67
scalar OsgEarthNet.uav[4] utilizationCountOverdrawnAfterMission 0
scalar OsgEarthNet.uav[4] utilizationCountIdleState 12
scalar OsgEarthNet.uav[4] utilizationFail 0
scalar OsgEarthNet.uav[4] simulationTime 259200
scalar OsgEarthNet.uav[5] utilizationSecMission 42651.386647022
scalar OsgEarthNet.uav[5] utilizationSecMaintenance 19523.484199836
scalar OsgEarthNet.uav[5] utilizationSecCharge 196973.12815314
scalar OsgEarthNet.uav[5] utilizationSecIdle 52
scalar OsgEarthNet.uav[5] utilizationEnergyMission 205582.50434008
scalar OsgEarthNet.uav[5] utilizationEnergyMaintenance 91187.686683655
scalar OsgEarthNet.uav[5] utilizationEnergyCharge 297623.45532227
scalar OsgEarthNet.uav[5] utilizationEnergyOverdrawMission 0
scalar OsgEarthNet.uav[5] utilizationEnergyOverdrawMaintenance 0
scalar OsgEarthNet.uav[5] utilizationCountMissions 66
scalar OsgEarthNet.uav[5] utilizationCountManeuversMission 1364
scalar OsgEarthNet.uav[5] utilizationCountManeuversMaintenance 131
scalar OsgEarthNet.uav[5] utilizationCountChargeState 66
scalar OsgEarthNet.uav[5] utilizationCountOverdrawnAfterMission 0
scalar OsgEarthNet.uav[5] utilizationCountIdleState 3
scalar OsgEarthNet.uav[5] utilizationFail 0
scalar OsgEarthNet.uav[5] simulationTime 259200
scalar OsgEarthNet.uav[6] utilizationSecMission 43598.428528452
scalar OsgEarthNet.uav[6] utilizationSecMaintenance 18593.986589548
scalar OsgEarthNet.uav[6] utilizationSecCharge 196162.03697274
scalar OsgEarthNet.uav[6] utilizationSecIdle 845.54690925794
scalar OsgEarthNet.uav[6] utilizationEnergyMission 209357.20720291
scalar OsgEarthNet.uav[6] utilizationEnergyMaintenance 85227.921977997
scalar OsgEarthNet.uav[6] utilizationEnergyCharge 291122.36804199
scalar OsgEarthNet.uav[6] utilizationEnergyOverdrawMission 0
scalar OsgEarthNet.uav[6] utilizationEnergyOverdrawMaintenance 0
scalar OsgEarthNet.uav[6] utilizationCountMissions 65
scalar OsgEarthNet.uav[6] utilizationCountManeuversMission 1203
scalar OsgEarthNet.uav[6] utilizationCountManeuversMaintenance 130
scalar OsgEarthNet.uav[6] utilizationCountChargeState 65
scalar OsgEarthNet.uav[6] utilizationCountOverdrawnAfterMission 0
scalar OsgEarthNet.uav[6] utilizationCountIdleState 3
scalar OsgEarthNet.uav[6] utilizationFail 0
scalar OsgEarthNet.uav[6] simulationTime 259200
scalar OsgEarthNet.uav[7] utilizationSecMission 41607.305510479
scalar OsgEarthNet.uav[7] utilizationSecMaintenance 19372.725561813
scalar OsgEarthNet.uav[7] utilizationSecCharge 195787.96392771
scalar OsgEarthNet.uav[7] utilizationSecIdle 2432.004
scalar OsgEarthNet.uav[7] utilizationEnergyMission 204255.51089096
scalar OsgEarthNet.uav[7] utilizationEnergyMaintenance 90831.928752899
scalar OsgEarthNet.uav[7] utilizationEnergyCharge 293769.77539062
scalar OsgEarthNet.uav[7] utilizationEnergyOverdrawMission 0
scalar OsgEarthNet.uav[7] utilizationEnergyOverdrawMaintenance 0
scalar OsgEarthNet.uav[7] utilizationCountMissions 65
scalar OsgEarthNet.uav[7] utilizationCountManeuversMission 1405
scalar OsgEarthNet.uav[7] utilizationCountManeuversMaintenance 130
scalar OsgEarthNet.uav[7] utilizationCountChargeState 65
scalar OsgEarthNet.uav[7] utilizationCountOverdrawnAfterMission 0
scalar OsgEarthNet.uav[7] utilizationCountIdleState 4
scalar OsgEarthNet.uav[7] utilizationFail 0
scalar OsgEarthNet.uav[7] simulationTime 259200
scalar OsgEarthNet.uav[8] utilizationSecMission 42598.267544027
scalar OsgEarthNet.uav[8] utilizationSecMaintenance 19877.794275367
scalar OsgEarthNet.uav[8] utilizationSecCharge 195896.48691657
scalar OsgEarthNet.uav[8] utilizationSecIdle 827.4502640309
scalar OsgEarthNet.uav[8] utilizationEnergyMission 204625.00662994
scalar OsgEarthNet.uav[8] utilizationEnergyMaintenance 92206.621173859
scalar OsgEarthNet.uav[8] utilizationEnergyCharge 294831.03466797
scalar OsgEarthNet.uav[8] utilizationEnergyOverdrawMission 0
scalar OsgEarthNet.uav[8] utilizationEnergyOverdrawMaintenance 0
scalar OsgEarthNet.uav[8] utilizationCountMissions 66
scalar OsgEarthNet.uav[8] utilizationCountManeuversMission 1276
scalar OsgEarthNet.uav[8] utilizationCountManeuversMaintenance 132
scalar OsgEarthNet.uav[8] utilizationCountChargeState 66
scalar OsgEarthNet.uav[8] utilizationCountOverdrawnAfterMission 0
scalar OsgEarthNet.uav[8] utilizationCountIdleState 3
scalar OsgEarthNet.uav[8] utilizationFail 0
scalar OsgEarthNet.uav[8] simulationTime 259200
scalar OsgEarthNet.uav[9] utilizationSecMission 36011.877899025
scalar OsgEarthNet.uav[9] utilizationSecMaintenance 25789.125825581
scalar OsgEarthNet.uav[9] utilizationSecCharge 197326.99527539
scalar OsgEarthNet.uav[9] utilizationSecIdle 72
scalar OsgEarthNet.uav[9] utilizationEnergyMission 178523.38265991
scalar OsgEarthNet.uav[9] utilizationEnergyMaintenance 122219.66663361
scalar OsgEarthNet.uav[9] utilizationEnergyCharge 296627.16772461
scalar OsgEarthNet.uav[9] utilizationEnergyOverdrawMission 0
scalar OsgEarthNet.uav[9] utilizationEnergyOverdrawMaintenance 0
scalar OsgEarthNet.uav[9] utilizationCountMissions 68
scalar OsgEarthNet.uav[9] utilizationCountManeuversMission 1306
scalar OsgEarthNet.uav[9] utilizationCountManeuversMaintenance 136
scalar OsgEarthNet.uav[9] utilizationCountChargeState 68
scalar OsgEarthNet.uav[9] utilizationCountOverdrawnAfterMission 0
scalar OsgEarthNet.uav[9] utilizationCountIdleState 3
scalar OsgEarthNet.uav[9] utilizationFail 0
scalar OsgEarthNet.uav[9] simulationTime 259200
scalar OsgEarthNet.uav[10] utilizationSecMission 36515.003661927
scalar OsgEarthNet.uav[10] utilizationSecMaintenance 24127.238720129
scalar OsgEarthNet.uav[10] utilizationSecCharge 194775.74961794
scalar OsgEarthNet.uav[10] utilizationSecIdle 3782.007
scalar OsgEarthNet.uav[10] utilizationEnergyMission 176756.71086884
scalar OsgEarthNet.uav[10] utilizationEnergyMaintenance 114985.10982513
scalar OsgEarthNet.uav[10] utilizationEnergyCharge 289073.05950928
scalar OsgEarthNet.uav[10] utilizationEnergyOverdrawMission 0
scalar OsgEarthNet.uav[10] utilizationEnergyOverdrawMaintenance 0
scalar OsgEarthNet.uav[10] utilizationCountMissions 66
scalar OsgEarthNet.uav[10] utilizationCountManeuversMission 1201
scalar OsgEarthNet.uav[10] utilizationCountManeuversMaintenance 132
scalar OsgEarthNet.uav[10] utilizationCountChargeState 66
scalar OsgEarthNet.uav[10] utilizationCountOverdrawnAfterMission 0
scalar OsgEarthNet.uav[10] utilizationCountIdleState 6
scalar OsgEarthNet.uav[10] utilizationFail 0
scalar OsgEarthNet.uav[10] simulationTime 259200
scalar OsgEarthNet.uav[11] utilizationSecMission 34184.446759203
scalar OsgEarthNet.uav[11] utilizationSecMaintenance 22975.786558272
scalar OsgEarthNet.uav[11] utilizationSecCharge 199997.7641758
scalar OsgEarthNet.uav[11] utilizationSecIdle 2042.0015067221
scalar OsgEarthNet.uav[11] utilizationEnergyMission 166300.93939972
scalar OsgEarthNet.uav[11] utilizationEnergyMaintenance 109746.73192978
scalar OsgEarthNet.uav[11] utilizationEnergyCharge 275943.12524414
scalar OsgEarthNet.uav[11] utilizationEnergyOverdrawMission 0
scalar OsgEarthNet.uav[11] utilizationEnergyOverdrawMaintenance 0
scalar OsgEarthNet.uav[11] utilizationCountMissions 68
scalar OsgEarthNet.uav[11] utilizationCountManeuversMission 1144
scalar OsgEarthNet.uav[11] utilizationCountManeuversMaintenance 136
scalar OsgEarthNet.uav[11] utilizationCountChargeState 68
scalar OsgEarthNet.uav[11] utilizationCountOverdrawnAfterMission 0
scalar OsgEarthNet.uav[11] utilizationCountIdleState 7
scalar OsgEarthNet.uav[11] utilizationFail 0
scalar OsgEarthNet.uav[11] simulationTime 259200
scalar OsgEarthNet.uav[12] utilizationSecMission 41219.964163885
scalar OsgEarthNet.uav[12] utilizationSecMaintenance 20400.854739926
scalar OsgEarthNet.uav[12] utilizationSecCharge 196714.68215501
scalar OsgEarthNet.uav[12] utilizationSecIdle 864.49794117561
scalar OsgEarthNet.uav[12] utilizationEnergyMission 202582.16255188
scalar OsgEarthNet.uav[12] utilizationEnergyMaintenance 95967.897331238
scalar OsgEarthNet.uav[12] utilizationEnergyCharge 294876.48681641
scalar OsgEarthNet.uav[12] utilizationEnergyOverdrawMission 0
scalar OsgEarthNet.uav[12] utilizationEnergyOverdrawMaintenance 0
scalar OsgEarthNet.uav[12] utilizationCountMissions 65
scalar OsgEarthNet.uav[12] utilizationCountManeuversMission 1255
scalar OsgEarthNet.uav[12] utilizationCountManeuversMaintenance 130
scalar OsgEarthNet.uav[12] utilizationCountChargeState 65
scalar OsgEarthNet.uav[12] utilizationCountOverdrawnAfterMission 0
scalar OsgEarthNet.uav[12] utilizationCountIdleState 2
scalar OsgEarthNet.uav[12] utilizationFail 0
scalar OsgEarthNet.uav[12] simulationTime 259200
scalar OsgEarthNet.uav[13] utilizationSecMission 37907.762310998
scalar OsgEarthNet.uav[13] utilizationSecMaintenance 23077.164653518
scalar OsgEarthNet.uav[13] utilizationSecCharge 196473.06903548
scalar OsgEarthNet.uav[13] utilizationSecIdle 1742.003
scalar OsgEarthNet.uav[13] utilizationEnergyMission 183244.5981102
scalar OsgEarthNet.uav[13] utilizationEnergyMaintenance 109850.7776413
scalar OsgEarthNet.uav[13] utilizationEnergyCharge 293587.54614258
scalar OsgEarthNet.uav[13] utilizationEnergyOverdrawMission 0
scalar OsgEarthNet.uav[13] utilizationEnergyOverdrawMaintenance 0
scalar OsgEarthNet.uav[13] utilizationCountMissions 66
scalar OsgEarthNet.uav[13] utilizationCountManeuversMission 1162
scalar OsgEarthNet.uav[13] utilizationCountManeuversMaintenance 132
scalar OsgEarthNet.uav[13] utilizationCountChargeState 66
scalar OsgEarthNet.uav[13] utilizationCountOverdrawnAfterMission 0
scalar OsgEarthNet.uav[13] utilizationCountIdleState 5
scalar OsgEarthNet.uav[13] utilizationFail 0
scalar OsgEarthNet.uav[13] simulationTime 259200
scalar OsgEarthNet.uav[14] utilizationSecMission 33832.214750221
scalar OsgEarthNet.uav[14] utilizationSecMaintenance 22926.075023125
scalar OsgEarthNet.uav[14] utilizationSecCharge 200660.74524098
scalar OsgEarthNet.uav[14] utilizationSecIdle 1780.9639856735
scalar OsgEarthNet.uav[14] utilizationEnergyMission 163594.74228287
scalar OsgEarthNet.uav[14] utilizationEnergyMaintenance 109056.73693848
scalar OsgEarthNet.uav[14] utilizationEnergyCharge 270007.19311523
scalar OsgEarthNet.uav[14] utilizationEnergyOverdrawMission 0
scalar OsgEarthNet.uav[14] utilizationEnergyOverdrawMaintenance 0
scalar OsgEarthNet.uav[14] utilizationCountMissions 71
scalar OsgEarthNet.uav[14] utilizationCountManeuversMission 1059
scalar OsgEarthNet.uav[14] utilizationCountManeuversMaintenance 142
scalar OsgEarthNet.uav[14] utilizationCountChargeState 71
scalar OsgEarthNet.uav[14] utilizationCountOverdrawnAfterMission 0
scalar OsgEarthNet.uav[14] utilizationCountIdleState 6
scalar OsgEarthNet.uav[14] utilizationFail 0
scalar OsgEarthNet.uav[14] simulationTime 259200
scalar OsgEarthNet.uav[15] utilizationSecMission 43901.993257413
scalar OsgEarthNet.uav[15] utilizationSecMaintenance 17933.16992892
scalar OsgEarthNet.uav[15] utilizationSecCharge 195683.38285495
scalar OsgEarthNet.uav[15] utilizationSecIdle 1681.4529587171
scalar OsgEarthNet.uav[15] utilizationEnergyMission 212434.64210892
scalar OsgEarthNet.uav[15] utilizationEnergyMaintenance 82476.05179596
scalar OsgEarthNet.uav[15] utilizationEnergyCharge 292226.30480957
scalar OsgEarthNet.uav[15] utilizationEnergyOverdrawMission 0
scalar OsgEarthNet.uav[15] utilizationEnergyOverdrawMaintenance 0
scalar OsgEarthNet.uav[15] utilizationCountMissions 65
scalar OsgEarthNet.uav[15] utilizationCountManeuversMission 1403
scalar OsgEarthNet.uav[15] utilizationCountManeuversMaintenance 130
scalar OsgEarthNet.uav[15] utilizationCountChargeState 65
scalar OsgEarthNet.uav[15] utilizationCountOverdrawnAfterMission 0
scalar OsgEarthNet.uav[15] utilizationCountIdleState 3
scalar OsgEarthNet.uav[15] utilizationFail 0
scalar OsgEarthNet.uav[15] simulationTime 259200
scalar OsgEarthNet.uav[16] utilizationSecMission 36854.894586848
scalar OsgEarthNet.uav[16] utilizationSecMaintenance 24423.099413152
scalar OsgEarthNet.uav[16] utilizationSecCharge 195250
scalar OsgEarthNet.uav[16] utilizationSecIdle 2672.005
scalar OsgEarthNet.uav[16] utilizationEnergyMission 181630.94472504
scalar OsgEarthNet.uav[16] utilizationEnergyMaintenance 116323.44056899
scalar OsgEarthNet.uav[16] utilizationEnergyCharge 292829.16113281
scalar OsgEarthNet.uav[16] utilizationEnergyOverdrawMission 0
scalar OsgEarthNet.uav[16] utilizationEnergyOverdrawMaintenance 0
scalar OsgEarthNet.uav[16] utilizationCountMissions 67
scalar OsgEarthNet.uav[16] utilizationCountManeuversMission 1235
scalar OsgEarthNet.uav[16] utilizationCountManeuversMaintenance 134
scalar OsgEarthNet.uav[16] utilizationCountChargeState 66
scalar OsgEarthNet.uav[16] utilizationCountOverdrawnAfterMission 0
scalar OsgEarthNet.uav[16] utilizationCountIdleState 4
scalar OsgEarthNet.uav[16] utilizationFail 0
scalar OsgEarthNet.uav[16] simulationTime 259200
scalar OsgEarthNet.uav[17] utilizationSecMission 42340.240346178
scalar OsgEarthNet.uav[17] utilizationSecMaintenance 18859.141614474
scalar OsgEarthNet.uav[17] utilizationSecCharge 195630
scalar OsgEarthNet.uav[17] utilizationSecIdle 2370.6170393477
scalar OsgEarthNet.uav[17] utilizationEnergyMission 207515.83633337
scalar OsgEarthNet.uav[17] utilizationEnergyMaintenance 85766.004302979
scalar OsgEarthNet.uav[17] utilizationEnergyCharge 292150.70800781
scalar OsgEarthNet.uav[17] utilizationEnergyOverdrawMission 0
scalar OsgEarthNet.uav[17] utilizationEnergyOverdrawMaintenance 0
scalar OsgEarthNet.uav[17] utilizationCountMissions 64
scalar OsgEarthNet.uav[17] utilizationCountManeuversMission 1397
scalar OsgEarthNet.uav[17] utilizationCountManeuversMaintenance 129
scalar OsgEarthNet.uav[17] utilizationCountChargeState 64
scalar OsgEarthNet.uav[17] utilizationCountOverdrawnAfterMission 0
scalar OsgEarthNet.uav[17] utilizationCountIdleState 3
scalar OsgEarthNet.uav[17] utilizationFail 0
scalar OsgEarthNet.uav[17] simulationTime 259200
scalar OsgEarthNet.uav[18] utilizationSecMission 38599.062200226
scalar OsgEarthNet.uav[18] utilizationSecMaintenance 23221.239820556
scalar OsgEarthNet.uav[18] utilizationSecCharge 196537.69597922
scalar OsgEarthNet.uav[18] utilizationSecIdle 842.001
scalar OsgEarthNet.uav[18] utilizationEnergyMission 187968.54759598
scalar OsgEarthNet.uav[18] utilizationEnergyMaintenance 110761.69299698
scalar OsgEarthNet.uav[18] utilizationEnergyCharge 296130.0625
scalar OsgEarthNet.uav[18] utilizationEnergyOverdrawMission 0
scalar OsgEarthNet.uav[18] utilizationEnergyOverdrawMaintenance 0
scalar OsgEarthNet.uav[18] utilizationCountMissions 67
scalar OsgEarthNet.uav[18] utilizationCountManeuversMission 1293
scalar OsgEarthNet.uav[18] utilizationCountManeuversMaintenance 134
scalar OsgEarthNet.uav[18] utilizationCountChargeState 67
scalar OsgEarthNet.uav[18] utilizationCountOverdrawnAfterMission 0
scalar OsgEarthNet.uav[18] utilizationCountIdleState 3
scalar OsgEarthNet.uav[18] utilizationFail 0
scalar OsgEarthNet.uav[18] simulationTime 259200
scalar OsgEarthNet.uav[19] utilizationSecMission 34520.020122548
scalar OsgEarthNet.uav[19] utilizationSecMaintenance 23130.152515829
scalar OsgEarthNet.uav[19] utilizationSecCharge 197979.25594767
scalar OsgEarthNet.uav[19] utilizationSecIdle 3570.5704139544
scalar OsgEarthNet.uav[19] utilizationEnergyMission 168189.27471924
scalar OsgEarthNet.uav[19] utilizationEnergyMaintenance 109007.26044083
scalar OsgEarthNet.uav[19] utilizationEnergyCharge 275130.96447754
scalar OsgEarthNet.uav[19] utilizationEnergyOverdrawMission 0
scalar OsgEarthNet.uav[19] utilizationEnergyOverdrawMaintenance 0
scalar OsgEarthNet.uav[19] utilizationCountMissions 67
scalar OsgEarthNet.uav[19] utilizationCountManeuversMission 1177
scalar OsgEarthNet.uav[19] utilizationCountManeuversMaintenance 134
scalar OsgEarthNet.uav[19] utilizationCountChargeState 67
scalar OsgEarthNet.uav[19] utilizationCountOverdrawnAfterMission 0
scalar OsgEarthNet.uav[19] utilizationCountIdleState 5
scalar OsgEarthNet.uav[19] utilizationFail 0
scalar OsgEarthNet.uav[19] simulationTime 259200
scalar OsgEarthNet.uav[20] utilizationSecMission 37906.788094837
scalar OsgEarthNet.uav[20] utilizationSecMaintenance 22172.594174847
scalar OsgEarthNet.uav[20] utilizationSecCharge 195908.61073032
scalar OsgEarthNet.uav[20] utilizationSecIdle 3212.006
scalar OsgEarthNet.uav[20] utilizationEnergyMission 181371.21904373
scalar OsgEarthNet.uav[20] utilizationEnergyMaintenance 105736.58245087
scalar OsgEarthNet.uav[20] utilizationEnergyCharge 285959.52856445
scalar OsgEarthNet.uav[20] utilizationEnergyOverdrawMission 0
scalar OsgEarthNet.uav[20] utilizationEnergyOverdrawMaintenance 0
scalar OsgEarthNet.uav[20] utilizationCountMissions 66
scalar OsgEarthNet.uav[20] utilizationCountManeuversMission 1115
scalar OsgEarthNet.uav[20] utilizationCountManeuversMaintenance 132
scalar OsgEarthNet.uav[20] utilizationCountChargeState 66
scalar OsgEarthNet.uav[20] utilizationCountOverdrawnAfterMission 0
scalar OsgEarthNet.uav[20] utilizationCountIdleState 5
scalar OsgEarthNet.uav[20] utilizationFail 0
scalar OsgEarthNet.uav[20] simulationTime 259200
scalar OsgEarthNet.uav[21] utilizationSecMission 40781.442736724
scalar OsgEarthNet.uav[21] utilizationSecMaintenance 19199.278510664
scalar OsgEarthNet.uav[21] utilizationSecCharge 196503.83466392
scalar OsgEarthNet.uav[21] utilizationSecIdle 2715.443088691
scalar OsgEarthNet.uav[21] utilizationEnergyMission 197307.7680397
scalar OsgEarthNet.uav[21] utilizationEnergyMaintenance 90101.823040009
scalar OsgEarthNet.uav[21] utilizationEnergyCharge 287029.35327148
scalar OsgEarthNet.uav[21] utilizationEnergyOverdrawMission 0
scalar OsgEarthNet.uav[21] utilizationEnergyOverdrawMaintenance 0
scalar OsgEarthNet.uav[21] utilizationCountMissions 65
scalar OsgEarthNet.uav[21] utilizationCountManeuversMission 1248
scalar OsgEarthNet.uav[21] utilizationCountManeuversMaintenance 130
scalar OsgEarthNet.uav[21] utilizationCountChargeState 65
scalar OsgEarthNet.uav[21] utilizationCountOverdrawnAfterMission 0
scalar OsgEarthNet.uav[21] utilizationCountIdleState 4
scalar OsgEarthNet.uav[21] utilizationFail 0
scalar OsgEarthNet.uav[21] simulationTime 259200
scalar OsgEarthNet.uav[22] utilizationSecMission 42776.849925688
scalar OsgEarthNet.uav[22] utilizationSecMaintenance 18744.825229221
scalar OsgEarthNet.uav[22] utilizationSecCharge 195448.69276443
scalar OsgEarthNet.uav[22] utilizationSecIdle 2229.6310806652
scalar OsgEarthNet.uav[22] utilizationEnergyMission 212824.47672272
scalar OsgEarthNet.uav[22] utilizationEnergyMaintenance 87246.734996796
scalar OsgEarthNet.uav[22] utilizationEnergyCharge 291607.93499756
scalar OsgEarthNet.uav[22] utilizationEnergyOverdrawMission 0
scalar OsgEarthNet.uav[22] utilizationEnergyOverdrawMaintenance 0
scalar OsgEarthNet.uav[22] utilizationCountMissions 65
scalar OsgEarthNet.uav[22] utilizationCountManeuversMission 1447
scalar OsgEarthNet.uav[22] utilizationCountManeuversMaintenance 130
scalar OsgEarthNet.uav[22] utilizationCountChargeState 65
scalar OsgEarthNet.uav[22] utilizationCountOverdrawnAfterMission 0
scalar OsgEarthNet.uav[22] utilizationCountIdleState 2
scalar OsgEarthNet.uav[22] utilizationFail 0
scalar OsgEarthNet.uav[22] simulationTime 259200
scalar OsgEarthNet.uav[23] utilizationSecMission 36954.378509346
scalar OsgEarthNet.uav[23] utilizationSecMaintenance 24479.446675816
scalar OsgEarthNet.uav[23] utilizationSecCharge 197194.17281484
scalar OsgEarthNet.uav[23] utilizationSecIdle 572.001
scalar OsgEarthNet.uav[23] utilizationEnergyMission 178685.0383606
scalar OsgEarthNet.uav[23] utilizationEnergyMaintenance 115994.13776016
scalar OsgEarthNet.uav[23] utilizationEnergyCharge 294022.10693359
scalar OsgEarthNet.uav[23] utilizationEnergyOverdrawMission 0
scalar OsgEarthNet.uav[23] utilizationEnergyOverdrawMaintenance 0
scalar OsgEarthNet.uav[23] utilizationCountMissions 67
scalar OsgEarthNet.uav[23] utilizationCountManeuversMission 1249
scalar OsgEarthNet.uav[23] utilizationCountManeuversMaintenance 134
scalar OsgEarthNet.uav[23] utilizationCountChargeState 67
scalar OsgEarthNet.uav[23] utilizationCountOverdrawnAfterMission 0
scalar OsgEarthNet.uav[23] utilizationCountIdleState 3
scalar OsgEarthNet.uav[23] utilizationFail 0
scalar OsgEarthNet.uav[23] simulationTime 259200
scalar OsgEarthNet.uav[24] utilizationSecMission 36247.690889723
scalar OsgEarthNet.uav[24] utilizationSecMaintenance 24874.396989549
scalar OsgEarthNet.uav[24] utilizationSecCharge 197305.91012073
scalar OsgEarthNet.uav[24] utilizationSecIdle 772.001
scalar OsgEarthNet.uav[24] utilizationEnergyMission 177314.45678711
scalar OsgEarthNet.uav[24] utilizationEnergyMaintenance 118815.37931824
scalar OsgEarthNet.uav[24] utilizationEnergyCharge 293758.11523438
scalar OsgEarthNet.uav[24] utilizationEnergyOverdrawMission 0
scalar OsgEarthNet.uav[24] utilizationEnergyOverdrawMaintenance 0
scalar OsgEarthNet.uav[24] utilizationCountMissions 67
scalar OsgEarthNet.uav[24] utilizationCountManeuversMission 1220
scalar OsgEarthNet.uav[24] utilizationCountManeuversMaintenance 134
scalar OsgEarthNet.uav[24] utilizationCountChargeState 67
scalar OsgEarthNet.uav[24] utilizationCountOverdrawnAfterMission 0
scalar OsgEarthNet.uav[24] utilizationCountIdleState 4
scalar OsgEarthNet.uav[24] utilizationFail 0
scalar OsgEarthNet.uav[24] simulationTime 259200
scalar OsgEarthNet.uav[25] utilizationSecMission 44408.21597644
scalar OsgEarthNet.uav[25] utilizationSecMaintenance 17903.305235448
scalar OsgEarthNet.uav[25] utilizationSecCharge 196626.47778811
scalar OsgEarthNet.uav[25] utilizationSecIdle 262
scalar OsgEarthNet.uav[25] utilizationEnergyMission 212666.07661057
scalar OsgEarthNet.uav[25] utilizationEnergyMaintenance 81864.711990356
scalar OsgEarthNet.uav[25] utilizationEnergyCharge 292096.5078125
scalar OsgEarthNet.uav[25] utilizationEnergyOverdrawMission 0
scalar OsgEarthNet.uav[25] utilizationEnergyOverdrawMaintenance 0
scalar OsgEarthNet.uav[25] utilizationCountMissions 64
scalar OsgEarthNet.uav[25] utilizationCountManeuversMission 1294
scalar OsgEarthNet.uav[25] utilizationCountManeuversMaintenance 128
scalar OsgEarthNet.uav[25] utilizationCountChargeState 64
scalar OsgEarthNet.uav[25] utilizationCountOverdrawnAfterMission 0
scalar OsgEarthNet.uav[25] utilizationCountIdleState 3
scalar OsgEarthNet.uav[25] utilizationFail 0
scalar OsgEarthNet.uav[25] simulationTime 259200
scalar OsgEarthNet.uav[26] utilizationSecMission 40577.866935138
scalar OsgEarthNet.uav[26] utilizationSecMaintenance 20407.687563786
scalar OsgEarthNet.uav[26] utilizationSecCharge 195319.17286598
scalar OsgEarthNet.uav[26] utilizationSecIdle 2895.2716350975
scalar OsgEarthNet.uav[26] utilizationEnergyMission 195867.96085358
scalar OsgEarthNet.uav[26] utilizationEnergyMaintenance 96007.21024704
scalar OsgEarthNet.uav[26] utilizationEnergyCharge 288105.91064453
scalar OsgEarthNet.uav[26] utilizationEnergyOverdrawMission 0
scalar OsgEarthNet.uav[26] utilizationEnergyOverdrawMaintenance 0
scalar OsgEarthNet.uav[26] utilizationCountMissions 65
scalar OsgEarthNet.uav[26] utilizationCountManeuversMission 1162
scalar OsgEarthNet.uav[26] utilizationCountManeuversMaintenance 130
scalar OsgEarthNet.uav[26] utilizationCountChargeState 65
scalar OsgEarthNet.uav[26] utilizationCountOverdrawnAfterMission 0
scalar OsgEarthNet.uav[26] utilizationCountIdleState 4
scalar OsgEarthNet.uav[26] utilizationFail 0
scalar OsgEarthNet.uav[26] simulationTime 259200
scalar OsgEarthNet.uav[27] utilizationSecMission 36294.344124803
scalar OsgEarthNet.uav[27] utilizationSecMaintenance 22769.319885334
scalar OsgEarthNet.uav[27] utilizationSecCharge 197627.98138698
scalar OsgEarthNet.uav[27] utilizationSecIdle 2508.3536028792
scalar OsgEarthNet.uav[27] utilizationEnergyMission 173995.77475739
scalar OsgEarthNet.uav[27] utilizationEnergyMaintenance 108652.93261337
scalar OsgEarthNet.uav[27] utilizationEnergyCharge 280891.70269775
scalar OsgEarthNet.uav[27] utilizationEnergyOverdrawMission 0
scalar OsgEarthNet.uav[27] utilizationEnergyOverdrawMaintenance 0
scalar OsgEarthNet.uav[27] utilizationCountMissions 68
scalar OsgEarthNet.uav[27] utilizationCountManeuversMission 1113
scalar OsgEarthNet.uav[27] utilizationCountManeuversMaintenance 136
scalar OsgEarthNet.uav[27] utilizationCountChargeState 68
scalar OsgEarthNet.uav[27] utilizationCountOverdrawnAfterMission 0
scalar OsgEarthNet.uav[27] utilizationCountIdleState 7
scalar OsgEarthNet.uav[27] utilizationFail 0
scalar OsgEarthNet.uav[27] simulationTime 259200
scalar OsgEarthNet.uav[28] utilizationSecMission 42966.068265535
scalar OsgEarthNet.uav[28] utilizationSecMaintenance 19391.930734465
scalar OsgEarthNet.uav[28] utilizationSecCharge 196670
scalar OsgEarthNet.uav[28] utilizationSecIdle 172
scalar OsgEarthNet.uav[28] utilizationEnergyMission 207460.94028823
scalar OsgEarthNet.uav[28] utilizationEnergyMaintenance 89001.04088974
scalar OsgEarthNet.uav[28] utilizationEnergyCharge 293277.81982422
scalar OsgEarthNet.uav[28] utilizationEnergyOverdrawMission 0
scalar OsgEarthNet.uav[28] utilizationEnergyOverdrawMaintenance 0
scalar OsgEarthNet.uav[28] utilizationCountMissions 65
scalar OsgEarthNet.uav[28] utilizationCountManeuversMission 1423
scalar OsgEarthNet.uav[28] utilizationCountManeuversMaintenance 131
scalar OsgEarthNet.uav[28] utilizationCountChargeState 65
scalar OsgEarthNet.uav[28] utilizationCountOverdrawnAfterMission 0
scalar OsgEarthNet.uav[28] utilizationCountIdleState 5
scalar OsgEarthNet.uav[28] utilizationFail 0
scalar OsgEarthNet.uav[28] simulationTime 259200
scalar OsgEarthNet.uav[29] utilizationSecMission 33159.082769936
scalar OsgEarthNet.uav[29] utilizationSecMaintenance 22718.912230065
scalar OsgEarthNet.uav[29] utilizationSecCharge 199940
scalar OsgEarthNet.uav[29] utilizationSecIdle 3382.004
scalar OsgEarthNet.uav[29] utilizationEnergyMission 160481.40621948
scalar OsgEarthNet.uav[29] utilizationEnergyMaintenance 108265.12601533
scalar OsgEarthNet.uav[29] utilizationEnergyCharge 265861.93554688
scalar OsgEarthNet.uav[29] utilizationEnergyOverdrawMission 0
scalar OsgEarthNet.uav[29] utilizationEnergyOverdrawMaintenance 0
scalar OsgEarthNet.uav[29] utilizationCountMissions 69
scalar OsgEarthNet.uav[29] utilizationCountManeuversMission 1095
scalar OsgEarthNet.uav[29] utilizationCountManeuversMaintenance 138
scalar OsgEarthNet.uav[29] utilizationCountChargeState 68
scalar OsgEarthNet.uav[29] utilizationCountOverdrawnAfterMission 0
scalar OsgEarthNet.uav[29] utilizationCountIdleState 16
scalar OsgEarthNet.uav[29] utilizationFail 0
scalar OsgEarthNet.uav[29] simulationTime 259200
scalar OsgEarthNet.uav[30] utilizationSecMission 41867.189567216
scalar OsgEarthNet.uav[30] utilizationSecMaintenance 18415.985633538
scalar OsgEarthNet.uav[30] utilizationSecCharge 195365.0377892
scalar OsgEarthNet.uav[30] utilizationSecIdle 3551.7860100454
scalar OsgEarthNet.uav[30] utilizationEnergyMission 201837.04024124
scalar OsgEarthNet.uav[30] utilizationEnergyMaintenance 85256.602413178
scalar OsgEarthNet.uav[30] utilizationEnergyCharge 286678.79736328
scalar OsgEarthNet.uav[30] utilizationEnergyOverdrawMission 0
scalar OsgEarthNet.uav[30] utilizationEnergyOverdrawMaintenance 0
scalar OsgEarthNet.uav[30] utilizationCountMissions 64
scalar OsgEarthNet.uav[30] utilizationCountManeuversMission 1230
scalar OsgEarthNet.uav[30] utilizationCountManeuversMaintenance 128
scalar OsgEarthNet.uav[30] utilizationCountChargeState 64
scalar OsgEarthNet.uav[30] utilizationCountOverdrawnAfterMission 0
scalar OsgEarthNet.uav[30] utilizationCountIdleState 5
scalar OsgEarthNet.uav[30] utilizationFail 0
scalar OsgEarthNet.uav[30] simulationTime 259200
scalar OsgEarthNet.uav[31] utilizationSecMission 31671.832232973
scalar OsgEarthNet.uav[31] utilizationSecMaintenance 23963.554877511
scalar OsgEarthNet.uav[31] utilizationSecCharge 202680
scalar OsgEarthNet.uav[31] utilizationSecIdle 884.61188951643
scalar OsgEarthNet.uav[31] utilizationEnergyMission 153989.07067593
scalar OsgEarthNet.uav[31] utilizationEnergyMaintenance 113616.55105972
scalar OsgEarthNet.uav[31] utilizationEnergyCharge 265585.5625
scalar OsgEarthNet.uav[31] utilizationEnergyOverdrawMission 0
scalar OsgEarthNet.uav[31] utilizationEnergyOverdrawMaintenance 0
scalar OsgEarthNet.uav[31] utilizationCountMissions 74
scalar OsgEarthNet.uav[31] utilizationCountManeuversMission 985
scalar OsgEarthNet.uav[31] utilizationCountManeuversMaintenance 149
scalar OsgEarthNet.uav[31] utilizationCountChargeState 74
scalar OsgEarthNet.uav[31] utilizationCountOverdrawnAfterMission 0
scalar OsgEarthNet.uav[31] utilizationCountIdleState 8
scalar OsgEarthNet.uav[31] utilizationFail 0
scalar OsgEarthNet.uav[31] simulationTime 259200
scalar OsgEarthNet.uav[32] utilizationSecMission 42276.884377124
scalar OsgEarthNet.uav[32] utilizationSecMaintenance 18661.389898373
scalar OsgEarthNet.uav[32] utilizationSecCharge 196669.7227245
scalar OsgEarthNet.uav[32] utilizationSecIdle 1592.002
scalar OsgEarthNet.uav[32] utilizationEnergyMission 202486.09539032
scalar OsgEarthNet.uav[32] utilizationEnergyMaintenance 87234.33013916
scalar OsgEarthNet.uav[32] utilizationEnergyCharge 286934.10400391
scalar OsgEarthNet.uav[32] utilizationEnergyOverdrawMission 0
scalar OsgEarthNet.uav[32] utilizationEnergyOverdrawMaintenance 0
scalar OsgEarthNet.uav[32] utilizationCountMissions 64
scalar OsgEarthNet.uav[32] utilizationCountManeuversMission 1133
scalar OsgEarthNet.uav[32] utilizationCountManeuversMaintenance 128
scalar OsgEarthNet.uav[32] utilizationCountChargeState 64
scalar OsgEarthNet.uav[32] utilizationCountOverdrawnAfterMission 0
scalar OsgEarthNet.uav[32] utilizationCountIdleState 3
scalar OsgEarthNet.uav[32] utilizationFail 0
scalar OsgEarthNet.uav[32] simulationTime 259200
scalar OsgEarthNet.uav[33] utilizationSecMission 41010.861988182
scalar OsgEarthNet.uav[33] utilizationSecMaintenance 19745.462612881
scalar OsgEarthNet.uav[33] utilizationSecCharge 197971.67439894
scalar OsgEarthNet.uav[33] utilizationSecIdle 472
scalar OsgEarthNet.uav[33] utilizationEnergyMission 198057.81825256
scalar OsgEarthNet.uav[33] utilizationEnergyMaintenance 90963.241580963
scalar OsgEarthNet.uav[33] utilizationEnergyCharge 286482.09985352
scalar OsgEarthNet.uav[33] utilizationEnergyOverdrawMission 0
scalar OsgEarthNet.uav[33] utilizationEnergyOverdrawMaintenance 0
scalar OsgEarthNet.uav[33] utilizationCountMissions 66
scalar OsgEarthNet.uav[33] utilizationCountManeuversMission 1200
scalar OsgEarthNet.uav[33] utilizationCountManeuversMaintenance 131
scalar OsgEarthNet.uav[33] utilizationCountChargeState 66
scalar OsgEarthNet.uav[33] utilizationCountOverdrawnAfterMission 0
scalar OsgEarthNet.uav[33] utilizationCountIdleState 5
scalar OsgEarthNet.uav[33] utilizationFail 0
scalar OsgEarthNet.uav[33] simulationTime 259200
scalar OsgEarthNet.uav[34] utilizationSecMission 35254.206785568
scalar OsgEarthNet.uav[34] utilizationSecMaintenance 22303.789214432
scalar OsgEarthNet.uav[34] utilizationSecCharge 199310
scalar OsgEarthNet.uav[34] utilizationSecIdle 2332.003
scalar OsgEarthNet.uav[34] utilizationEnergyMission 171877.11260223
scalar OsgEarthNet.uav[34] utilizationEnergyMaintenance 105040.86243346
scalar OsgEarthNet.uav[34] utilizationEnergyCharge 272983.29101562
scalar OsgEarthNet.uav[34] utilizationEnergyOverdrawMission 0
scalar OsgEarthNet.uav[34] utilizationEnergyOverdrawMaintenance 0
scalar OsgEarthNet.uav[34] utilizationCountMissions 69
scalar OsgEarthNet.uav[34] utilizationCountManeuversMission 1073
scalar OsgEarthNet.uav[34] utilizationCountManeuversMaintenance 138
scalar OsgEarthNet.uav[34] utilizationCountChargeState 68
scalar OsgEarthNet.uav[34] utilizationCountOverdrawnAfterMission 0
scalar OsgEarthNet.uav[34] utilizationCountIdleState 10
scalar OsgEarthNet.uav[34] utilizationFail 0
scalar OsgEarthNet.uav[34] simulationTime 259200
scalar OsgEarthNet.uav[35] utilizationSecMission 43761.004427697
scalar OsgEarthNet.uav[35] utilizationSecMaintenance 18199.95898655
scalar OsgEarthNet.uav[35] utilizationSecCharge 196537.03458575
scalar OsgEarthNet.uav[35] utilizationSecIdle 702.001
scalar OsgEarthNet.uav[35] utilizationEnergyMission 210606.01408386
scalar OsgEarthNet.uav[35] utilizationEnergyMaintenance 83205.689601898
scalar OsgEarthNet.uav[35] utilizationEnergyCharge 293434.04931641
scalar OsgEarthNet.uav[35] utilizationEnergyOverdrawMission 0
scalar OsgEarthNet.uav[35] utilizationEnergyOverdrawMaintenance 0
scalar OsgEarthNet.uav[35] utilizationCountMissions 65
scalar OsgEarthNet.uav[35] utilizationCountManeuversMission 1344
scalar OsgEarthNet.uav[35] utilizationCountManeuversMaintenance 130
scalar OsgEarthNet.uav[35] utilizationCountChargeState 65
scalar OsgEarthNet.uav[35] utilizationCountOverdrawnAfterMission 0
scalar OsgEarthNet.uav[35] utilizationCountIdleState 1
scalar OsgEarthNet.uav[35] utilizationFail 0
scalar OsgEarthNet.uav[35] simulationTime 259200
scalar OsgEarthNet.uav[36] utilizationSecMission 43376.54691957
scalar OsgEarthNet.uav[36] utilizationSecMaintenance 17641.136628168
scalar OsgEarthNet.uav[36] utilizationSecCharge 195017.04281716
scalar OsgEarthNet.uav[36] utilizationSecIdle 3165.2726350975
scalar OsgEarthNet.uav[36] utilizationEnergyMission 208179.28318405
scalar OsgEarthNet.uav[36] utilizationEnergyMaintenance 82546.237049103
scalar OsgEarthNet.uav[36] utilizationEnergyCharge 286661.32910156
scalar OsgEarthNet.uav[36] utilizationEnergyOverdrawMission 0
scalar OsgEarthNet.uav[36] utilizationEnergyOverdrawMaintenance 0
scalar OsgEarthNet.uav[36] utilizationCountMissions 63
scalar OsgEarthNet.uav[36] utilizationCountManeuversMission 1285
scalar OsgEarthNet.uav[36] utilizationCountManeuversMaintenance 126
scalar OsgEarthNet.uav[36] utilizationCountChargeState 63
scalar OsgEarthNet.uav[36] utilizationCountOverdrawnAfterMission 0
scalar OsgEarthNet.uav[36] utilizationCountIdleState 2
scalar OsgEarthNet.uav[36] utilizationFail 0
scalar OsgEarthNet.uav[36] simulationTime 259200
scalar OsgEarthNet.uav[37] utilizationSecMission 31970.623265847
scalar OsgEarthNet.uav[37] utilizationSecMaintenance 23241.826722338
scalar OsgEarthNet.uav[37] utilizationSecCharge 200175.54401181
scalar OsgEarthNet.uav[37] utilizationSecIdle 3812.005
scalar OsgEarthNet.uav[37] utilizationEnergyMission 155855.31322479
scalar OsgEarthNet.uav[37] utilizationEnergyMaintenance 110237.2651062
scalar OsgEarthNet.uav[37] utilizationEnergyCharge 264608.79956055
scalar OsgEarthNet.uav[37] utilizationEnergyOverdrawMission 0
scalar OsgEarthNet.uav[37] utilizationEnergyOverdrawMaintenance 0
scalar OsgEarthNet.uav[37] utilizationCountMissions 72
scalar OsgEarthNet.uav[37] utilizationCountManeuversMission 985
scalar OsgEarthNet.uav[37] utilizationCountManeuversMaintenance 144
scalar OsgEarthNet.uav[37] utilizationCountChargeState 72
scalar OsgEarthNet.uav[37] utilizationCountOverdrawnAfterMission 0
scalar OsgEarthNet.uav[37] utilizationCountIdleState 11
scalar OsgEarthNet.uav[37] utilizationFail 0
scalar OsgEarthNet.uav[37] simulationTime 259200
scalar OsgEarthNet.uav[38] utilizationSecMission 42260.361846706
scalar OsgEarthNet.uav[38] utilizationSecMaintenance 19740.417539379
scalar OsgEarthNet.uav[38] utilizationSecCharge 195990
scalar OsgEarthNet.uav[38] utilizationSecIdle 1209.2196139157
scalar OsgEarthNet.uav[38] utilizationEnergyMission 205083.36848855
scalar OsgEarthNet.uav[38] utilizationEnergyMaintenance 90066.510475159
scalar OsgEarthNet.uav[38] utilizationEnergyCharge 293453.38232422
scalar OsgEarthNet.uav[38] utilizationEnergyOverdrawMission 0
scalar OsgEarthNet.uav[38] utilizationEnergyOverdrawMaintenance 0
scalar OsgEarthNet.uav[38] utilizationCountMissions 65
scalar OsgEarthNet.uav[38] utilizationCountManeuversMission 1303
scalar OsgEarthNet.uav[38] utilizationCountManeuversMaintenance 131
scalar OsgEarthNet.uav[38] utilizationCountChargeState 65
scalar OsgEarthNet.uav[38] utilizationCountOverdrawnAfterMission 0
scalar OsgEarthNet.uav[38] utilizationCountIdleState 6
scalar OsgEarthNet.uav[38] utilizationFail 0
scalar OsgEarthNet.uav[38] simulationTime 259200
scalar OsgEarthNet.uav[39] utilizationSecMission 37745.995928337
scalar OsgEarthNet.uav[39] utilizationSecMaintenance 24119.27141331
scalar OsgEarthNet.uav[39] utilizationSecCharge 196232.72965835
scalar OsgEarthNet.uav[39] utilizationSecIdle 1102.002
scalar OsgEarthNet.uav[39] utilizationEnergyMission 184503.99068069
scalar OsgEarthNet.uav[39] utilizationEnergyMaintenance 115184.52325058
scalar OsgEarthNet.uav[39] utilizationEnergyCharge 294822.18457031
scalar OsgEarthNet.uav[39] utilizationEnergyOverdrawMission 0
scalar OsgEarthNet.uav[39] utilizationEnergyOverdrawMaintenance 0
scalar OsgEarthNet.uav[39] utilizationCountMissions 67
scalar OsgEarthNet.uav[39] utilizationCountManeuversMission 1215
scalar OsgEarthNet.uav[39] utilizationCountManeuversMaintenance 134
scalar OsgEarthNet.uav[39] utilizationCountChargeState 67
scalar OsgEarthNet.uav[39] utilizationCountOverdrawnAfterMission 0
scalar OsgEarthNet.uav[39] utilizationCountIdleState 3
scalar OsgEarthNet.uav[39] utilizationFail 0
scalar OsgEarthNet.uav[39] simulationTime 259200
scalar OsgEarthNet.uav[40] utilizationSecMission 43166.29193504
scalar OsgEarthNet.uav[40] utilizationSecMaintenance 18652.44577735
scalar OsgEarthNet.uav[40] utilizationSecCharge 194484.08257396
scalar OsgEarthNet.uav[40] utilizationSecIdle 2897.1787136509
scalar OsgEarthNet.uav[40] utilizationEnergyMission 205598.61552429
scalar OsgEarthNet.uav[40] utilizationEnergyMaintenance 85038.827217102
scalar OsgEarthNet.uav[40] utilizationEnergyCharge 290793.8371582
scalar OsgEarthNet.uav[40] utilizationEnergyOverdrawMission 0
scalar OsgEarthNet.uav[40] utilizationEnergyOverdrawMaintenance 0
scalar OsgEarthNet.uav[40] utilizationCountMissions 64
scalar OsgEarthNet.uav[40] utilizationCountManeuversMission 1207
scalar OsgEarthNet.uav[40] utilizationCountManeuversMaintenance 128
scalar OsgEarthNet.uav[40] utilizationCountChargeState 64
scalar OsgEarthNet.uav[40] utilizationCountOverdrawnAfterMission 0
scalar OsgEarthNet.uav[40] utilizationCountIdleState 2
scalar OsgEarthNet.uav[40] utilizationFail 0
scalar OsgEarthNet.uav[40] simulationTime 259200
scalar OsgEarthNet.uav[41] utilizationSecMission 34455.067992502
scalar OsgEarthNet.uav[41] utilizationSecMaintenance 22384.965074764
scalar OsgEarthNet.uav[41] utilizationSecCharge 199471.96608221
scalar OsgEarthNet.uav[41] utilizationSecIdle 2887.9998505245
scalar OsgEarthNet.uav[41] utilizationEnergyMission 168079.21416855
scalar OsgEarthNet.uav[41] utilizationEnergyMaintenance 106790.9669342
scalar OsgEarthNet.uav[41] utilizationEnergyCharge 273968.78491211
scalar OsgEarthNet.uav[41] utilizationEnergyOverdrawMission 0
scalar OsgEarthNet.uav[41] utilizationEnergyOverdrawMaintenance 0
scalar OsgEarthNet.uav[41] utilizationCountMissions 67
scalar OsgEarthNet.uav[41] utilizationCountManeuversMission 1107
scalar OsgEarthNet.uav[41] utilizationCountManeuversMaintenance 134
scalar OsgEarthNet.uav[41] utilizationCountChargeState 67
scalar OsgEarthNet.uav[41] utilizationCountOverdrawnAfterMission 0
scalar OsgEarthNet.uav[41] utilizationCountIdleState 8
scalar OsgEarthNet.uav[41] utilizationFail 0
scalar OsgEarthNet.uav[41] simulationTime 259200
scalar OsgEarthNet.uav[42] utilizationSecMission 41948.539419228
scalar OsgEarthNet.uav[42] utilizationSecMaintenance 20114.053213356
scalar OsgEarthNet.uav[42] utilizationSecCharge 197005.40636742
scalar OsgEarthNet.uav[42] utilizationSecIdle 132
scalar OsgEarthNet.uav[42] utilizationEnergyMission 205148.62462016
scalar OsgEarthNet.uav[42] utilizationEnergyMaintenance 93498.719688416
scalar OsgEarthNet.uav[42] utilizationEnergyCharge 296926.73632812
scalar OsgEarthNet.uav[42] utilizationEnergyOverdrawMission 0
scalar OsgEarthNet.uav[42] utilizationEnergyOverdrawMaintenance 0
scalar OsgEarthNet.uav[42] utilizationCountMissions 66
scalar OsgEarthNet.uav[42] utilizationCountManeuversMission 1296
scalar OsgEarthNet.uav[42] utilizationCountManeuversMaintenance 131
scalar OsgEarthNet.uav[42] utilizationCountChargeState 66
scalar OsgEarthNet.uav[42] utilizationCountOverdrawnAfterMission 0
scalar OsgEarthNet.uav[42] utilizationCountIdleState 4
scalar OsgEarthNet.uav[42] utilizationFail 0
scalar OsgEarthNet.uav[42] simulationTime 259200
scalar OsgEarthNet.uav[43] utilizationSecMission 43816.779956114
scalar OsgEarthNet.uav[43] utilizationSecMaintenance 16695.298763802
scalar OsgEarthNet.uav[43] utilizationSecCharge 195132.64664499
scalar OsgEarthNet.uav[43] utilizationSecIdle 3555.2736350975
scalar OsgEarthNet.uav[43] utilizationEnergyMission 210160.83210754
scalar OsgEarthNet.uav[43] utilizationEnergyMaintenance 77123.951984406
scalar OsgEarthNet.uav[43] utilizationEnergyCharge 287885.57128906
scalar OsgEarthNet.uav[43] utilizationEnergyOverdrawMission 0
scalar OsgEarthNet.uav[43] utilizationEnergyOverdrawMaintenance 0
scalar OsgEarthNet.uav[43] utilizationCountMissions 63
scalar OsgEarthNet.uav[43] utilizationCountManeuversMission 1263
scalar OsgEarthNet.uav[43] utilizationCountManeuversMaintenance 126
scalar OsgEarthNet.uav[43] utilizationCountChargeState 63
scalar OsgEarthNet.uav[43] utilizationCountOverdrawnAfterMission 0
scalar OsgEarthNet.uav[43] utilizationCountIdleState 3
scalar OsgEarthNet.uav[43] utilizationFail 0
scalar OsgEarthNet.uav[43] simulationTime 259200
scalar OsgEarthNet.uav[44] utilizationSecMission 35527.539198503
scalar OsgEarthNet.uav[44] utilizationSecMaintenance 22054.976802488
scalar OsgEarthNet.uav[44] utilizationSecCharge 198200.16691718
scalar OsgEarthNet.uav[44] utilizationSecIdle 3417.3160818306
scalar OsgEarthNet.uav[44] utilizationEnergyMission 172617.05219269
scalar OsgEarthNet.uav[44] utilizationEnergyMaintenance 104808.32195282
scalar OsgEarthNet.uav[44] utilizationEnergyCharge 279084.47973633
scalar OsgEarthNet.uav[44] utilizationEnergyOverdrawMission 0
scalar OsgEarthNet.uav[44] utilizationEnergyOverdrawMaintenance 0
scalar OsgEarthNet.uav[44] utilizationCountMissions 65
scalar OsgEarthNet.uav[44] utilizationCountManeuversMission 1216
scalar OsgEarthNet.uav[44] utilizationCountManeuversMaintenance 130
scalar OsgEarthNet.uav[44] utilizationCountChargeState 65
scalar OsgEarthNet.uav[44] utilizationCountOverdrawnAfterMission 0
scalar OsgEarthNet.uav[44] utilizationCountIdleState 7
scalar OsgEarthNet.uav[44] utilizationFail 0
scalar OsgEarthNet.uav[44] simulationTime 259200
scalar OsgEarthNet.uav[45] utilizationSecMission 36187.927851746
scalar OsgEarthNet.uav[45] utilizationSecMaintenance 24870.375270043
scalar OsgEarthNet.uav[45] utilizationSecCharge 196032.10100516
scalar OsgEarthNet.uav[45] utilizationSecIdle 2109.5948730499
scalar OsgEarthNet.uav[45] utilizationEnergyMission 175554.2568512
scalar OsgEarthNet.uav[45] utilizationEnergyMaintenance 118780.25041199
scalar OsgEarthNet.uav[45] utilizationEnergyCharge 294247.66308594
scalar OsgEarthNet.uav[45] utilizationEnergyOverdrawMission 0
scalar OsgEarthNet.uav[45] utilizationEnergyOverdrawMaintenance 0
scalar OsgEarthNet.uav[45] utilizationCountMissions 67
scalar OsgEarthNet.uav[45] utilizationCountManeuversMission 1221
scalar OsgEarthNet.uav[45] utilizationCountManeuversMaintenance 134
scalar OsgEarthNet.uav[45] utilizationCountChargeState 67
scalar OsgEarthNet.uav[45] utilizationCountOverdrawnAfterMission 0
scalar OsgEarthNet.uav[45] utilizationCountIdleState 3
scalar OsgEarthNet.uav[45] utilizationFail 0
scalar OsgEarthNet.uav[45] simulationTime 259200
scalar OsgEarthNet.uav[46] utilizationSecMission 34234.557874995
scalar OsgEarthNet.uav[46] utilizationSecMaintenance 22588.959278974
scalar OsgEarthNet.uav[46] utilizationSecCharge 198228.39886624
scalar OsgEarthNet.uav[46] utilizationSecIdle 4148.0829797894
scalar OsgEarthNet.uav[46] utilizationEnergyMission 166184.04768753
scalar OsgEarthNet.uav[46] utilizationEnergyMaintenance 106886.25536728
scalar OsgEarthNet.uav[46] utilizationEnergyCharge 271386.17822266
scalar OsgEarthNet.uav[46] utilizationEnergyOverdrawMission 0
scalar OsgEarthNet.uav[46] utilizationEnergyOverdrawMaintenance 0
scalar OsgEarthNet.uav[46] utilizationCountMissions 68
scalar OsgEarthNet.uav[46] utilizationCountManeuversMission 1104
scalar OsgEarthNet.uav[46] utilizationCountManeuversMaintenance 136
scalar OsgEarthNet.uav[46] utilizationCountChargeState 68
scalar OsgEarthNet.uav[46] utilizationCountOverdrawnAfterMission 0
scalar OsgEarthNet.uav[46] utilizationCountIdleState 7
scalar OsgEarthNet.uav[46] utilizationFail 0
scalar OsgEarthNet.uav[46] simulationTime 259200
scalar OsgEarthNet.uav[47] utilizationSecMission 41539.008484946
scalar OsgEarthNet.uav[47] utilizationSecMaintenance 19777.666052331
scalar OsgEarthNet.uav[47] utilizationSecCharge 195697.88237403
scalar OsgEarthNet.uav[47] utilizationSecIdle 2185.4420886909
scalar OsgEarthNet.uav[47] utilizationEnergyMission 201016.50418472
scalar OsgEarthNet.uav[47] utilizationEnergyMaintenance 91304.074516296
scalar OsgEarthNet.uav[47] utilizationEnergyCharge 288144.2199707
scalar OsgEarthNet.uav[47] utilizationEnergyOverdrawMission 0
scalar OsgEarthNet.uav[47] utilizationEnergyOverdrawMaintenance 0
scalar OsgEarthNet.uav[47] utilizationCountMissions 66
scalar OsgEarthNet.uav[47] utilizationCountManeuversMission 1212
scalar OsgEarthNet.uav[47] utilizationCountManeuversMaintenance 132
scalar OsgEarthNet.uav[47] utilizationCountChargeState 66
scalar OsgEarthNet.uav[47] utilizationCountOverdrawnAfterMission 0
scalar OsgEarthNet.uav[47] utilizationCountIdleState 1
scalar OsgEarthNet.uav[47] utilizationFail 0
scalar OsgEarthNet.uav[47] simulationTime 259200
scalar OsgEarthNet.uav[48] utilizationSecMission 41484.475085611
scalar OsgEarthNet.uav[48] utilizationSecMaintenance 19700.273729716
scalar OsgEarthNet.uav[48] utilizationSecCharge 195938.92380524
scalar OsgEarthNet.uav[48] utilizationSecIdle 2076.3263794327
scalar OsgEarthNet.uav[48] utilizationEnergyMission 203392.85286331
scalar OsgEarthNet.uav[48] utilizationEnergyMaintenance 90860.232658386
scalar OsgEarthNet.uav[48] utilizationEnergyCharge 296271.265625
scalar OsgEarthNet.uav[48] utilizationEnergyOverdrawMission 0
scalar OsgEarthNet.uav[48] utilizationEnergyOverdrawMaintenance 0
scalar OsgEarthNet.uav[48] utilizationCountMissions 66
scalar OsgEarthNet.uav[48] utilizationCountManeuversMission 1478
scalar OsgEarthNet.uav[48] utilizationCountManeuversMaintenance 132
scalar OsgEarthNet.uav[48] utilizationCountChargeState 66
scalar OsgEarthNet.uav[48] utilizationCountOverdrawnAfterMission 0
scalar OsgEarthNet.uav[48] utilizationCountIdleState 3
scalar OsgEarthNet.uav[48] utilizationFail 0
scalar OsgEarthNet.uav[48] simulationTime 259200
scalar OsgEarthNet.uav[49] utilizationSecMission 37946.44592436
scalar OsgEarthNet.uav[49] utilizationSecMaintenance 21678.395322273
scalar OsgEarthNet.uav[49] utilizationSecCharge 194963.9611842
scalar OsgEarthNet.uav[49] utilizationSecIdle 4611.196569166
scalar OsgEarthNet.uav[49] utilizationEnergyMission 181724.71570587
scalar OsgEarthNet.uav[49] utilizationEnergyMaintenance 102841.54313278
scalar OsgEarthNet.uav[49] utilizationEnergyCharge 282882.58520508
scalar OsgEarthNet.uav[49] utilizationEnergyOverdrawMission 0
scalar OsgEarthNet.uav[49] utilizationEnergyOverdrawMaintenance 0
scalar OsgEarthNet.uav[49] utilizationCountMissions 65
scalar OsgEarthNet.uav[49] utilizationCountManeuversMission 1111
scalar OsgEarthNet.uav[49] utilizationCountManeuversMaintenance 130
scalar OsgEarthNet.uav[49] utilizationCountChargeState 65
scalar OsgEarthNet.uav[49] utilizationCountOverdrawnAfterMission 0
scalar OsgEarthNet.uav[49] utilizationCountIdleState 7
scalar OsgEarthNet.uav[49] utilizationFail 0
scalar OsgEarthNet.uav[49] simulationTime 259200
scalar OsgEarthNet.uav[50] utilizationSecMission 36368.297497156
scalar OsgEarthNet.uav[50] utilizationSecMaintenance 23961.757244101
scalar OsgEarthNet.uav[50] utilizationSecCharge 195830
scalar OsgEarthNet.uav[50] utilizationSecIdle 3039.9442587429
scalar OsgEarthNet.uav[50] utilizationEnergyMission 178178.01546864
scalar OsgEarthNet.uav[50] utilizationEnergyMaintenance 114358.38809586
scalar OsgEarthNet.uav[50] utilizationEnergyCharge 288614.90258789
scalar OsgEarthNet.uav[50] utilizationEnergyOverdrawMission 0
scalar OsgEarthNet.uav[50] utilizationEnergyOverdrawMaintenance 0
scalar OsgEarthNet.uav[50] utilizationCountMissions 66
scalar OsgEarthNet.uav[50] utilizationCountManeuversMission 1204
scalar OsgEarthNet.uav[50] utilizationCountManeuversMaintenance 133
scalar OsgEarthNet.uav[50] utilizationCountChargeState 66
scalar OsgEarthNet.uav[50] utilizationCountOverdrawnAfterMission 0
scalar OsgEarthNet.uav[50] utilizationCountIdleState 7
scalar OsgEarthNet.uav[50] utilizationFail 0
scalar OsgEarthNet.uav[50] simulationTime 259200
scalar OsgEarthNet.uav[51] utilizationSecMission 34824.943544989
scalar OsgEarthNet.uav[51] utilizationSecMaintenance 22432.66654629
scalar OsgEarthNet.uav[51] utilizationSecCharge 200950
scalar OsgEarthNet.uav[51] utilizationSecIdle 992.38890872086
scalar OsgEarthNet.uav[51] utilizationEnergyMission 167984.50518036
scalar OsgEarthNet.uav[51] utilizationEnergyMaintenance 106991.63658142
scalar OsgEarthNet.uav[51] utilizationEnergyCharge 275983.2980957
scalar OsgEarthNet.uav[51] utilizationEnergyOverdrawMission 0
scalar OsgEarthNet.uav[51] utilizationEnergyOverdrawMaintenance 0
scalar OsgEarthNet.uav[51] utilizationCountMissions 68
scalar OsgEarthNet.uav[51] utilizationCountManeuversMission 1096
scalar OsgEarthNet.uav[51] utilizationCountManeuversMaintenance 136
scalar OsgEarthNet.uav[51] utilizationCountChargeState 68
scalar OsgEarthNet.uav[51] utilizationCountOverdrawnAfterMission 0
scalar OsgEarthNet.uav[51] utilizationCountIdleState 9
scalar OsgEarthNet.uav[51] utilizationFail 0
scalar OsgEarthNet.uav[51] simulationTime 259200
scalar OsgEarthNet.uav[52] utilizationSecMission 43063.230246028
scalar OsgEarthNet.uav[52] utilizationSecMaintenance 18210.802918993
scalar OsgEarthNet.uav[52] utilizationSecCharge 196064.56735059
scalar OsgEarthNet.uav[52] utilizationSecIdle 1861.3984843856
scalar OsgEarthNet.uav[52] utilizationEnergyMission 209768.99155807
scalar OsgEarthNet.uav[52] utilizationEnergyMaintenance 83958.42937851
scalar OsgEarthNet.uav[52] utilizationEnergyCharge 291823.32958984
scalar OsgEarthNet.uav[52] utilizationEnergyOverdrawMission 0
scalar OsgEarthNet.uav[52] utilizationEnergyOverdrawMaintenance 0
scalar OsgEarthNet.uav[52] utilizationCountMissions 64
scalar OsgEarthNet.uav[52] utilizationCountManeuversMission 1325
scalar OsgEarthNet.uav[52] utilizationCountManeuversMaintenance 128
scalar OsgEarthNet.uav[52] utilizationCountChargeState 64
scalar OsgEarthNet.uav[52] utilizationCountOverdrawnAfterMission 0
scalar OsgEarthNet.uav[52] utilizationCountIdleState 4
scalar OsgEarthNet.uav[52] utilizationFail 0
scalar OsgEarthNet.uav[52] simulationTime 259200
scalar OsgEarthNet.uav[53] utilizationSecMission 38311.769807394
scalar OsgEarthNet.uav[53] utilizationSecMaintenance 22860.982044463
scalar OsgEarthNet.uav[53] utilizationSecCharge 196660.00231259
scalar OsgEarthNet.uav[53] utilizationSecIdle 1367.2448355505
scalar OsgEarthNet.uav[53] utilizationEnergyMission 185322.71051025
scalar OsgEarthNet.uav[53] utilizationEnergyMaintenance 108648.91881561
scalar OsgEarthNet.uav[53] utilizationEnergyCharge 290421.19787598
scalar OsgEarthNet.uav[53] utilizationEnergyOverdrawMission 0
scalar OsgEarthNet.uav[53] utilizationEnergyOverdrawMaintenance 0
scalar OsgEarthNet.uav[53] utilizationCountMissions 66
scalar OsgEarthNet.uav[53] utilizationCountManeuversMission 1165
scalar OsgEarthNet.uav[53] utilizationCountManeuversMaintenance 132
scalar OsgEarthNet.uav[53] utilizationCountChargeState 66
scalar OsgEarthNet.uav[53] utilizationCountOverdrawnAfterMission 0
scalar OsgEarthNet.uav[53] utilizationCountIdleState 5
scalar OsgEarthNet.uav[53] utilizationFail 0
scalar OsgEarthNet.uav[53] simulationTime 259200
scalar OsgEarthNet.uav[54] utilizationSecMission 43090.013502412
scalar OsgEarthNet.uav[54] utilizationSecMaintenance 18576.513188706
scalar OsgEarthNet.uav[54] utilizationSecCharge 195588.03122019
scalar OsgEarthNet.uav[54] utilizationSecIdle 1945.4410886909
scalar OsgEarthNet.uav[54] utilizationEnergyMission 209642.92991638
scalar OsgEarthNet.uav[54] utilizationEnergyMaintenance 86272.420452118
scalar OsgEarthNet.uav[54] utilizationEnergyCharge 291946.85626221
scalar OsgEarthNet.uav[54] utilizationEnergyOverdrawMission 0
scalar OsgEarthNet.uav[54] utilizationEnergyOverdrawMaintenance 0
scalar OsgEarthNet.uav[54] utilizationCountMissions 65
scalar OsgEarthNet.uav[54] utilizationCountManeuversMission 1319
scalar OsgEarthNet.uav[54] utilizationCountManeuversMaintenance 130
scalar OsgEarthNet.uav[54] utilizationCountChargeState 65
scalar OsgEarthNet.uav[54] utilizationCountOverdrawnAfterMission 0
scalar OsgEarthNet.uav[54] utilizationCountIdleState 3
scalar OsgEarthNet.uav[54] utilizationFail 0
scalar OsgEarthNet.uav[54] simulationTime 259200
scalar OsgEarthNet.uav[55] utilizationSecMission 42682.436765067
scalar OsgEarthNet.uav[55] utilizationSecMaintenance 18755.560234933
scalar OsgEarthNet.uav[55] utilizationSecCharge 196580
scalar OsgEarthNet.uav[55] utilizationSecIdle 1182.002
scalar OsgEarthNet.uav[55] utilizationEnergyMission 204430.49009323
scalar OsgEarthNet.uav[55] utilizationEnergyMaintenance 86651.62971365
scalar OsgEarthNet.uav[55] utilizationEnergyCharge 293012.48876953
scalar OsgEarthNet.uav[55] utilizationEnergyOverdrawMission 0
scalar OsgEarthNet.uav[55] utilizationEnergyOverdrawMaintenance 0
scalar OsgEarthNet.uav[55] utilizationCountMissions 64
scalar OsgEarthNet.uav[55] utilizationCountManeuversMission 1244
scalar OsgEarthNet.uav[55] utilizationCountManeuversMaintenance 129
scalar OsgEarthNet.uav[55] utilizationCountChargeState 64
scalar OsgEarthNet.uav[55] utilizationCountOverdrawnAfterMission 0
scalar OsgEarthNet.uav[55] utilizationCountIdleState 3
scalar OsgEarthNet.uav[55] utilizationFail 0
scalar OsgEarthNet.uav[55] simulationTime 259200
scalar OsgEarthNet.uav[56] utilizationSecMission 43500.084321555
scalar OsgEarthNet.uav[56] utilizationSecMaintenance 17775.956631584
scalar OsgEarthNet.uav[56] utilizationSecCharge 195150
scalar OsgEarthNet.uav[56] utilizationSecIdle 2773.958046861
scalar OsgEarthNet.uav[56] utilizationEnergyMission 206738.15335576
scalar OsgEarthNet.uav[56] utilizationEnergyMaintenance 81999.585308075
scalar OsgEarthNet.uav[56] utilizationEnergyCharge 287344.67553711
scalar OsgEarthNet.uav[56] utilizationEnergyOverdrawMission 0
scalar OsgEarthNet.uav[56] utilizationEnergyOverdrawMaintenance 0
scalar OsgEarthNet.uav[56] utilizationCountMissions 63
scalar OsgEarthNet.uav[56] utilizationCountManeuversMission 1268
scalar OsgEarthNet.uav[56] utilizationCountManeuversMaintenance 127
scalar OsgEarthNet.uav[56] utilizationCountChargeState 63
scalar OsgEarthNet.uav[56] utilizationCountOverdrawnAfterMission 0
scalar OsgEarthNet.uav[56] utilizationCountIdleState 2
scalar OsgEarthNet.uav[56] utilizationFail 0
scalar OsgEarthNet.uav[56] simulationTime 259200
scalar OsgEarthNet.uav[57] utilizationSecMission 35221.31145926
scalar OsgEarthNet.uav[57] utilizationSecMaintenance 22566.65862689
scalar OsgEarthNet.uav[57] utilizationSecCharge 199880.02891385
scalar OsgEarthNet.uav[57] utilizationSecIdle 1532
scalar OsgEarthNet.uav[57] utilizationEnergyMission 170453.59290314
scalar OsgEarthNet.uav[57] utilizationEnergyMaintenance 106941.41847229
scalar OsgEarthNet.uav[57] utilizationEnergyCharge 276950.515625
scalar OsgEarthNet.uav[57] utilizationEnergyOverdrawMission 0
scalar OsgEarthNet.uav[57] utilizationEnergyOverdrawMaintenance 0
scalar OsgEarthNet.uav[57] utilizationCountMissions 68
scalar OsgEarthNet.uav[57] utilizationCountManeuversMission 1097
scalar OsgEarthNet.uav[57] utilizationCountManeuversMaintenance 135
scalar OsgEarthNet.uav[57] utilizationCountChargeState 68
scalar OsgEarthNet.uav[57] utilizationCountOverdrawnAfterMission 0
scalar OsgEarthNet.uav[57] utilizationCountIdleState 11
scalar OsgEarthNet.uav[57] utilizationFail 0
scalar OsgEarthNet.uav[57] simulationTime 259200
scalar OsgEarthNet.uav[58] utilizationSecMission 44648.865878465
scalar OsgEarthNet.uav[58] utilizationSecMaintenance 17435.338889187
scalar OsgEarthNet.uav[58] utilizationSecCharge 195466.36888506
scalar OsgEarthNet.uav[58] utilizationSecIdle 1649.4253472904
scalar OsgEarthNet.uav[58] utilizationEnergyMission 213643.45984268
scalar OsgEarthNet.uav[58] utilizationEnergyMaintenance 79406.457565308
scalar OsgEarthNet.uav[58] utilizationEnergyCharge 291348.94433594
scalar OsgEarthNet.uav[58] utilizationEnergyOverdrawMission 0
scalar OsgEarthNet.uav[58] utilizationEnergyOverdrawMaintenance 0
scalar OsgEarthNet.uav[58] utilizationCountMissions 64
scalar OsgEarthNet.uav[58] utilizationCountManeuversMission 1267
scalar OsgEarthNet.uav[58] utilizationCountManeuversMaintenance 128
scalar OsgEarthNet.uav[58] utilizationCountChargeState 64
scalar OsgEarthNet.uav[58] utilizationCountOverdrawnAfterMission 0
scalar OsgEarthNet.uav[58] utilizationCountIdleState 4
scalar OsgEarthNet.uav[58] utilizationFail 0
scalar OsgEarthNet.uav[58] simulationTime 259200
scalar OsgEarthNet.cs[0] usedPower 4077180.8634257
scalar OsgEarthNet.cs[0] chargedPower 4077180.8634257
scalar OsgEarthNet.cs[0] chargedMobileNodes 47
scalar OsgEarthNet.cs[0] reservations 927
scalar OsgEarthNet.cs[1] usedPower 4538306.9109563
scalar OsgEarthNet.cs[1] chargedPower 4538306.9109563
scalar OsgEarthNet.cs[1] chargedMobileNodes 136
scalar OsgEarthNet.cs[1] reservations 1145
scalar OsgEarthNet.cs[2] usedPower 8308312.5058349
scalar OsgEarthNet.cs[2] chargedPower 8308312.5058349
scalar OsgEarthNet.cs[2] chargedMobileNodes 59
scalar OsgEarthNet.cs[2] reservations 1834

