version 2
run Szenario_Hotel_Gabelbach-418-20180719-17:28:26-12068
attr configname Szenario_Hotel_Gabelbach
attr datetime 20180719-17:28:26
attr experiment Szenario_Hotel_Gabelbach
attr inifile omnetpp.ini
attr iterationvars "$replM=2, $biWeight=0.35, $replSearchM=1, $numUAVs=88"
attr iterationvarsf replM=2,biWeight=0.35,replSearchM=1,numUAVs=88-
attr measurement "$replM=2, $biWeight=0.35, $replSearchM=1, $numUAVs=88"
attr network OsgEarthNet
attr processid 12068
attr repetition 10
attr replication #10
attr resultdir results
attr runnumber 418
attr seedset 418
itervar biWeight 0.35
itervar numUAVs 88
itervar replM 2
itervar replSearchM 1
param *.osgEarthScene.scene "\"Szenario_Hotel_Gabelbach.earth\""
param *.playgroundLatitude 50.6830269
param *.playgroundLongitude 10.8538055
param *.playgroundWidth 3500m
param *.playgroundHeight 3500m
param *.cs[0].posX 3537m
param *.cs[0].posY 965m
param *.cs[0].posZ 538m
param *.cs[1].posX 312m
param *.cs[1].posY 1262m
param *.cs[1].posZ 539m
param *.cs[2].posX 2185m
param *.cs[2].posY 3026m
param *.cs[2].posZ 777m
param *.cs[3].posX 10m
param *.cs[3].posY 2200m
param *.cs[3].posZ 560m
param *.cs[4].posX 750m
param *.cs[4].posY 200m
param *.cs[4].posZ 540m
param *.cs[5].posX 2450m
param *.cs[5].posY 180m
param *.cs[5].posZ 524m
param *.cs[6].posX 3140m
param *.cs[6].posY 1790m
param *.cs[6].posZ 606m
param *.numCSs 3
param *.uav[*].replacementMethod 2
param *.uav[*].weightedSumWeight 0.35
param *.missionControl.replacementSearchMethod 1
param *.numUAVs 88
param *.*.timeStep 10s
param *.uav[*].commandPreviewCommandCount 20
param *.missionControl.missionFiles "\"missions\\\\Szenario_WB_Hotel_Gabelbach_Mission_Hotel.waypoints,missions\\\\Szenario_WB_Hotel_Gabelbach_Mission_Kickelhahn.waypoints,missions\\\\Szenario_WB_Hotel_Gabelbach_Mission_Ilmenau_Sportplatz.waypoints,missions\\\\Szenario_WB_Hotel_Gabelbach_Mission_Manebach_Mitte.waypoints,missions\\\\Szenario_WB_Hotel_Gabelbach_Mission_Manebach_Sued.waypoints,missions\\\\Szenario_WB_Hotel_Gabelbach_Hover_HoheSchlaufe.waypoints,missions\\\\Szenario_WB_Hotel_Gabelbach_Hover_Kickelhahn.waypoints,missions\\\\Szenario_WB_Hotel_Gabelbach_Hover_Gabelbachskopf.waypoints,missions\\\\Szenario_WB_Hotel_Gabelbach_Hover_Dachskopf.waypoints\""
param *.uav[0].startX 3537m
param *.uav[0].startY 965m
param *.uav[0].startZ 539m
param *.uav[1].startX 312m
param *.uav[1].startY 1262m
param *.uav[1].startZ 540m
param *.uav[2].startX 2185m
param *.uav[2].startY 3026m
param *.uav[2].startZ 778m
param *.uav[3].startX 3537m
param *.uav[3].startY 965m
param *.uav[3].startZ 539m
param *.uav[4].startX 312m
param *.uav[4].startY 1262m
param *.uav[4].startZ 540m
param *.uav[5].startX 2185m
param *.uav[5].startY 3026m
param *.uav[5].startZ 778m
param *.uav[6].startX 3537m
param *.uav[6].startY 965m
param *.uav[6].startZ 539m
param *.uav[7].startX 312m
param *.uav[7].startY 1262m
param *.uav[7].startZ 540m
param *.uav[8].startX 2185m
param *.uav[8].startY 3026m
param *.uav[8].startZ 778m
param *.uav[9].startX 3537m
param *.uav[9].startY 965m
param *.uav[9].startZ 539m
param *.uav[10].startX 3537m
param *.uav[10].startY 965m
param *.uav[10].startZ 539m
param *.uav[11].startX 312m
param *.uav[11].startY 1262m
param *.uav[11].startZ 540m
param *.uav[12].startX 2185m
param *.uav[12].startY 3026m
param *.uav[12].startZ 778m
param *.uav[13].startX 3537m
param *.uav[13].startY 965m
param *.uav[13].startZ 539m
param *.uav[14].startX 312m
param *.uav[14].startY 1262m
param *.uav[14].startZ 540m
param *.uav[15].startX 2185m
param *.uav[15].startY 3026m
param *.uav[15].startZ 778m
param *.uav[16].startX 3537m
param *.uav[16].startY 965m
param *.uav[16].startZ 539m
param *.uav[17].startX 312m
param *.uav[17].startY 1262m
param *.uav[17].startZ 540m
param *.uav[18].startX 2185m
param *.uav[18].startY 3026m
param *.uav[18].startZ 778m
param *.uav[19].startX 3537m
param *.uav[19].startY 965m
param *.uav[19].startZ 539m
param *.uav[20].startX 3537m
param *.uav[20].startY 965m
param *.uav[20].startZ 539m
param *.uav[21].startX 312m
param *.uav[21].startY 1262m
param *.uav[21].startZ 540m
param *.uav[22].startX 2185m
param *.uav[22].startY 3026m
param *.uav[22].startZ 778m
param *.uav[23].startX 3537m
param *.uav[23].startY 965m
param *.uav[23].startZ 539m
param *.uav[24].startX 312m
param *.uav[24].startY 1262m
param *.uav[24].startZ 540m
param *.uav[25].startX 2185m
param *.uav[25].startY 3026m
param *.uav[25].startZ 778m
param *.uav[26].startX 3537m
param *.uav[26].startY 965m
param *.uav[26].startZ 539m
param *.uav[27].startX 312m
param *.uav[27].startY 1262m
param *.uav[27].startZ 540m
param *.uav[28].startX 2185m
param *.uav[28].startY 3026m
param *.uav[28].startZ 778m
param *.uav[29].startX 3537m
param *.uav[29].startY 965m
param *.uav[29].startZ 539m
param *.uav[30].startX 3537m
param *.uav[30].startY 965m
param *.uav[30].startZ 539m
param *.uav[31].startX 312m
param *.uav[31].startY 1262m
param *.uav[31].startZ 540m
param *.uav[32].startX 2185m
param *.uav[32].startY 3026m
param *.uav[32].startZ 778m
param *.uav[33].startX 3537m
param *.uav[33].startY 965m
param *.uav[33].startZ 539m
param *.uav[34].startX 312m
param *.uav[34].startY 1262m
param *.uav[34].startZ 540m
param *.uav[35].startX 2185m
param *.uav[35].startY 3026m
param *.uav[35].startZ 778m
param *.uav[36].startX 3537m
param *.uav[36].startY 965m
param *.uav[36].startZ 539m
param *.uav[37].startX 312m
param *.uav[37].startY 1262m
param *.uav[37].startZ 540m
param *.uav[38].startX 2185m
param *.uav[38].startY 3026m
param *.uav[38].startZ 778m
param *.uav[39].startX 3537m
param *.uav[39].startY 965m
param *.uav[39].startZ 539m
param *.uav[40].startX 3537m
param *.uav[40].startY 965m
param *.uav[40].startZ 539m
param *.uav[41].startX 312m
param *.uav[41].startY 1262m
param *.uav[41].startZ 540m
param *.uav[42].startX 2185m
param *.uav[42].startY 3026m
param *.uav[42].startZ 778m
param *.uav[43].startX 3537m
param *.uav[43].startY 965m
param *.uav[43].startZ 539m
param *.uav[44].startX 312m
param *.uav[44].startY 1262m
param *.uav[44].startZ 540m
param *.uav[45].startX 2185m
param *.uav[45].startY 3026m
param *.uav[45].startZ 778m
param *.uav[46].startX 3537m
param *.uav[46].startY 965m
param *.uav[46].startZ 539m
param *.uav[47].startX 312m
param *.uav[47].startY 1262m
param *.uav[47].startZ 540m
param *.uav[48].startX 2185m
param *.uav[48].startY 3026m
param *.uav[48].startZ 778m
param *.uav[49].startX 3537m
param *.uav[49].startY 965m
param *.uav[49].startZ 539m
param *.uav[50].startX 3537m
param *.uav[50].startY 965m
param *.uav[50].startZ 539m
param *.uav[51].startX 312m
param *.uav[51].startY 1262m
param *.uav[51].startZ 540m
param *.uav[52].startX 2185m
param *.uav[52].startY 3026m
param *.uav[52].startZ 778m
param *.uav[53].startX 3537m
param *.uav[53].startY 965m
param *.uav[53].startZ 539m
param *.uav[54].startX 312m
param *.uav[54].startY 1262m
param *.uav[54].startZ 540m
param *.uav[55].startX 2185m
param *.uav[55].startY 3026m
param *.uav[55].startZ 778m
param *.uav[56].startX 3537m
param *.uav[56].startY 965m
param *.uav[56].startZ 539m
param *.uav[57].startX 312m
param *.uav[57].startY 1262m
param *.uav[57].startZ 540m
param *.uav[58].startX 2185m
param *.uav[58].startY 3026m
param *.uav[58].startZ 778m
param *.uav[59].startX 3537m
param *.uav[59].startY 965m
param *.uav[59].startZ 539m
param *.uav[60].startX 3537m
param *.uav[60].startY 965m
param *.uav[60].startZ 539m
param *.uav[61].startX 312m
param *.uav[61].startY 1262m
param *.uav[61].startZ 540m
param *.uav[62].startX 2185m
param *.uav[62].startY 3026m
param *.uav[62].startZ 778m
param *.uav[63].startX 3537m
param *.uav[63].startY 965m
param *.uav[63].startZ 539m
param *.uav[64].startX 312m
param *.uav[64].startY 1262m
param *.uav[64].startZ 540m
param *.uav[65].startX 2185m
param *.uav[65].startY 3026m
param *.uav[65].startZ 778m
param *.uav[66].startX 3537m
param *.uav[66].startY 965m
param *.uav[66].startZ 539m
param *.uav[67].startX 312m
param *.uav[67].startY 1262m
param *.uav[67].startZ 540m
param *.uav[68].startX 2185m
param *.uav[68].startY 3026m
param *.uav[68].startZ 778m
param *.uav[69].startX 3537m
param *.uav[69].startY 965m
param *.uav[69].startZ 539m
param *.uav[70].startX 3537m
param *.uav[70].startY 965m
param *.uav[70].startZ 539m
param *.uav[71].startX 312m
param *.uav[71].startY 1262m
param *.uav[71].startZ 540m
param *.uav[72].startX 2185m
param *.uav[72].startY 3026m
param *.uav[72].startZ 778m
param *.uav[73].startX 3537m
param *.uav[73].startY 965m
param *.uav[73].startZ 539m
param *.uav[74].startX 312m
param *.uav[74].startY 1262m
param *.uav[74].startZ 540m
param *.uav[75].startX 2185m
param *.uav[75].startY 3026m
param *.uav[75].startZ 778m
param *.uav[76].startX 3537m
param *.uav[76].startY 965m
param *.uav[76].startZ 539m
param *.uav[77].startX 312m
param *.uav[77].startY 1262m
param *.uav[77].startZ 540m
param *.uav[78].startX 2185m
param *.uav[78].startY 3026m
param *.uav[78].startZ 778m
param *.uav[79].startX 3537m
param *.uav[79].startY 965m
param *.uav[79].startZ 539m
param *.uav[80].startX 3537m
param *.uav[80].startY 965m
param *.uav[80].startZ 539m
param *.uav[81].startX 312m
param *.uav[81].startY 1262m
param *.uav[81].startZ 540m
param *.uav[82].startX 2185m
param *.uav[82].startY 3026m
param *.uav[82].startZ 778m
param *.uav[83].startX 3537m
param *.uav[83].startY 965m
param *.uav[83].startZ 539m
param *.uav[84].startX 312m
param *.uav[84].startY 1262m
param *.uav[84].startZ 540m
param *.uav[85].startX 2185m
param *.uav[85].startY 3026m
param *.uav[85].startZ 778m
param *.uav[86].startX 3537m
param *.uav[86].startY 965m
param *.uav[86].startZ 539m
param *.uav[87].startX 312m
param *.uav[87].startY 1262m
param *.uav[87].startZ 540m
param *.uav[88].startX 2185m
param *.uav[88].startY 3026m
param *.uav[88].startZ 778m
param *.uav[89].startX 3537m
param *.uav[89].startY 965m
param *.uav[89].startZ 539m
param *.uav[90].startX 3537m
param *.uav[90].startY 965m
param *.uav[90].startZ 539m
param *.uav[91].startX 312m
param *.uav[91].startY 1262m
param *.uav[91].startZ 540m
param *.uav[92].startX 2185m
param *.uav[92].startY 3026m
param *.uav[92].startZ 778m
param *.uav[93].startX 3537m
param *.uav[93].startY 965m
param *.uav[93].startZ 539m
param *.uav[94].startX 312m
param *.uav[94].startY 1262m
param *.uav[94].startZ 540m
param *.uav[95].startX 2185m
param *.uav[95].startY 3026m
param *.uav[95].startZ 778m
param *.uav[96].startX 3537m
param *.uav[96].startY 965m
param *.uav[96].startZ 539m
param *.uav[97].startX 312m
param *.uav[97].startY 1262m
param *.uav[97].startZ 540m
param *.uav[98].startX 2185m
param *.uav[98].startY 3026m
param *.uav[98].startZ 778m
param *.uav[99].startX 3537m
param *.uav[99].startY 965m
param *.uav[99].startZ 539m
param *.osgEarthScene.scene "\"boston.earth\""
param *.playgroundLatitude 42.3558
param *.playgroundLongitude -71.0677
param *.playgroundWidth 400m
param *.playgroundHeight 200m
param *.channelController.connectionColor "\"#0000FF40\""
param *.channelController.showConnections false
param *.uav[*].modelURL "\"quadrocopter.small.obj.15.scale.0,0,90.rot\""
param *.uav[*].labelColor "\"#FF7C00CC\""
param *.uav[*].label2Color "\"#FF7C00EE\""
param *.uav[*].batteryCapacity 5200mAh
param *.uav[*].batteryRemaining uav[index].batteryCapacity
param *.uav[*].predictionQuantile 0.95
param *.uav[*].replacementMethod 2
param *.uav[*].weightedSumWeight 0.5
param *.cs[*].modelURL "\"chargingstation_v1.osgt.2.scale.0,0,0.rot.0,0,-15e-1.trans\""
param *.cs[*].spotsWaiting 999
param *.cs[*].spotsCharging 999
param *.cs[*].chargeEffectivenessPercentage 100
param *.cs[*].nonLinearPhaseStartPercentage 85
param *.cs[*].chargeCurrent 6.0A
param *.cs[*].prioritizeFastCharge true
param *.missionControl.replacementSearchMethod 0
param *.*.timeStep 9s

scalar OsgEarthNet.uav[0] utilizationSecMission 12174.008954232
scalar OsgEarthNet.uav[0] utilizationSecMaintenance 8371.9987860419
scalar OsgEarthNet.uav[0] utilizationSecCharge 77320
scalar OsgEarthNet.uav[0] utilizationSecIdle 161333.99125973
scalar OsgEarthNet.uav[0] utilizationEnergyMission 61205.812240601
scalar OsgEarthNet.uav[0] utilizationEnergyMaintenance 40022.057685852
scalar OsgEarthNet.uav[0] utilizationEnergyCharge 99389.051757812
scalar OsgEarthNet.uav[0] utilizationEnergyOverdrawMission 0
scalar OsgEarthNet.uav[0] utilizationEnergyOverdrawMaintenance 0
scalar OsgEarthNet.uav[0] utilizationCountMissions 22
scalar OsgEarthNet.uav[0] utilizationCountManeuversMission 448
scalar OsgEarthNet.uav[0] utilizationCountManeuversMaintenance 44
scalar OsgEarthNet.uav[0] utilizationCountChargeState 22
scalar OsgEarthNet.uav[0] utilizationCountOverdrawnAfterMission 0
scalar OsgEarthNet.uav[0] utilizationCountIdleState 23
scalar OsgEarthNet.uav[0] utilizationFail 0
scalar OsgEarthNet.uav[0] simulationTime 259200
scalar OsgEarthNet.uav[1] utilizationSecMission 28668.655448828
scalar OsgEarthNet.uav[1] utilizationSecMaintenance 15539.343551172
scalar OsgEarthNet.uav[1] utilizationSecCharge 167850
scalar OsgEarthNet.uav[1] utilizationSecIdle 47142
scalar OsgEarthNet.uav[1] utilizationEnergyMission 139010.2107231
scalar OsgEarthNet.uav[1] utilizationEnergyMaintenance 73661.049259186
scalar OsgEarthNet.uav[1] utilizationEnergyCharge 210713.60375977
scalar OsgEarthNet.uav[1] utilizationEnergyOverdrawMission 0
scalar OsgEarthNet.uav[1] utilizationEnergyOverdrawMaintenance 0
scalar OsgEarthNet.uav[1] utilizationCountMissions 51
scalar OsgEarthNet.uav[1] utilizationCountManeuversMission 800
scalar OsgEarthNet.uav[1] utilizationCountManeuversMaintenance 102
scalar OsgEarthNet.uav[1] utilizationCountChargeState 51
scalar OsgEarthNet.uav[1] utilizationCountOverdrawnAfterMission 0
scalar OsgEarthNet.uav[1] utilizationCountIdleState 52
scalar OsgEarthNet.uav[1] utilizationFail 0
scalar OsgEarthNet.uav[1] simulationTime 259200
scalar OsgEarthNet.uav[2] utilizationSecMission 38467.513769503
scalar OsgEarthNet.uav[2] utilizationSecMaintenance 15761.97104415
scalar OsgEarthNet.uav[2] utilizationSecCharge 193731.08883906
scalar OsgEarthNet.uav[2] utilizationSecIdle 11239.42534729
scalar OsgEarthNet.uav[2] utilizationEnergyMission 185075.47877502
scalar OsgEarthNet.uav[2] utilizationEnergyMaintenance 72360.022979736
scalar OsgEarthNet.uav[2] utilizationEnergyCharge 256174.63476562
scalar OsgEarthNet.uav[2] utilizationEnergyOverdrawMission 0
scalar OsgEarthNet.uav[2] utilizationEnergyOverdrawMaintenance 0
scalar OsgEarthNet.uav[2] utilizationCountMissions 56
scalar OsgEarthNet.uav[2] utilizationCountManeuversMission 1205
scalar OsgEarthNet.uav[2] utilizationCountManeuversMaintenance 112
scalar OsgEarthNet.uav[2] utilizationCountChargeState 56
scalar OsgEarthNet.uav[2] utilizationCountOverdrawnAfterMission 0
scalar OsgEarthNet.uav[2] utilizationCountIdleState 37
scalar OsgEarthNet.uav[2] utilizationFail 0
scalar OsgEarthNet.uav[2] simulationTime 259200
scalar OsgEarthNet.uav[3] utilizationSecMission 5360.6251525803
scalar OsgEarthNet.uav[3] utilizationSecMaintenance 4667.2020520508
scalar OsgEarthNet.uav[3] utilizationSecCharge 38630
scalar OsgEarthNet.uav[3] utilizationSecIdle 210542.17179537
scalar OsgEarthNet.uav[3] utilizationEnergyMission 27074.145851135
scalar OsgEarthNet.uav[3] utilizationEnergyMaintenance 22241.035434723
scalar OsgEarthNet.uav[3] utilizationEnergyCharge 49767.312988281
scalar OsgEarthNet.uav[3] utilizationEnergyOverdrawMission 0
scalar OsgEarthNet.uav[3] utilizationEnergyOverdrawMaintenance 0
scalar OsgEarthNet.uav[3] utilizationCountMissions 11
scalar OsgEarthNet.uav[3] utilizationCountManeuversMission 242
scalar OsgEarthNet.uav[3] utilizationCountManeuversMaintenance 22
scalar OsgEarthNet.uav[3] utilizationCountChargeState 11
scalar OsgEarthNet.uav[3] utilizationCountOverdrawnAfterMission 0
scalar OsgEarthNet.uav[3] utilizationCountIdleState 12
scalar OsgEarthNet.uav[3] utilizationFail 0
scalar OsgEarthNet.uav[3] simulationTime 259200
scalar OsgEarthNet.uav[4] utilizationSecMission 24949.019447757
scalar OsgEarthNet.uav[4] utilizationSecMaintenance 16058.192004936
scalar OsgEarthNet.uav[4] utilizationSecCharge 157380.78454731
scalar OsgEarthNet.uav[4] utilizationSecIdle 60812.003
scalar OsgEarthNet.uav[4] utilizationEnergyMission 122256.09178162
scalar OsgEarthNet.uav[4] utilizationEnergyMaintenance 75633.757732391
scalar OsgEarthNet.uav[4] utilizationEnergyCharge 196654.26025391
scalar OsgEarthNet.uav[4] utilizationEnergyOverdrawMission 0
scalar OsgEarthNet.uav[4] utilizationEnergyOverdrawMaintenance 0
scalar OsgEarthNet.uav[4] utilizationCountMissions 49
scalar OsgEarthNet.uav[4] utilizationCountManeuversMission 834
scalar OsgEarthNet.uav[4] utilizationCountManeuversMaintenance 98
scalar OsgEarthNet.uav[4] utilizationCountChargeState 49
scalar OsgEarthNet.uav[4] utilizationCountOverdrawnAfterMission 0
scalar OsgEarthNet.uav[4] utilizationCountIdleState 49
scalar OsgEarthNet.uav[4] utilizationFail 0
scalar OsgEarthNet.uav[4] simulationTime 259200
scalar OsgEarthNet.uav[5] utilizationSecMission 37911.18285415
scalar OsgEarthNet.uav[5] utilizationSecMaintenance 16000.147888863
scalar OsgEarthNet.uav[5] utilizationSecCharge 193496.66225699
scalar OsgEarthNet.uav[5] utilizationSecIdle 11792.006
scalar OsgEarthNet.uav[5] utilizationEnergyMission 183125.59806442
scalar OsgEarthNet.uav[5] utilizationEnergyMaintenance 73801.541259766
scalar OsgEarthNet.uav[5] utilizationEnergyCharge 255967.75927734
scalar OsgEarthNet.uav[5] utilizationEnergyOverdrawMission 0
scalar OsgEarthNet.uav[5] utilizationEnergyOverdrawMaintenance 0
scalar OsgEarthNet.uav[5] utilizationCountMissions 56
scalar OsgEarthNet.uav[5] utilizationCountManeuversMission 1099
scalar OsgEarthNet.uav[5] utilizationCountManeuversMaintenance 112
scalar OsgEarthNet.uav[5] utilizationCountChargeState 56
scalar OsgEarthNet.uav[5] utilizationCountOverdrawnAfterMission 0
scalar OsgEarthNet.uav[5] utilizationCountIdleState 36
scalar OsgEarthNet.uav[5] utilizationFail 0
scalar OsgEarthNet.uav[5] simulationTime 259200
scalar OsgEarthNet.uav[6] utilizationSecMission 7483.7509154817
scalar OsgEarthNet.uav[6] utilizationSecMaintenance 3940.7735173031
scalar OsgEarthNet.uav[6] utilizationSecCharge 42050
scalar OsgEarthNet.uav[6] utilizationSecIdle 205725.47456722
scalar OsgEarthNet.uav[6] utilizationEnergyMission 35938.585754395
scalar OsgEarthNet.uav[6] utilizationEnergyMaintenance 18814.575740814
scalar OsgEarthNet.uav[6] utilizationEnergyCharge 54095.346679688
scalar OsgEarthNet.uav[6] utilizationEnergyOverdrawMission 0
scalar OsgEarthNet.uav[6] utilizationEnergyOverdrawMaintenance 0
scalar OsgEarthNet.uav[6] utilizationCountMissions 12
scalar OsgEarthNet.uav[6] utilizationCountManeuversMission 218
scalar OsgEarthNet.uav[6] utilizationCountManeuversMaintenance 24
scalar OsgEarthNet.uav[6] utilizationCountChargeState 12
scalar OsgEarthNet.uav[6] utilizationCountOverdrawnAfterMission 0
scalar OsgEarthNet.uav[6] utilizationCountIdleState 13
scalar OsgEarthNet.uav[6] utilizationFail 0
scalar OsgEarthNet.uav[6] simulationTime 259200
scalar OsgEarthNet.uav[7] utilizationSecMission 28206.858387963
scalar OsgEarthNet.uav[7] utilizationSecMaintenance 16007.813181972
scalar OsgEarthNet.uav[7] utilizationSecCharge 166133.32592334
scalar OsgEarthNet.uav[7] utilizationSecIdle 48852.001506722
scalar OsgEarthNet.uav[7] utilizationEnergyMission 136121.6848526
scalar OsgEarthNet.uav[7] utilizationEnergyMaintenance 75928.617435455
scalar OsgEarthNet.uav[7] utilizationEnergyCharge 211062.16259766
scalar OsgEarthNet.uav[7] utilizationEnergyOverdrawMission 0
scalar OsgEarthNet.uav[7] utilizationEnergyOverdrawMaintenance 0
scalar OsgEarthNet.uav[7] utilizationCountMissions 50
scalar OsgEarthNet.uav[7] utilizationCountManeuversMission 882
scalar OsgEarthNet.uav[7] utilizationCountManeuversMaintenance 100
scalar OsgEarthNet.uav[7] utilizationCountChargeState 50
scalar OsgEarthNet.uav[7] utilizationCountOverdrawnAfterMission 0
scalar OsgEarthNet.uav[7] utilizationCountIdleState 50
scalar OsgEarthNet.uav[7] utilizationFail 0
scalar OsgEarthNet.uav[7] simulationTime 259200
scalar OsgEarthNet.uav[8] utilizationSecMission 39478.929345762
scalar OsgEarthNet.uav[8] utilizationSecMaintenance 14633.755128033
scalar OsgEarthNet.uav[8] utilizationSecCharge 193622.81658503
scalar OsgEarthNet.uav[8] utilizationSecIdle 11464.497941176
scalar OsgEarthNet.uav[8] utilizationEnergyMission 192605.00943756
scalar OsgEarthNet.uav[8] utilizationEnergyMaintenance 67711.734035492
scalar OsgEarthNet.uav[8] utilizationEnergyCharge 254887.31762695
scalar OsgEarthNet.uav[8] utilizationEnergyOverdrawMission 0
scalar OsgEarthNet.uav[8] utilizationEnergyOverdrawMaintenance 0
scalar OsgEarthNet.uav[8] utilizationCountMissions 56
scalar OsgEarthNet.uav[8] utilizationCountManeuversMission 1235
scalar OsgEarthNet.uav[8] utilizationCountManeuversMaintenance 112
scalar OsgEarthNet.uav[8] utilizationCountChargeState 56
scalar OsgEarthNet.uav[8] utilizationCountOverdrawnAfterMission 0
scalar OsgEarthNet.uav[8] utilizationCountIdleState 43
scalar OsgEarthNet.uav[8] utilizationFail 0
scalar OsgEarthNet.uav[8] simulationTime 259200
scalar OsgEarthNet.uav[9] utilizationSecMission 4372.2425715706
scalar OsgEarthNet.uav[9] utilizationSecMaintenance 2147.8305942701
scalar OsgEarthNet.uav[9] utilizationSecCharge 24330
scalar OsgEarthNet.uav[9] utilizationSecIdle 228349.92583416
scalar OsgEarthNet.uav[9] utilizationEnergyMission 20663.70016861
scalar OsgEarthNet.uav[9] utilizationEnergyMaintenance 10469.546863556
scalar OsgEarthNet.uav[9] utilizationEnergyCharge 31003.070800781
scalar OsgEarthNet.uav[9] utilizationEnergyOverdrawMission 0
scalar OsgEarthNet.uav[9] utilizationEnergyOverdrawMaintenance 0
scalar OsgEarthNet.uav[9] utilizationCountMissions 7
scalar OsgEarthNet.uav[9] utilizationCountManeuversMission 119
scalar OsgEarthNet.uav[9] utilizationCountManeuversMaintenance 14
scalar OsgEarthNet.uav[9] utilizationCountChargeState 7
scalar OsgEarthNet.uav[9] utilizationCountOverdrawnAfterMission 0
scalar OsgEarthNet.uav[9] utilizationCountIdleState 8
scalar OsgEarthNet.uav[9] utilizationFail 0
scalar OsgEarthNet.uav[9] simulationTime 259200
scalar OsgEarthNet.uav[10] utilizationSecMission 7803.7509154817
scalar OsgEarthNet.uav[10] utilizationSecMaintenance 4300.8692427261
scalar OsgEarthNet.uav[10] utilizationSecCharge 42241.360563469
scalar OsgEarthNet.uav[10] utilizationSecIdle 204854.01827832
scalar OsgEarthNet.uav[10] utilizationEnergyMission 37124.860248566
scalar OsgEarthNet.uav[10] utilizationEnergyMaintenance 20616.28754425
scalar OsgEarthNet.uav[10] utilizationEnergyCharge 54474.366699219
scalar OsgEarthNet.uav[10] utilizationEnergyOverdrawMission 0
scalar OsgEarthNet.uav[10] utilizationEnergyOverdrawMaintenance 0
scalar OsgEarthNet.uav[10] utilizationCountMissions 13
scalar OsgEarthNet.uav[10] utilizationCountManeuversMission 234
scalar OsgEarthNet.uav[10] utilizationCountManeuversMaintenance 26
scalar OsgEarthNet.uav[10] utilizationCountChargeState 13
scalar OsgEarthNet.uav[10] utilizationCountOverdrawnAfterMission 0
scalar OsgEarthNet.uav[10] utilizationCountIdleState 13
scalar OsgEarthNet.uav[10] utilizationFail 0
scalar OsgEarthNet.uav[10] simulationTime 259200
scalar OsgEarthNet.uav[11] utilizationSecMission 24690.888012394
scalar OsgEarthNet.uav[11] utilizationSecMaintenance 14329.145763203
scalar OsgEarthNet.uav[11] utilizationSecCharge 150602.1596161
scalar OsgEarthNet.uav[11] utilizationSecIdle 69577.805608303
scalar OsgEarthNet.uav[11] utilizationEnergyMission 117704.89165878
scalar OsgEarthNet.uav[11] utilizationEnergyMaintenance 68014.742809296
scalar OsgEarthNet.uav[11] utilizationEnergyCharge 186356.91137695
scalar OsgEarthNet.uav[11] utilizationEnergyOverdrawMission 0
scalar OsgEarthNet.uav[11] utilizationEnergyOverdrawMaintenance 0
scalar OsgEarthNet.uav[11] utilizationCountMissions 48
scalar OsgEarthNet.uav[11] utilizationCountManeuversMission 676
scalar OsgEarthNet.uav[11] utilizationCountManeuversMaintenance 96
scalar OsgEarthNet.uav[11] utilizationCountChargeState 48
scalar OsgEarthNet.uav[11] utilizationCountOverdrawnAfterMission 0
scalar OsgEarthNet.uav[11] utilizationCountIdleState 48
scalar OsgEarthNet.uav[11] utilizationFail 0
scalar OsgEarthNet.uav[11] simulationTime 259200
scalar OsgEarthNet.uav[12] utilizationSecMission 38707.526467958
scalar OsgEarthNet.uav[12] utilizationSecMaintenance 15317.568266809
scalar OsgEarthNet.uav[12] utilizationSecCharge 193703.23121585
scalar OsgEarthNet.uav[12] utilizationSecIdle 11471.673049383
scalar OsgEarthNet.uav[12] utilizationEnergyMission 188195.55765533
scalar OsgEarthNet.uav[12] utilizationEnergyMaintenance 70623.34658432
scalar OsgEarthNet.uav[12] utilizationEnergyCharge 255681.99633789
scalar OsgEarthNet.uav[12] utilizationEnergyOverdrawMission 0
scalar OsgEarthNet.uav[12] utilizationEnergyOverdrawMaintenance 0
scalar OsgEarthNet.uav[12] utilizationCountMissions 56
scalar OsgEarthNet.uav[12] utilizationCountManeuversMission 1251
scalar OsgEarthNet.uav[12] utilizationCountManeuversMaintenance 112
scalar OsgEarthNet.uav[12] utilizationCountChargeState 56
scalar OsgEarthNet.uav[12] utilizationCountOverdrawnAfterMission 0
scalar OsgEarthNet.uav[12] utilizationCountIdleState 40
scalar OsgEarthNet.uav[12] utilizationFail 0
scalar OsgEarthNet.uav[12] simulationTime 259200
scalar OsgEarthNet.uav[13] utilizationSecMission 7483.1257629014
scalar OsgEarthNet.uav[13] utilizationSecMaintenance 4719.818082835
scalar OsgEarthNet.uav[13] utilizationSecCharge 45720
scalar OsgEarthNet.uav[13] utilizationSecIdle 201277.05515426
scalar OsgEarthNet.uav[13] utilizationEnergyMission 35949.359149933
scalar OsgEarthNet.uav[13] utilizationEnergyMaintenance 22215.233150482
scalar OsgEarthNet.uav[13] utilizationEnergyCharge 58737.400390625
scalar OsgEarthNet.uav[13] utilizationEnergyOverdrawMission 0
scalar OsgEarthNet.uav[13] utilizationEnergyOverdrawMaintenance 0
scalar OsgEarthNet.uav[13] utilizationCountMissions 13
scalar OsgEarthNet.uav[13] utilizationCountManeuversMission 244
scalar OsgEarthNet.uav[13] utilizationCountManeuversMaintenance 26
scalar OsgEarthNet.uav[13] utilizationCountChargeState 13
scalar OsgEarthNet.uav[13] utilizationCountOverdrawnAfterMission 0
scalar OsgEarthNet.uav[13] utilizationCountIdleState 14
scalar OsgEarthNet.uav[13] utilizationFail 0
scalar OsgEarthNet.uav[13] simulationTime 259200
scalar OsgEarthNet.uav[14] utilizationSecMission 24950.935283113
scalar OsgEarthNet.uav[14] utilizationSecMaintenance 15031.061890657
scalar OsgEarthNet.uav[14] utilizationSecCharge 152090
scalar OsgEarthNet.uav[14] utilizationSecIdle 67128.00182623
scalar OsgEarthNet.uav[14] utilizationEnergyMission 120214.99482157
scalar OsgEarthNet.uav[14] utilizationEnergyMaintenance 71441.448486328
scalar OsgEarthNet.uav[14] utilizationEnergyCharge 191387.95117188
scalar OsgEarthNet.uav[14] utilizationEnergyOverdrawMission 0
scalar OsgEarthNet.uav[14] utilizationEnergyOverdrawMaintenance 0
scalar OsgEarthNet.uav[14] utilizationCountMissions 46
scalar OsgEarthNet.uav[14] utilizationCountManeuversMission 800
scalar OsgEarthNet.uav[14] utilizationCountManeuversMaintenance 93
scalar OsgEarthNet.uav[14] utilizationCountChargeState 46
scalar OsgEarthNet.uav[14] utilizationCountOverdrawnAfterMission 0
scalar OsgEarthNet.uav[14] utilizationCountIdleState 47
scalar OsgEarthNet.uav[14] utilizationFail 0
scalar OsgEarthNet.uav[14] simulationTime 259200
scalar OsgEarthNet.uav[15] utilizationSecMission 38058.021401198
scalar OsgEarthNet.uav[15] utilizationSecMaintenance 15969.976598802
scalar OsgEarthNet.uav[15] utilizationSecCharge 195090
scalar OsgEarthNet.uav[15] utilizationSecIdle 10082.001
scalar OsgEarthNet.uav[15] utilizationEnergyMission 187016.04098244
scalar OsgEarthNet.uav[15] utilizationEnergyMaintenance 72464.178131104
scalar OsgEarthNet.uav[15] utilizationEnergyCharge 256822.85791016
scalar OsgEarthNet.uav[15] utilizationEnergyOverdrawMission 0
scalar OsgEarthNet.uav[15] utilizationEnergyOverdrawMaintenance 0
scalar OsgEarthNet.uav[15] utilizationCountMissions 56
scalar OsgEarthNet.uav[15] utilizationCountManeuversMission 1265
scalar OsgEarthNet.uav[15] utilizationCountManeuversMaintenance 113
scalar OsgEarthNet.uav[15] utilizationCountChargeState 56
scalar OsgEarthNet.uav[15] utilizationCountOverdrawnAfterMission 0
scalar OsgEarthNet.uav[15] utilizationCountIdleState 36
scalar OsgEarthNet.uav[15] utilizationFail 0
scalar OsgEarthNet.uav[15] simulationTime 259200
scalar OsgEarthNet.uav[16] utilizationSecMission 4380.6251525803
scalar OsgEarthNet.uav[16] utilizationSecMaintenance 3772.3385983515
scalar OsgEarthNet.uav[16] utilizationSecCharge 31740
scalar OsgEarthNet.uav[16] utilizationSecIdle 219307.03524907
scalar OsgEarthNet.uav[16] utilizationEnergyMission 22079.038799286
scalar OsgEarthNet.uav[16] utilizationEnergyMaintenance 17892.136974335
scalar OsgEarthNet.uav[16] utilizationEnergyCharge 40845.330566406
scalar OsgEarthNet.uav[16] utilizationEnergyOverdrawMission 0
scalar OsgEarthNet.uav[16] utilizationEnergyOverdrawMaintenance 0
scalar OsgEarthNet.uav[16] utilizationCountMissions 9
scalar OsgEarthNet.uav[16] utilizationCountManeuversMission 193
scalar OsgEarthNet.uav[16] utilizationCountManeuversMaintenance 18
scalar OsgEarthNet.uav[16] utilizationCountChargeState 9
scalar OsgEarthNet.uav[16] utilizationCountOverdrawnAfterMission 0
scalar OsgEarthNet.uav[16] utilizationCountIdleState 10
scalar OsgEarthNet.uav[16] utilizationFail 0
scalar OsgEarthNet.uav[16] simulationTime 259200
scalar OsgEarthNet.uav[17] utilizationSecMission 26946.776717179
scalar OsgEarthNet.uav[17] utilizationSecMaintenance 15469.820890441
scalar OsgEarthNet.uav[17] utilizationSecCharge 162451.39739238
scalar OsgEarthNet.uav[17] utilizationSecIdle 54332.004
scalar OsgEarthNet.uav[17] utilizationEnergyMission 127032.17495346
scalar OsgEarthNet.uav[17] utilizationEnergyMaintenance 73065.995742798
scalar OsgEarthNet.uav[17] utilizationEnergyCharge 200127.36889648
scalar OsgEarthNet.uav[17] utilizationEnergyOverdrawMission 0
scalar OsgEarthNet.uav[17] utilizationEnergyOverdrawMaintenance 0
scalar OsgEarthNet.uav[17] utilizationCountMissions 52
scalar OsgEarthNet.uav[17] utilizationCountManeuversMission 698
scalar OsgEarthNet.uav[17] utilizationCountManeuversMaintenance 104
scalar OsgEarthNet.uav[17] utilizationCountChargeState 52
scalar OsgEarthNet.uav[17] utilizationCountOverdrawnAfterMission 0
scalar OsgEarthNet.uav[17] utilizationCountIdleState 52
scalar OsgEarthNet.uav[17] utilizationFail 0
scalar OsgEarthNet.uav[17] simulationTime 259200
scalar OsgEarthNet.uav[18] utilizationSecMission 37282.812279749
scalar OsgEarthNet.uav[18] utilizationSecMaintenance 16045.181720251
scalar OsgEarthNet.uav[18] utilizationSecCharge 193890
scalar OsgEarthNet.uav[18] utilizationSecIdle 11982.005
scalar OsgEarthNet.uav[18] utilizationEnergyMission 183904.25809455
scalar OsgEarthNet.uav[18] utilizationEnergyMaintenance 73829.07409668
scalar OsgEarthNet.uav[18] utilizationEnergyCharge 255254.38134766
scalar OsgEarthNet.uav[18] utilizationEnergyOverdrawMission 0
scalar OsgEarthNet.uav[18] utilizationEnergyOverdrawMaintenance 0
scalar OsgEarthNet.uav[18] utilizationCountMissions 56
scalar OsgEarthNet.uav[18] utilizationCountManeuversMission 1247
scalar OsgEarthNet.uav[18] utilizationCountManeuversMaintenance 113
scalar OsgEarthNet.uav[18] utilizationCountChargeState 56
scalar OsgEarthNet.uav[18] utilizationCountOverdrawnAfterMission 0
scalar OsgEarthNet.uav[18] utilizationCountIdleState 36
scalar OsgEarthNet.uav[18] utilizationFail 0
scalar OsgEarthNet.uav[18] simulationTime 259200
scalar OsgEarthNet.uav[19] utilizationSecMission 5442.5006103211
scalar OsgEarthNet.uav[19] utilizationSecMaintenance 3271.6016517551
scalar OsgEarthNet.uav[19] utilizationSecCharge 31550
scalar OsgEarthNet.uav[19] utilizationSecIdle 218935.89673792
scalar OsgEarthNet.uav[19] utilizationEnergyMission 26216.594276428
scalar OsgEarthNet.uav[19] utilizationEnergyMaintenance 15459.953621572
scalar OsgEarthNet.uav[19] utilizationEnergyCharge 40444.809082031
scalar OsgEarthNet.uav[19] utilizationEnergyOverdrawMission 0
scalar OsgEarthNet.uav[19] utilizationEnergyOverdrawMaintenance 0
scalar OsgEarthNet.uav[19] utilizationCountMissions 9
scalar OsgEarthNet.uav[19] utilizationCountManeuversMission 168
scalar OsgEarthNet.uav[19] utilizationCountManeuversMaintenance 19
scalar OsgEarthNet.uav[19] utilizationCountChargeState 9
scalar OsgEarthNet.uav[19] utilizationCountOverdrawnAfterMission 0
scalar OsgEarthNet.uav[19] utilizationCountIdleState 10
scalar OsgEarthNet.uav[19] utilizationFail 0
scalar OsgEarthNet.uav[19] simulationTime 259200
scalar OsgEarthNet.uav[20] utilizationSecMission 7782.5006103211
scalar OsgEarthNet.uav[20] utilizationSecMaintenance 5344.1593249714
scalar OsgEarthNet.uav[20] utilizationSecCharge 49380
scalar OsgEarthNet.uav[20] utilizationSecIdle 196693.33906471
scalar OsgEarthNet.uav[20] utilizationEnergyMission 38064.147636414
scalar OsgEarthNet.uav[20] utilizationEnergyMaintenance 25321.413593292
scalar OsgEarthNet.uav[20] utilizationEnergyCharge 63801.53125
scalar OsgEarthNet.uav[20] utilizationEnergyOverdrawMission 0
scalar OsgEarthNet.uav[20] utilizationEnergyOverdrawMaintenance 0
scalar OsgEarthNet.uav[20] utilizationCountMissions 14
scalar OsgEarthNet.uav[20] utilizationCountManeuversMission 285
scalar OsgEarthNet.uav[20] utilizationCountManeuversMaintenance 28
scalar OsgEarthNet.uav[20] utilizationCountChargeState 14
scalar OsgEarthNet.uav[20] utilizationCountOverdrawnAfterMission 0
scalar OsgEarthNet.uav[20] utilizationCountIdleState 15
scalar OsgEarthNet.uav[20] utilizationFail 0
scalar OsgEarthNet.uav[20] simulationTime 259200
scalar OsgEarthNet.uav[21] utilizationSecMission 28415.738285704
scalar OsgEarthNet.uav[21] utilizationSecMaintenance 15286.561517483
scalar OsgEarthNet.uav[21] utilizationSecCharge 166855.90436271
scalar OsgEarthNet.uav[21] utilizationSecIdle 48641.794834099
scalar OsgEarthNet.uav[21] utilizationEnergyMission 133998.6148262
scalar OsgEarthNet.uav[21] utilizationEnergyMaintenance 73513.60572052
scalar OsgEarthNet.uav[21] utilizationEnergyCharge 207076.24072266
scalar OsgEarthNet.uav[21] utilizationEnergyOverdrawMission 0
scalar OsgEarthNet.uav[21] utilizationEnergyOverdrawMaintenance 0
scalar OsgEarthNet.uav[21] utilizationCountMissions 53
scalar OsgEarthNet.uav[21] utilizationCountManeuversMission 709
scalar OsgEarthNet.uav[21] utilizationCountManeuversMaintenance 106
scalar OsgEarthNet.uav[21] utilizationCountChargeState 53
scalar OsgEarthNet.uav[21] utilizationCountOverdrawnAfterMission 0
scalar OsgEarthNet.uav[21] utilizationCountIdleState 53
scalar OsgEarthNet.uav[21] utilizationFail 0
scalar OsgEarthNet.uav[21] simulationTime 259200
scalar OsgEarthNet.uav[22] utilizationSecMission 37754.680020768
scalar OsgEarthNet.uav[22] utilizationSecMaintenance 16684.122303288
scalar OsgEarthNet.uav[22] utilizationSecCharge 195339.19567594
scalar OsgEarthNet.uav[22] utilizationSecIdle 9422.001
scalar OsgEarthNet.uav[22] utilizationEnergyMission 184482.31012344
scalar OsgEarthNet.uav[22] utilizationEnergyMaintenance 77548.935741425
scalar OsgEarthNet.uav[22] utilizationEnergyCharge 259112.49316406
scalar OsgEarthNet.uav[22] utilizationEnergyOverdrawMission 0
scalar OsgEarthNet.uav[22] utilizationEnergyOverdrawMaintenance 0
scalar OsgEarthNet.uav[22] utilizationCountMissions 57
scalar OsgEarthNet.uav[22] utilizationCountManeuversMission 1269
scalar OsgEarthNet.uav[22] utilizationCountManeuversMaintenance 114
scalar OsgEarthNet.uav[22] utilizationCountChargeState 57
scalar OsgEarthNet.uav[22] utilizationCountOverdrawnAfterMission 0
scalar OsgEarthNet.uav[22] utilizationCountIdleState 35
scalar OsgEarthNet.uav[22] utilizationFail 0
scalar OsgEarthNet.uav[22] simulationTime 259200
scalar OsgEarthNet.uav[23] utilizationSecMission 7823.7509154817
scalar OsgEarthNet.uav[23] utilizationSecMaintenance 4378.2052441527
scalar OsgEarthNet.uav[23] utilizationSecCharge 45530
scalar OsgEarthNet.uav[23] utilizationSecIdle 201468.04284037
scalar OsgEarthNet.uav[23] utilizationEnergyMission 37254.92660141
scalar OsgEarthNet.uav[23] utilizationEnergyMaintenance 21190.071804047
scalar OsgEarthNet.uav[23] utilizationEnergyCharge 58488.108398438
scalar OsgEarthNet.uav[23] utilizationEnergyOverdrawMission 0
scalar OsgEarthNet.uav[23] utilizationEnergyOverdrawMaintenance 0
scalar OsgEarthNet.uav[23] utilizationCountMissions 13
scalar OsgEarthNet.uav[23] utilizationCountManeuversMission 235
scalar OsgEarthNet.uav[23] utilizationCountManeuversMaintenance 26
scalar OsgEarthNet.uav[23] utilizationCountChargeState 13
scalar OsgEarthNet.uav[23] utilizationCountOverdrawnAfterMission 0
scalar OsgEarthNet.uav[23] utilizationCountIdleState 14
scalar OsgEarthNet.uav[23] utilizationFail 0
scalar OsgEarthNet.uav[23] simulationTime 259200
scalar OsgEarthNet.uav[24] utilizationSecMission 28616.370075676
scalar OsgEarthNet.uav[24] utilizationSecMaintenance 15755.275321445
scalar OsgEarthNet.uav[24] utilizationSecCharge 165180
scalar OsgEarthNet.uav[24] utilizationSecIdle 49648.353602879
scalar OsgEarthNet.uav[24] utilizationEnergyMission 139011.01535797
scalar OsgEarthNet.uav[24] utilizationEnergyMaintenance 74398.92293031
scalar OsgEarthNet.uav[24] utilizationEnergyCharge 207759.1574707
scalar OsgEarthNet.uav[24] utilizationEnergyOverdrawMission 0
scalar OsgEarthNet.uav[24] utilizationEnergyOverdrawMaintenance 0
scalar OsgEarthNet.uav[24] utilizationCountMissions 51
scalar OsgEarthNet.uav[24] utilizationCountManeuversMission 874
scalar OsgEarthNet.uav[24] utilizationCountManeuversMaintenance 102
scalar OsgEarthNet.uav[24] utilizationCountChargeState 50
scalar OsgEarthNet.uav[24] utilizationCountOverdrawnAfterMission 0
scalar OsgEarthNet.uav[24] utilizationCountIdleState 51
scalar OsgEarthNet.uav[24] utilizationFail 0
scalar OsgEarthNet.uav[24] simulationTime 259200
scalar OsgEarthNet.uav[25] utilizationSecMission 35847.991340626
scalar OsgEarthNet.uav[25] utilizationSecMaintenance 17555.24406137
scalar OsgEarthNet.uav[25] utilizationSecCharge 195574.757598
scalar OsgEarthNet.uav[25] utilizationSecIdle 10222.006
scalar OsgEarthNet.uav[25] utilizationEnergyMission 179000.71946716
scalar OsgEarthNet.uav[25] utilizationEnergyMaintenance 81799.531730652
scalar OsgEarthNet.uav[25] utilizationEnergyCharge 259561.75732422
scalar OsgEarthNet.uav[25] utilizationEnergyOverdrawMission 0
scalar OsgEarthNet.uav[25] utilizationEnergyOverdrawMaintenance 0
scalar OsgEarthNet.uav[25] utilizationCountMissions 57
scalar OsgEarthNet.uav[25] utilizationCountManeuversMission 1342
scalar OsgEarthNet.uav[25] utilizationCountManeuversMaintenance 114
scalar OsgEarthNet.uav[25] utilizationCountChargeState 57
scalar OsgEarthNet.uav[25] utilizationCountOverdrawnAfterMission 0
scalar OsgEarthNet.uav[25] utilizationCountIdleState 32
scalar OsgEarthNet.uav[25] utilizationFail 0
scalar OsgEarthNet.uav[25] simulationTime 259200
scalar OsgEarthNet.uav[26] utilizationSecMission 5382.5006103211
scalar OsgEarthNet.uav[26] utilizationSecMaintenance 3096.9693701806
scalar OsgEarthNet.uav[26] utilizationSecCharge 31820
scalar OsgEarthNet.uav[26] utilizationSecIdle 218900.5290195
scalar OsgEarthNet.uav[26] utilizationEnergyMission 26513.310897827
scalar OsgEarthNet.uav[26] utilizationEnergyMaintenance 14472.717021942
scalar OsgEarthNet.uav[26] utilizationEnergyCharge 41108.822753906
scalar OsgEarthNet.uav[26] utilizationEnergyOverdrawMission 0
scalar OsgEarthNet.uav[26] utilizationEnergyOverdrawMaintenance 0
scalar OsgEarthNet.uav[26] utilizationCountMissions 9
scalar OsgEarthNet.uav[26] utilizationCountManeuversMission 165
scalar OsgEarthNet.uav[26] utilizationCountManeuversMaintenance 18
scalar OsgEarthNet.uav[26] utilizationCountChargeState 9
scalar OsgEarthNet.uav[26] utilizationCountOverdrawnAfterMission 0
scalar OsgEarthNet.uav[26] utilizationCountIdleState 10
scalar OsgEarthNet.uav[26] utilizationFail 0
scalar OsgEarthNet.uav[26] simulationTime 259200
scalar OsgEarthNet.uav[27] utilizationSecMission 29081.666310604
scalar OsgEarthNet.uav[27] utilizationSecMaintenance 16608.926828788
scalar OsgEarthNet.uav[27] utilizationSecCharge 175570
scalar OsgEarthNet.uav[27] utilizationSecIdle 37939.405860608
scalar OsgEarthNet.uav[27] utilizationEnergyMission 141261.15162659
scalar OsgEarthNet.uav[27] utilizationEnergyMaintenance 78894.781154633
scalar OsgEarthNet.uav[27] utilizationEnergyCharge 221238.98242188
scalar OsgEarthNet.uav[27] utilizationEnergyOverdrawMission 0
scalar OsgEarthNet.uav[27] utilizationEnergyOverdrawMaintenance 0
scalar OsgEarthNet.uav[27] utilizationCountMissions 53
scalar OsgEarthNet.uav[27] utilizationCountManeuversMission 867
scalar OsgEarthNet.uav[27] utilizationCountManeuversMaintenance 106
scalar OsgEarthNet.uav[27] utilizationCountChargeState 53
scalar OsgEarthNet.uav[27] utilizationCountOverdrawnAfterMission 0
scalar OsgEarthNet.uav[27] utilizationCountIdleState 54
scalar OsgEarthNet.uav[27] utilizationFail 0
scalar OsgEarthNet.uav[27] simulationTime 259200
scalar OsgEarthNet.uav[28] utilizationSecMission 38215.395962671
scalar OsgEarthNet.uav[28] utilizationSecMaintenance 15562.596037329
scalar OsgEarthNet.uav[28] utilizationSecCharge 192670
scalar OsgEarthNet.uav[28] utilizationSecIdle 12752.007
scalar OsgEarthNet.uav[28] utilizationEnergyMission 188216.39011002
scalar OsgEarthNet.uav[28] utilizationEnergyMaintenance 72282.569294306
scalar OsgEarthNet.uav[28] utilizationEnergyCharge 254402.96142578
scalar OsgEarthNet.uav[28] utilizationEnergyOverdrawMission 0
scalar OsgEarthNet.uav[28] utilizationEnergyOverdrawMaintenance 0
scalar OsgEarthNet.uav[28] utilizationCountMissions 56
scalar OsgEarthNet.uav[28] utilizationCountManeuversMission 1261
scalar OsgEarthNet.uav[28] utilizationCountManeuversMaintenance 112
scalar OsgEarthNet.uav[28] utilizationCountChargeState 55
scalar OsgEarthNet.uav[28] utilizationCountOverdrawnAfterMission 0
scalar OsgEarthNet.uav[28] utilizationCountIdleState 38
scalar OsgEarthNet.uav[28] utilizationFail 0
scalar OsgEarthNet.uav[28] simulationTime 259200
scalar OsgEarthNet.uav[29] utilizationSecMission 15708.343315442
scalar OsgEarthNet.uav[29] utilizationSecMaintenance 10557.881127774
scalar OsgEarthNet.uav[29] utilizationSecCharge 96381.148395995
scalar OsgEarthNet.uav[29] utilizationSecIdle 136552.62616079
scalar OsgEarthNet.uav[29] utilizationEnergyMission 75596.949821472
scalar OsgEarthNet.uav[29] utilizationEnergyMaintenance 49915.034255981
scalar OsgEarthNet.uav[29] utilizationEnergyCharge 124855.42773438
scalar OsgEarthNet.uav[29] utilizationEnergyOverdrawMission 0
scalar OsgEarthNet.uav[29] utilizationEnergyOverdrawMaintenance 0
scalar OsgEarthNet.uav[29] utilizationCountMissions 28
scalar OsgEarthNet.uav[29] utilizationCountManeuversMission 549
scalar OsgEarthNet.uav[29] utilizationCountManeuversMaintenance 56
scalar OsgEarthNet.uav[29] utilizationCountChargeState 28
scalar OsgEarthNet.uav[29] utilizationCountOverdrawnAfterMission 0
scalar OsgEarthNet.uav[29] utilizationCountIdleState 28
scalar OsgEarthNet.uav[29] utilizationFail 0
scalar OsgEarthNet.uav[29] simulationTime 259200
scalar OsgEarthNet.uav[30] utilizationSecMission 14076.102562131
scalar OsgEarthNet.uav[30] utilizationSecMaintenance 8215.3699771752
scalar OsgEarthNet.uav[30] utilizationSecCharge 83570
scalar OsgEarthNet.uav[30] utilizationSecIdle 153338.52646069
scalar OsgEarthNet.uav[30] utilizationEnergyMission 68561.529159546
scalar OsgEarthNet.uav[30] utilizationEnergyMaintenance 39588.448516846
scalar OsgEarthNet.uav[30] utilizationEnergyCharge 107077.91015625
scalar OsgEarthNet.uav[30] utilizationEnergyOverdrawMission 0
scalar OsgEarthNet.uav[30] utilizationEnergyOverdrawMaintenance 0
scalar OsgEarthNet.uav[30] utilizationCountMissions 24
scalar OsgEarthNet.uav[30] utilizationCountManeuversMission 431
scalar OsgEarthNet.uav[30] utilizationCountManeuversMaintenance 48
scalar OsgEarthNet.uav[30] utilizationCountChargeState 24
scalar OsgEarthNet.uav[30] utilizationCountOverdrawnAfterMission 0
scalar OsgEarthNet.uav[30] utilizationCountIdleState 25
scalar OsgEarthNet.uav[30] utilizationFail 0
scalar OsgEarthNet.uav[30] simulationTime 259200
scalar OsgEarthNet.uav[31] utilizationSecMission 28167.319781302
scalar OsgEarthNet.uav[31] utilizationSecMaintenance 16242.895843745
scalar OsgEarthNet.uav[31] utilizationSecCharge 169370
scalar OsgEarthNet.uav[31] utilizationSecIdle 45419.783374952
scalar OsgEarthNet.uav[31] utilizationEnergyMission 138254.34209061
scalar OsgEarthNet.uav[31] utilizationEnergyMaintenance 76704.54617691
scalar OsgEarthNet.uav[31] utilizationEnergyCharge 215253.08227539
scalar OsgEarthNet.uav[31] utilizationEnergyOverdrawMission 0
scalar OsgEarthNet.uav[31] utilizationEnergyOverdrawMaintenance 0
scalar OsgEarthNet.uav[31] utilizationCountMissions 50
scalar OsgEarthNet.uav[31] utilizationCountManeuversMission 941
scalar OsgEarthNet.uav[31] utilizationCountManeuversMaintenance 100
scalar OsgEarthNet.uav[31] utilizationCountChargeState 50
scalar OsgEarthNet.uav[31] utilizationCountOverdrawnAfterMission 0
scalar OsgEarthNet.uav[31] utilizationCountIdleState 51
scalar OsgEarthNet.uav[31] utilizationFail 0
scalar OsgEarthNet.uav[31] simulationTime 259200
scalar OsgEarthNet.uav[32] utilizationSecMission 38183.46722295
scalar OsgEarthNet.uav[32] utilizationSecMaintenance 16404.52977705
scalar OsgEarthNet.uav[32] utilizationSecCharge 194690
scalar OsgEarthNet.uav[32] utilizationSecIdle 9922.002
scalar OsgEarthNet.uav[32] utilizationEnergyMission 186122.58234787
scalar OsgEarthNet.uav[32] utilizationEnergyMaintenance 75132.493634868
scalar OsgEarthNet.uav[32] utilizationEnergyCharge 256952.94970703
scalar OsgEarthNet.uav[32] utilizationEnergyOverdrawMission 0
scalar OsgEarthNet.uav[32] utilizationEnergyOverdrawMaintenance 0
scalar OsgEarthNet.uav[32] utilizationCountMissions 57
scalar OsgEarthNet.uav[32] utilizationCountManeuversMission 1263
scalar OsgEarthNet.uav[32] utilizationCountManeuversMaintenance 114
scalar OsgEarthNet.uav[32] utilizationCountChargeState 56
scalar OsgEarthNet.uav[32] utilizationCountOverdrawnAfterMission 0
scalar OsgEarthNet.uav[32] utilizationCountIdleState 36
scalar OsgEarthNet.uav[32] utilizationFail 0
scalar OsgEarthNet.uav[32] simulationTime 259200
scalar OsgEarthNet.uav[33] utilizationSecMission 12334.634106813
scalar OsgEarthNet.uav[33] utilizationSecMaintenance 8389.8865557781
scalar OsgEarthNet.uav[33] utilizationSecCharge 77980
scalar OsgEarthNet.uav[33] utilizationSecIdle 160495.47833741
scalar OsgEarthNet.uav[33] utilizationEnergyMission 60217.26260376
scalar OsgEarthNet.uav[33] utilizationEnergyMaintenance 39904.855548859
scalar OsgEarthNet.uav[33] utilizationEnergyCharge 100856.18457031
scalar OsgEarthNet.uav[33] utilizationEnergyOverdrawMission 0
scalar OsgEarthNet.uav[33] utilizationEnergyOverdrawMaintenance 0
scalar OsgEarthNet.uav[33] utilizationCountMissions 22
scalar OsgEarthNet.uav[33] utilizationCountManeuversMission 430
scalar OsgEarthNet.uav[33] utilizationCountManeuversMaintenance 44
scalar OsgEarthNet.uav[33] utilizationCountChargeState 22
scalar OsgEarthNet.uav[33] utilizationCountOverdrawnAfterMission 0
scalar OsgEarthNet.uav[33] utilizationCountIdleState 23
scalar OsgEarthNet.uav[33] utilizationFail 0
scalar OsgEarthNet.uav[33] simulationTime 259200
scalar OsgEarthNet.uav[34] utilizationSecMission 26735.932243001
scalar OsgEarthNet.uav[34] utilizationSecMaintenance 17162.058756999
scalar OsgEarthNet.uav[34] utilizationSecCharge 168830
scalar OsgEarthNet.uav[34] utilizationSecIdle 46472.008
scalar OsgEarthNet.uav[34] utilizationEnergyMission 131479.56949572
scalar OsgEarthNet.uav[34] utilizationEnergyMaintenance 81571.660079956
scalar OsgEarthNet.uav[34] utilizationEnergyCharge 210740.08520508
scalar OsgEarthNet.uav[34] utilizationEnergyOverdrawMission 0
scalar OsgEarthNet.uav[34] utilizationEnergyOverdrawMaintenance 0
scalar OsgEarthNet.uav[34] utilizationCountMissions 52
scalar OsgEarthNet.uav[34] utilizationCountManeuversMission 900
scalar OsgEarthNet.uav[34] utilizationCountManeuversMaintenance 105
scalar OsgEarthNet.uav[34] utilizationCountChargeState 52
scalar OsgEarthNet.uav[34] utilizationCountOverdrawnAfterMission 0
scalar OsgEarthNet.uav[34] utilizationCountIdleState 53
scalar OsgEarthNet.uav[34] utilizationFail 0
scalar OsgEarthNet.uav[34] simulationTime 259200
scalar OsgEarthNet.uav[35] utilizationSecMission 38771.985066575
scalar OsgEarthNet.uav[35] utilizationSecMaintenance 15655.596935228
scalar OsgEarthNet.uav[35] utilizationSecCharge 194190.4149982
scalar OsgEarthNet.uav[35] utilizationSecIdle 10582.002
scalar OsgEarthNet.uav[35] utilizationEnergyMission 185914.14199829
scalar OsgEarthNet.uav[35] utilizationEnergyMaintenance 72720.286052704
scalar OsgEarthNet.uav[35] utilizationEnergyCharge 256602.66162109
scalar OsgEarthNet.uav[35] utilizationEnergyOverdrawMission 0
scalar OsgEarthNet.uav[35] utilizationEnergyOverdrawMaintenance 0
scalar OsgEarthNet.uav[35] utilizationCountMissions 56
scalar OsgEarthNet.uav[35] utilizationCountManeuversMission 1201
scalar OsgEarthNet.uav[35] utilizationCountManeuversMaintenance 112
scalar OsgEarthNet.uav[35] utilizationCountChargeState 56
scalar OsgEarthNet.uav[35] utilizationCountOverdrawnAfterMission 0
scalar OsgEarthNet.uav[35] utilizationCountIdleState 40
scalar OsgEarthNet.uav[35] utilizationFail 0
scalar OsgEarthNet.uav[35] simulationTime 259200
scalar OsgEarthNet.uav[36] utilizationSecMission 14465.110295721
scalar OsgEarthNet.uav[36] utilizationSecMaintenance 9498.2651425743
scalar OsgEarthNet.uav[36] utilizationSecCharge 90650
scalar OsgEarthNet.uav[36] utilizationSecIdle 144586.6235617
scalar OsgEarthNet.uav[36] utilizationEnergyMission 70809.829463959
scalar OsgEarthNet.uav[36] utilizationEnergyMaintenance 45078.241416931
scalar OsgEarthNet.uav[36] utilizationEnergyCharge 116403.06738281
scalar OsgEarthNet.uav[36] utilizationEnergyOverdrawMission 0
scalar OsgEarthNet.uav[36] utilizationEnergyOverdrawMaintenance 0
scalar OsgEarthNet.uav[36] utilizationCountMissions 26
scalar OsgEarthNet.uav[36] utilizationCountManeuversMission 498
scalar OsgEarthNet.uav[36] utilizationCountManeuversMaintenance 52
scalar OsgEarthNet.uav[36] utilizationCountChargeState 26
scalar OsgEarthNet.uav[36] utilizationCountOverdrawnAfterMission 0
scalar OsgEarthNet.uav[36] utilizationCountIdleState 27
scalar OsgEarthNet.uav[36] utilizationFail 0
scalar OsgEarthNet.uav[36] simulationTime 259200
scalar OsgEarthNet.uav[37] utilizationSecMission 29599.799261244
scalar OsgEarthNet.uav[37] utilizationSecMaintenance 17232.350147392
scalar OsgEarthNet.uav[37] utilizationSecCharge 177185.84759136
scalar OsgEarthNet.uav[37] utilizationSecIdle 35182.002
scalar OsgEarthNet.uav[37] utilizationEnergyMission 142474.44915009
scalar OsgEarthNet.uav[37] utilizationEnergyMaintenance 81835.25605011
scalar OsgEarthNet.uav[37] utilizationEnergyCharge 223658.45678711
scalar OsgEarthNet.uav[37] utilizationEnergyOverdrawMission 0
scalar OsgEarthNet.uav[37] utilizationEnergyOverdrawMaintenance 0
scalar OsgEarthNet.uav[37] utilizationCountMissions 54
scalar OsgEarthNet.uav[37] utilizationCountManeuversMission 883
scalar OsgEarthNet.uav[37] utilizationCountManeuversMaintenance 108
scalar OsgEarthNet.uav[37] utilizationCountChargeState 54
scalar OsgEarthNet.uav[37] utilizationCountOverdrawnAfterMission 0
scalar OsgEarthNet.uav[37] utilizationCountIdleState 54
scalar OsgEarthNet.uav[37] utilizationFail 0
scalar OsgEarthNet.uav[37] simulationTime 259200
scalar OsgEarthNet.uav[38] utilizationSecMission 39458.899209324
scalar OsgEarthNet.uav[38] utilizationSecMaintenance 13381.819497998
scalar OsgEarthNet.uav[38] utilizationSecCharge 191509.44347864
scalar OsgEarthNet.uav[38] utilizationSecIdle 14849.83681404
scalar OsgEarthNet.uav[38] utilizationEnergyMission 191207.52393723
scalar OsgEarthNet.uav[38] utilizationEnergyMaintenance 61593.418998718
scalar OsgEarthNet.uav[38] utilizationEnergyCharge 252478.87988281
scalar OsgEarthNet.uav[38] utilizationEnergyOverdrawMission 0
scalar OsgEarthNet.uav[38] utilizationEnergyOverdrawMaintenance 0
scalar OsgEarthNet.uav[38] utilizationCountMissions 54
scalar OsgEarthNet.uav[38] utilizationCountManeuversMission 1220
scalar OsgEarthNet.uav[38] utilizationCountManeuversMaintenance 108
scalar OsgEarthNet.uav[38] utilizationCountChargeState 54
scalar OsgEarthNet.uav[38] utilizationCountOverdrawnAfterMission 0
scalar OsgEarthNet.uav[38] utilizationCountIdleState 45
scalar OsgEarthNet.uav[38] utilizationFail 0
scalar OsgEarthNet.uav[38] simulationTime 259200
scalar OsgEarthNet.uav[39] utilizationSecMission 15265.626373223
scalar OsgEarthNet.uav[39] utilizationSecMaintenance 9692.3626267775
scalar OsgEarthNet.uav[39] utilizationSecCharge 91550
scalar OsgEarthNet.uav[39] utilizationSecIdle 142692.01
scalar OsgEarthNet.uav[39] utilizationEnergyMission 74660.758563995
scalar OsgEarthNet.uav[39] utilizationEnergyMaintenance 46107.69733463
scalar OsgEarthNet.uav[39] utilizationEnergyCharge 117911.78320312
scalar OsgEarthNet.uav[39] utilizationEnergyOverdrawMission 0
scalar OsgEarthNet.uav[39] utilizationEnergyOverdrawMaintenance 0
scalar OsgEarthNet.uav[39] utilizationCountMissions 26
scalar OsgEarthNet.uav[39] utilizationCountManeuversMission 529
scalar OsgEarthNet.uav[39] utilizationCountManeuversMaintenance 53
scalar OsgEarthNet.uav[39] utilizationCountChargeState 26
scalar OsgEarthNet.uav[39] utilizationCountOverdrawnAfterMission 0
scalar OsgEarthNet.uav[39] utilizationCountIdleState 27
scalar OsgEarthNet.uav[39] utilizationFail 0
scalar OsgEarthNet.uav[39] simulationTime 259200
scalar OsgEarthNet.uav[40] utilizationSecMission 15577.243792213
scalar OsgEarthNet.uav[40] utilizationSecMaintenance 8789.8239768533
scalar OsgEarthNet.uav[40] utilizationSecCharge 88200.483347877
scalar OsgEarthNet.uav[40] utilizationSecIdle 146632.44788306
scalar OsgEarthNet.uav[40] utilizationEnergyMission 76253.410072327
scalar OsgEarthNet.uav[40] utilizationEnergyMaintenance 42288.645469665
scalar OsgEarthNet.uav[40] utilizationEnergyCharge 113732.48565674
scalar OsgEarthNet.uav[40] utilizationEnergyOverdrawMission 0
scalar OsgEarthNet.uav[40] utilizationEnergyOverdrawMaintenance 0
scalar OsgEarthNet.uav[40] utilizationCountMissions 26
scalar OsgEarthNet.uav[40] utilizationCountManeuversMission 471
scalar OsgEarthNet.uav[40] utilizationCountManeuversMaintenance 52
scalar OsgEarthNet.uav[40] utilizationCountChargeState 26
scalar OsgEarthNet.uav[40] utilizationCountOverdrawnAfterMission 0
scalar OsgEarthNet.uav[40] utilizationCountIdleState 26
scalar OsgEarthNet.uav[40] utilizationFail 0
scalar OsgEarthNet.uav[40] simulationTime 259200
scalar OsgEarthNet.uav[41] utilizationSecMission 27653.133773526
scalar OsgEarthNet.uav[41] utilizationSecMaintenance 15863.422981074
scalar OsgEarthNet.uav[41] utilizationSecCharge 167690
scalar OsgEarthNet.uav[41] utilizationSecIdle 47993.4422454
scalar OsgEarthNet.uav[41] utilizationEnergyMission 131920.85884857
scalar OsgEarthNet.uav[41] utilizationEnergyMaintenance 75179.069942474
scalar OsgEarthNet.uav[41] utilizationEnergyCharge 206852.62670898
scalar OsgEarthNet.uav[41] utilizationEnergyOverdrawMission 0
scalar OsgEarthNet.uav[41] utilizationEnergyOverdrawMaintenance 0
scalar OsgEarthNet.uav[41] utilizationCountMissions 53
scalar OsgEarthNet.uav[41] utilizationCountManeuversMission 750
scalar OsgEarthNet.uav[41] utilizationCountManeuversMaintenance 106
scalar OsgEarthNet.uav[41] utilizationCountChargeState 53
scalar OsgEarthNet.uav[41] utilizationCountOverdrawnAfterMission 0
scalar OsgEarthNet.uav[41] utilizationCountIdleState 54
scalar OsgEarthNet.uav[41] utilizationFail 0
scalar OsgEarthNet.uav[41] simulationTime 259200
scalar OsgEarthNet.uav[42] utilizationSecMission 38047.074395973
scalar OsgEarthNet.uav[42] utilizationSecMaintenance 15649.386800088
scalar OsgEarthNet.uav[42] utilizationSecCharge 192791.53380394
scalar OsgEarthNet.uav[42] utilizationSecIdle 12712.004
scalar OsgEarthNet.uav[42] utilizationEnergyMission 183171.86317444
scalar OsgEarthNet.uav[42] utilizationEnergyMaintenance 71815.45231247
scalar OsgEarthNet.uav[42] utilizationEnergyCharge 255270.34863281
scalar OsgEarthNet.uav[42] utilizationEnergyOverdrawMission 0
scalar OsgEarthNet.uav[42] utilizationEnergyOverdrawMaintenance 0
scalar OsgEarthNet.uav[42] utilizationCountMissions 56
scalar OsgEarthNet.uav[42] utilizationCountManeuversMission 1229
scalar OsgEarthNet.uav[42] utilizationCountManeuversMaintenance 112
scalar OsgEarthNet.uav[42] utilizationCountChargeState 56
scalar OsgEarthNet.uav[42] utilizationCountOverdrawnAfterMission 0
scalar OsgEarthNet.uav[42] utilizationCountIdleState 36
scalar OsgEarthNet.uav[42] utilizationFail 0
scalar OsgEarthNet.uav[42] simulationTime 259200
scalar OsgEarthNet.uav[43] utilizationSecMission 20890.002441285
scalar OsgEarthNet.uav[43] utilizationSecMaintenance 11941.35003362
scalar OsgEarthNet.uav[43] utilizationSecCharge 119756.6445251
scalar OsgEarthNet.uav[43] utilizationSecIdle 106612.002
scalar OsgEarthNet.uav[43] utilizationEnergyMission 100668.04360962
scalar OsgEarthNet.uav[43] utilizationEnergyMaintenance 56253.51367569
scalar OsgEarthNet.uav[43] utilizationEnergyCharge 154329.64978027
scalar OsgEarthNet.uav[43] utilizationEnergyOverdrawMission 0
scalar OsgEarthNet.uav[43] utilizationEnergyOverdrawMaintenance 0
scalar OsgEarthNet.uav[43] utilizationCountMissions 35
scalar OsgEarthNet.uav[43] utilizationCountManeuversMission 628
scalar OsgEarthNet.uav[43] utilizationCountManeuversMaintenance 70
scalar OsgEarthNet.uav[43] utilizationCountChargeState 35
scalar OsgEarthNet.uav[43] utilizationCountOverdrawnAfterMission 0
scalar OsgEarthNet.uav[43] utilizationCountIdleState 35
scalar OsgEarthNet.uav[43] utilizationFail 0
scalar OsgEarthNet.uav[43] simulationTime 259200
scalar OsgEarthNet.uav[44] utilizationSecMission 28962.576696116
scalar OsgEarthNet.uav[44] utilizationSecMaintenance 15886.669042605
scalar OsgEarthNet.uav[44] utilizationSecCharge 173213.43717945
scalar OsgEarthNet.uav[44] utilizationSecIdle 41137.316081831
scalar OsgEarthNet.uav[44] utilizationEnergyMission 138831.8613472
scalar OsgEarthNet.uav[44] utilizationEnergyMaintenance 76299.089221954
scalar OsgEarthNet.uav[44] utilizationEnergyCharge 215304.00708008
scalar OsgEarthNet.uav[44] utilizationEnergyOverdrawMission 0
scalar OsgEarthNet.uav[44] utilizationEnergyOverdrawMaintenance 0
scalar OsgEarthNet.uav[44] utilizationCountMissions 54
scalar OsgEarthNet.uav[44] utilizationCountManeuversMission 735
scalar OsgEarthNet.uav[44] utilizationCountManeuversMaintenance 108
scalar OsgEarthNet.uav[44] utilizationCountChargeState 54
scalar OsgEarthNet.uav[44] utilizationCountOverdrawnAfterMission 0
scalar OsgEarthNet.uav[44] utilizationCountIdleState 54
scalar OsgEarthNet.uav[44] utilizationFail 0
scalar OsgEarthNet.uav[44] simulationTime 259200
scalar OsgEarthNet.uav[45] utilizationSecMission 38764.769950445
scalar OsgEarthNet.uav[45] utilizationSecMaintenance 14702.375183846
scalar OsgEarthNet.uav[45] utilizationSecCharge 197230.85386571
scalar OsgEarthNet.uav[45] utilizationSecIdle 8502
scalar OsgEarthNet.uav[45] utilizationEnergyMission 187841.72381474
scalar OsgEarthNet.uav[45] utilizationEnergyMaintenance 68521.163345337
scalar OsgEarthNet.uav[45] utilizationEnergyCharge 259351.44335938
scalar OsgEarthNet.uav[45] utilizationEnergyOverdrawMission 0
scalar OsgEarthNet.uav[45] utilizationEnergyOverdrawMaintenance 0
scalar OsgEarthNet.uav[45] utilizationCountMissions 56
scalar OsgEarthNet.uav[45] utilizationCountManeuversMission 1284
scalar OsgEarthNet.uav[45] utilizationCountManeuversMaintenance 111
scalar OsgEarthNet.uav[45] utilizationCountChargeState 56
scalar OsgEarthNet.uav[45] utilizationCountOverdrawnAfterMission 0
scalar OsgEarthNet.uav[45] utilizationCountIdleState 44
scalar OsgEarthNet.uav[45] utilizationFail 0
scalar OsgEarthNet.uav[45] simulationTime 259200
scalar OsgEarthNet.uav[46] utilizationSecMission 38166.322583667
scalar OsgEarthNet.uav[46] utilizationSecMaintenance 16360.9400544
scalar OsgEarthNet.uav[46] utilizationSecCharge 195020.73636193
scalar OsgEarthNet.uav[46] utilizationSecIdle 9652
scalar OsgEarthNet.uav[46] utilizationEnergyMission 185011.65555573
scalar OsgEarthNet.uav[46] utilizationEnergyMaintenance 75198.204673767
scalar OsgEarthNet.uav[46] utilizationEnergyCharge 258628.8807373
scalar OsgEarthNet.uav[46] utilizationEnergyOverdrawMission 0
scalar OsgEarthNet.uav[46] utilizationEnergyOverdrawMaintenance 0
scalar OsgEarthNet.uav[46] utilizationCountMissions 57
scalar OsgEarthNet.uav[46] utilizationCountManeuversMission 1270
scalar OsgEarthNet.uav[46] utilizationCountManeuversMaintenance 113
scalar OsgEarthNet.uav[46] utilizationCountChargeState 57
scalar OsgEarthNet.uav[46] utilizationCountOverdrawnAfterMission 0
scalar OsgEarthNet.uav[46] utilizationCountIdleState 38
scalar OsgEarthNet.uav[46] utilizationFail 0
scalar OsgEarthNet.uav[46] simulationTime 259200
scalar OsgEarthNet.uav[47] utilizationSecMission 29750.546208345
scalar OsgEarthNet.uav[47] utilizationSecMaintenance 15525.065347635
scalar OsgEarthNet.uav[47] utilizationSecCharge 171568.58991637
scalar OsgEarthNet.uav[47] utilizationSecIdle 42355.79752765
scalar OsgEarthNet.uav[47] utilizationEnergyMission 140679.58835602
scalar OsgEarthNet.uav[47] utilizationEnergyMaintenance 74377.092376709
scalar OsgEarthNet.uav[47] utilizationEnergyCharge 212293.22583008
scalar OsgEarthNet.uav[47] utilizationEnergyOverdrawMission 0
scalar OsgEarthNet.uav[47] utilizationEnergyOverdrawMaintenance 0
scalar OsgEarthNet.uav[47] utilizationCountMissions 55
scalar OsgEarthNet.uav[47] utilizationCountManeuversMission 717
scalar OsgEarthNet.uav[47] utilizationCountManeuversMaintenance 110
scalar OsgEarthNet.uav[47] utilizationCountChargeState 55
scalar OsgEarthNet.uav[47] utilizationCountOverdrawnAfterMission 0
scalar OsgEarthNet.uav[47] utilizationCountIdleState 55
scalar OsgEarthNet.uav[47] utilizationFail 0
scalar OsgEarthNet.uav[47] simulationTime 259200
scalar OsgEarthNet.uav[48] utilizationSecMission 37265.365920204
scalar OsgEarthNet.uav[48] utilizationSecMaintenance 16180.608794329
scalar OsgEarthNet.uav[48] utilizationSecCharge 194463.98173805
scalar OsgEarthNet.uav[48] utilizationSecIdle 11290.042547415
scalar OsgEarthNet.uav[48] utilizationEnergyMission 182170.04159164
scalar OsgEarthNet.uav[48] utilizationEnergyMaintenance 75049.899978638
scalar OsgEarthNet.uav[48] utilizationEnergyCharge 258221.81542969
scalar OsgEarthNet.uav[48] utilizationEnergyOverdrawMission 0
scalar OsgEarthNet.uav[48] utilizationEnergyOverdrawMaintenance 0
scalar OsgEarthNet.uav[48] utilizationCountMissions 56
scalar OsgEarthNet.uav[48] utilizationCountManeuversMission 1215
scalar OsgEarthNet.uav[48] utilizationCountManeuversMaintenance 112
scalar OsgEarthNet.uav[48] utilizationCountChargeState 56
scalar OsgEarthNet.uav[48] utilizationCountOverdrawnAfterMission 0
scalar OsgEarthNet.uav[48] utilizationCountIdleState 33
scalar OsgEarthNet.uav[48] utilizationFail 0
scalar OsgEarthNet.uav[48] simulationTime 259200
scalar OsgEarthNet.uav[49] utilizationSecMission 22800.776557536
scalar OsgEarthNet.uav[49] utilizationSecMaintenance 13097.001892926
scalar OsgEarthNet.uav[49] utilizationSecCharge 131530.22054954
scalar OsgEarthNet.uav[49] utilizationSecIdle 91772
scalar OsgEarthNet.uav[49] utilizationEnergyMission 108950.02555084
scalar OsgEarthNet.uav[49] utilizationEnergyMaintenance 61547.07346344
scalar OsgEarthNet.uav[49] utilizationEnergyCharge 170183.89453125
scalar OsgEarthNet.uav[49] utilizationEnergyOverdrawMission 0
scalar OsgEarthNet.uav[49] utilizationEnergyOverdrawMaintenance 0
scalar OsgEarthNet.uav[49] utilizationCountMissions 38
scalar OsgEarthNet.uav[49] utilizationCountManeuversMission 710
scalar OsgEarthNet.uav[49] utilizationCountManeuversMaintenance 76
scalar OsgEarthNet.uav[49] utilizationCountChargeState 38
scalar OsgEarthNet.uav[49] utilizationCountOverdrawnAfterMission 0
scalar OsgEarthNet.uav[49] utilizationCountIdleState 38
scalar OsgEarthNet.uav[49] utilizationFail 0
scalar OsgEarthNet.uav[49] simulationTime 259200
scalar OsgEarthNet.uav[50] utilizationSecMission 21320.885632615
scalar OsgEarthNet.uav[50] utilizationSecMaintenance 11838.778481629
scalar OsgEarthNet.uav[50] utilizationSecCharge 121975.69045524
scalar OsgEarthNet.uav[50] utilizationSecIdle 104064.64443052
scalar OsgEarthNet.uav[50] utilizationEnergyMission 101158.98848724
scalar OsgEarthNet.uav[50] utilizationEnergyMaintenance 56284.732650757
scalar OsgEarthNet.uav[50] utilizationEnergyCharge 158251.07421875
scalar OsgEarthNet.uav[50] utilizationEnergyOverdrawMission 0
scalar OsgEarthNet.uav[50] utilizationEnergyOverdrawMaintenance 0
scalar OsgEarthNet.uav[50] utilizationCountMissions 35
scalar OsgEarthNet.uav[50] utilizationCountManeuversMission 619
scalar OsgEarthNet.uav[50] utilizationCountManeuversMaintenance 70
scalar OsgEarthNet.uav[50] utilizationCountChargeState 35
scalar OsgEarthNet.uav[50] utilizationCountOverdrawnAfterMission 0
scalar OsgEarthNet.uav[50] utilizationCountIdleState 35
scalar OsgEarthNet.uav[50] utilizationFail 0
scalar OsgEarthNet.uav[50] simulationTime 259200
scalar OsgEarthNet.uav[51] utilizationSecMission 29862.12921922
scalar OsgEarthNet.uav[51] utilizationSecMaintenance 15623.164081743
scalar OsgEarthNet.uav[51] utilizationSecCharge 169970
scalar OsgEarthNet.uav[51] utilizationSecIdle 43744.705699036
scalar OsgEarthNet.uav[51] utilizationEnergyMission 142909.82860565
scalar OsgEarthNet.uav[51] utilizationEnergyMaintenance 73933.36244314
scalar OsgEarthNet.uav[51] utilizationEnergyCharge 212685.2434082
scalar OsgEarthNet.uav[51] utilizationEnergyOverdrawMission 0
scalar OsgEarthNet.uav[51] utilizationEnergyOverdrawMaintenance 0
scalar OsgEarthNet.uav[51] utilizationCountMissions 53
scalar OsgEarthNet.uav[51] utilizationCountManeuversMission 812
scalar OsgEarthNet.uav[51] utilizationCountManeuversMaintenance 106
scalar OsgEarthNet.uav[51] utilizationCountChargeState 52
scalar OsgEarthNet.uav[51] utilizationCountOverdrawnAfterMission 0
scalar OsgEarthNet.uav[51] utilizationCountIdleState 53
scalar OsgEarthNet.uav[51] utilizationFail 0
scalar OsgEarthNet.uav[51] simulationTime 259200
scalar OsgEarthNet.uav[52] utilizationSecMission 37102.790059103
scalar OsgEarthNet.uav[52] utilizationSecMaintenance 16995.208940897
scalar OsgEarthNet.uav[52] utilizationSecCharge 197230
scalar OsgEarthNet.uav[52] utilizationSecIdle 7872
scalar OsgEarthNet.uav[52] utilizationEnergyMission 184049.0361215
scalar OsgEarthNet.uav[52] utilizationEnergyMaintenance 79295.745979309
scalar OsgEarthNet.uav[52] utilizationEnergyCharge 260540.70996094
scalar OsgEarthNet.uav[52] utilizationEnergyOverdrawMission 0
scalar OsgEarthNet.uav[52] utilizationEnergyOverdrawMaintenance 0
scalar OsgEarthNet.uav[52] utilizationCountMissions 57
scalar OsgEarthNet.uav[52] utilizationCountManeuversMission 1346
scalar OsgEarthNet.uav[52] utilizationCountManeuversMaintenance 115
scalar OsgEarthNet.uav[52] utilizationCountChargeState 57
scalar OsgEarthNet.uav[52] utilizationCountOverdrawnAfterMission 0
scalar OsgEarthNet.uav[52] utilizationCountIdleState 40
scalar OsgEarthNet.uav[52] utilizationFail 0
scalar OsgEarthNet.uav[52] simulationTime 259200
scalar OsgEarthNet.uav[53] utilizationSecMission 20359.119249954
scalar OsgEarthNet.uav[53] utilizationSecMaintenance 11868.62314521
scalar OsgEarthNet.uav[53] utilizationSecCharge 118980
scalar OsgEarthNet.uav[53] utilizationSecIdle 107992.25660484
scalar OsgEarthNet.uav[53] utilizationEnergyMission 98012.91519928
scalar OsgEarthNet.uav[53] utilizationEnergyMaintenance 56447.360282898
scalar OsgEarthNet.uav[53] utilizationEnergyCharge 153131.52050781
scalar OsgEarthNet.uav[53] utilizationEnergyOverdrawMission 0
scalar OsgEarthNet.uav[53] utilizationEnergyOverdrawMaintenance 0
scalar OsgEarthNet.uav[53] utilizationCountMissions 34
scalar OsgEarthNet.uav[53] utilizationCountManeuversMission 632
scalar OsgEarthNet.uav[53] utilizationCountManeuversMaintenance 68
scalar OsgEarthNet.uav[53] utilizationCountChargeState 34
scalar OsgEarthNet.uav[53] utilizationCountOverdrawnAfterMission 0
scalar OsgEarthNet.uav[53] utilizationCountIdleState 35
scalar OsgEarthNet.uav[53] utilizationFail 0
scalar OsgEarthNet.uav[53] simulationTime 259200
scalar OsgEarthNet.uav[54] utilizationSecMission 29419.077230147
scalar OsgEarthNet.uav[54] utilizationSecMaintenance 16186.5320512
scalar OsgEarthNet.uav[54] utilizationSecCharge 171684.58949745
scalar OsgEarthNet.uav[54] utilizationSecIdle 41909.800221201
scalar OsgEarthNet.uav[54] utilizationEnergyMission 142496.37509918
scalar OsgEarthNet.uav[54] utilizationEnergyMaintenance 77069.656867981
scalar OsgEarthNet.uav[54] utilizationEnergyCharge 217773.3996582
scalar OsgEarthNet.uav[54] utilizationEnergyOverdrawMission 0
scalar OsgEarthNet.uav[54] utilizationEnergyOverdrawMaintenance 0
scalar OsgEarthNet.uav[54] utilizationCountMissions 52
scalar OsgEarthNet.uav[54] utilizationCountManeuversMission 901
scalar OsgEarthNet.uav[54] utilizationCountManeuversMaintenance 104
scalar OsgEarthNet.uav[54] utilizationCountChargeState 52
scalar OsgEarthNet.uav[54] utilizationCountOverdrawnAfterMission 0
scalar OsgEarthNet.uav[54] utilizationCountIdleState 52
scalar OsgEarthNet.uav[54] utilizationFail 0
scalar OsgEarthNet.uav[54] simulationTime 259200
scalar OsgEarthNet.uav[55] utilizationSecMission 38857.190014166
scalar OsgEarthNet.uav[55] utilizationSecMaintenance 15783.794838704
scalar OsgEarthNet.uav[55] utilizationSecCharge 195677.01414713
scalar OsgEarthNet.uav[55] utilizationSecIdle 8882
scalar OsgEarthNet.uav[55] utilizationEnergyMission 185977.40091324
scalar OsgEarthNet.uav[55] utilizationEnergyMaintenance 73558.87342453
scalar OsgEarthNet.uav[55] utilizationEnergyCharge 259267.35632324
scalar OsgEarthNet.uav[55] utilizationEnergyOverdrawMission 0
scalar OsgEarthNet.uav[55] utilizationEnergyOverdrawMaintenance 0
scalar OsgEarthNet.uav[55] utilizationCountMissions 57
scalar OsgEarthNet.uav[55] utilizationCountManeuversMission 1159
scalar OsgEarthNet.uav[55] utilizationCountManeuversMaintenance 113
scalar OsgEarthNet.uav[55] utilizationCountChargeState 57
scalar OsgEarthNet.uav[55] utilizationCountOverdrawnAfterMission 0
scalar OsgEarthNet.uav[55] utilizationCountIdleState 34
scalar OsgEarthNet.uav[55] utilizationFail 0
scalar OsgEarthNet.uav[55] simulationTime 259200
scalar OsgEarthNet.uav[56] utilizationSecMission 17415.884411973
scalar OsgEarthNet.uav[56] utilizationSecMaintenance 11995.648385968
scalar OsgEarthNet.uav[56] utilizationSecCharge 108716.32638032
scalar OsgEarthNet.uav[56] utilizationSecIdle 121072.13982174
scalar OsgEarthNet.uav[56] utilizationEnergyMission 85896.184635162
scalar OsgEarthNet.uav[56] utilizationEnergyMaintenance 56647.910614014
scalar OsgEarthNet.uav[56] utilizationEnergyCharge 140782.23828125
scalar OsgEarthNet.uav[56] utilizationEnergyOverdrawMission 0
scalar OsgEarthNet.uav[56] utilizationEnergyOverdrawMaintenance 0
scalar OsgEarthNet.uav[56] utilizationCountMissions 31
scalar OsgEarthNet.uav[56] utilizationCountManeuversMission 632
scalar OsgEarthNet.uav[56] utilizationCountManeuversMaintenance 62
scalar OsgEarthNet.uav[56] utilizationCountChargeState 31
scalar OsgEarthNet.uav[56] utilizationCountOverdrawnAfterMission 0
scalar OsgEarthNet.uav[56] utilizationCountIdleState 31
scalar OsgEarthNet.uav[56] utilizationFail 0
scalar OsgEarthNet.uav[56] simulationTime 259200
scalar OsgEarthNet.uav[57] utilizationSecMission 29754.504541593
scalar OsgEarthNet.uav[57] utilizationSecMaintenance 16278.342668646
scalar OsgEarthNet.uav[57] utilizationSecCharge 173543.48361177
scalar OsgEarthNet.uav[57] utilizationSecIdle 39623.668177988
scalar OsgEarthNet.uav[57] utilizationEnergyMission 140298.50177002
scalar OsgEarthNet.uav[57] utilizationEnergyMaintenance 77163.851642609
scalar OsgEarthNet.uav[57] utilizationEnergyCharge 217133.0871582
scalar OsgEarthNet.uav[57] utilizationEnergyOverdrawMission 0
scalar OsgEarthNet.uav[57] utilizationEnergyOverdrawMaintenance 0
scalar OsgEarthNet.uav[57] utilizationCountMissions 54
scalar OsgEarthNet.uav[57] utilizationCountManeuversMission 766
scalar OsgEarthNet.uav[57] utilizationCountManeuversMaintenance 108
scalar OsgEarthNet.uav[57] utilizationCountChargeState 54
scalar OsgEarthNet.uav[57] utilizationCountOverdrawnAfterMission 0
scalar OsgEarthNet.uav[57] utilizationCountIdleState 54
scalar OsgEarthNet.uav[57] utilizationFail 0
scalar OsgEarthNet.uav[57] simulationTime 259200
scalar OsgEarthNet.uav[58] utilizationSecMission 37498.701100921
scalar OsgEarthNet.uav[58] utilizationSecMaintenance 16232.394686124
scalar OsgEarthNet.uav[58] utilizationSecCharge 195240
scalar OsgEarthNet.uav[58] utilizationSecIdle 10228.903212955
scalar OsgEarthNet.uav[58] utilizationEnergyMission 183664.24569702
scalar OsgEarthNet.uav[58] utilizationEnergyMaintenance 75445.724193573
scalar OsgEarthNet.uav[58] utilizationEnergyCharge 257886.35546875
scalar OsgEarthNet.uav[58] utilizationEnergyOverdrawMission 0
scalar OsgEarthNet.uav[58] utilizationEnergyOverdrawMaintenance 0
scalar OsgEarthNet.uav[58] utilizationCountMissions 56
scalar OsgEarthNet.uav[58] utilizationCountManeuversMission 1254
scalar OsgEarthNet.uav[58] utilizationCountManeuversMaintenance 112
scalar OsgEarthNet.uav[58] utilizationCountChargeState 56
scalar OsgEarthNet.uav[58] utilizationCountOverdrawnAfterMission 0
scalar OsgEarthNet.uav[58] utilizationCountIdleState 39
scalar OsgEarthNet.uav[58] utilizationFail 0
scalar OsgEarthNet.uav[58] simulationTime 259200
scalar OsgEarthNet.uav[59] utilizationSecMission 20349.377288704
scalar OsgEarthNet.uav[59] utilizationSecMaintenance 11496.093178119
scalar OsgEarthNet.uav[59] utilizationSecCharge 117627.37949086
scalar OsgEarthNet.uav[59] utilizationSecIdle 109727.14904231
scalar OsgEarthNet.uav[59] utilizationEnergyMission 97153.102741241
scalar OsgEarthNet.uav[59] utilizationEnergyMaintenance 54497.381473541
scalar OsgEarthNet.uav[59] utilizationEnergyCharge 151166.03613281
scalar OsgEarthNet.uav[59] utilizationEnergyOverdrawMission 0
scalar OsgEarthNet.uav[59] utilizationEnergyOverdrawMaintenance 0
scalar OsgEarthNet.uav[59] utilizationCountMissions 34
scalar OsgEarthNet.uav[59] utilizationCountManeuversMission 627
scalar OsgEarthNet.uav[59] utilizationCountManeuversMaintenance 68
scalar OsgEarthNet.uav[59] utilizationCountChargeState 34
scalar OsgEarthNet.uav[59] utilizationCountOverdrawnAfterMission 0
scalar OsgEarthNet.uav[59] utilizationCountIdleState 34
scalar OsgEarthNet.uav[59] utilizationFail 0
scalar OsgEarthNet.uav[59] simulationTime 259200
scalar OsgEarthNet.uav[60] utilizationSecMission 18025.626373223
scalar OsgEarthNet.uav[60] utilizationSecMaintenance 12651.470552975
scalar OsgEarthNet.uav[60] utilizationSecCharge 114220.8850738
scalar OsgEarthNet.uav[60] utilizationSecIdle 114302.017
scalar OsgEarthNet.uav[60] utilizationEnergyMission 89008.262504578
scalar OsgEarthNet.uav[60] utilizationEnergyMaintenance 59664.747570038
scalar OsgEarthNet.uav[60] utilizationEnergyCharge 147985.51928711
scalar OsgEarthNet.uav[60] utilizationEnergyOverdrawMission 0
scalar OsgEarthNet.uav[60] utilizationEnergyOverdrawMaintenance 0
scalar OsgEarthNet.uav[60] utilizationCountMissions 33
scalar OsgEarthNet.uav[60] utilizationCountManeuversMission 667
scalar OsgEarthNet.uav[60] utilizationCountManeuversMaintenance 66
scalar OsgEarthNet.uav[60] utilizationCountChargeState 33
scalar OsgEarthNet.uav[60] utilizationCountOverdrawnAfterMission 0
scalar OsgEarthNet.uav[60] utilizationCountIdleState 33
scalar OsgEarthNet.uav[60] utilizationFail 0
scalar OsgEarthNet.uav[60] simulationTime 259200
scalar OsgEarthNet.uav[61] utilizationSecMission 28423.004212285
scalar OsgEarthNet.uav[61] utilizationSecMaintenance 15690.820725912
scalar OsgEarthNet.uav[61] utilizationSecCharge 168425.11626661
scalar OsgEarthNet.uav[61] utilizationSecIdle 46661.057795193
scalar OsgEarthNet.uav[61] utilizationEnergyMission 136181.1415329
scalar OsgEarthNet.uav[61] utilizationEnergyMaintenance 74722.133411407
scalar OsgEarthNet.uav[61] utilizationEnergyCharge 208299.95056152
scalar OsgEarthNet.uav[61] utilizationEnergyOverdrawMission 0
scalar OsgEarthNet.uav[61] utilizationEnergyOverdrawMaintenance 0
scalar OsgEarthNet.uav[61] utilizationCountMissions 54
scalar OsgEarthNet.uav[61] utilizationCountManeuversMission 755
scalar OsgEarthNet.uav[61] utilizationCountManeuversMaintenance 108
scalar OsgEarthNet.uav[61] utilizationCountChargeState 54
scalar OsgEarthNet.uav[61] utilizationCountOverdrawnAfterMission 0
scalar OsgEarthNet.uav[61] utilizationCountIdleState 54
scalar OsgEarthNet.uav[61] utilizationFail 0
scalar OsgEarthNet.uav[61] simulationTime 259200
scalar OsgEarthNet.uav[62] utilizationSecMission 38332.465955057
scalar OsgEarthNet.uav[62] utilizationSecMaintenance 15738.95945235
scalar OsgEarthNet.uav[62] utilizationSecCharge 195480
scalar OsgEarthNet.uav[62] utilizationSecIdle 9648.5735925931
scalar OsgEarthNet.uav[62] utilizationEnergyMission 186718.88945078
scalar OsgEarthNet.uav[62] utilizationEnergyMaintenance 71778.79668808
scalar OsgEarthNet.uav[62] utilizationEnergyCharge 256768.03027344
scalar OsgEarthNet.uav[62] utilizationEnergyOverdrawMission 0
scalar OsgEarthNet.uav[62] utilizationEnergyOverdrawMaintenance 0
scalar OsgEarthNet.uav[62] utilizationCountMissions 56
scalar OsgEarthNet.uav[62] utilizationCountManeuversMission 1255
scalar OsgEarthNet.uav[62] utilizationCountManeuversMaintenance 113
scalar OsgEarthNet.uav[62] utilizationCountChargeState 56
scalar OsgEarthNet.uav[62] utilizationCountOverdrawnAfterMission 0
scalar OsgEarthNet.uav[62] utilizationCountIdleState 37
scalar OsgEarthNet.uav[62] utilizationFail 0
scalar OsgEarthNet.uav[62] simulationTime 259200
scalar OsgEarthNet.uav[63] utilizationSecMission 20179.010174875
scalar OsgEarthNet.uav[63] utilizationSecMaintenance 11969.317340439
scalar OsgEarthNet.uav[63] utilizationSecCharge 118890
scalar OsgEarthNet.uav[63] utilizationSecIdle 108161.67148469
scalar OsgEarthNet.uav[63] utilizationEnergyMission 97681.822616577
scalar OsgEarthNet.uav[63] utilizationEnergyMaintenance 56604.672660827
scalar OsgEarthNet.uav[63] utilizationEnergyCharge 152715.36962891
scalar OsgEarthNet.uav[63] utilizationEnergyOverdrawMission 0
scalar OsgEarthNet.uav[63] utilizationEnergyOverdrawMaintenance 0
scalar OsgEarthNet.uav[63] utilizationCountMissions 34
scalar OsgEarthNet.uav[63] utilizationCountManeuversMission 640
scalar OsgEarthNet.uav[63] utilizationCountManeuversMaintenance 68
scalar OsgEarthNet.uav[63] utilizationCountChargeState 34
scalar OsgEarthNet.uav[63] utilizationCountOverdrawnAfterMission 0
scalar OsgEarthNet.uav[63] utilizationCountIdleState 35
scalar OsgEarthNet.uav[63] utilizationFail 0
scalar OsgEarthNet.uav[63] simulationTime 259200
scalar OsgEarthNet.uav[64] utilizationSecMission 29730.308283902
scalar OsgEarthNet.uav[64] utilizationSecMaintenance 16587.882414244
scalar OsgEarthNet.uav[64] utilizationSecCharge 173670
scalar OsgEarthNet.uav[64] utilizationSecIdle 39211.808301853
scalar OsgEarthNet.uav[64] utilizationEnergyMission 142610.94386673
scalar OsgEarthNet.uav[64] utilizationEnergyMaintenance 78228.476656067
scalar OsgEarthNet.uav[64] utilizationEnergyCharge 216090.61669922
scalar OsgEarthNet.uav[64] utilizationEnergyOverdrawMission 0
scalar OsgEarthNet.uav[64] utilizationEnergyOverdrawMaintenance 0
scalar OsgEarthNet.uav[64] utilizationCountMissions 55
scalar OsgEarthNet.uav[64] utilizationCountManeuversMission 823
scalar OsgEarthNet.uav[64] utilizationCountManeuversMaintenance 110
scalar OsgEarthNet.uav[64] utilizationCountChargeState 54
scalar OsgEarthNet.uav[64] utilizationCountOverdrawnAfterMission 0
scalar OsgEarthNet.uav[64] utilizationCountIdleState 55
scalar OsgEarthNet.uav[64] utilizationFail 0
scalar OsgEarthNet.uav[64] simulationTime 259200
scalar OsgEarthNet.uav[65] utilizationSecMission 38624.322224787
scalar OsgEarthNet.uav[65] utilizationSecMaintenance 15519.409733908
scalar OsgEarthNet.uav[65] utilizationSecCharge 194984.26704131
[...]
scalar OsgEarthNet.uav[69] utilizationCountMissions 37
scalar OsgEarthNet.uav[69] utilizationCountManeuversMission 693
scalar OsgEarthNet.uav[69] utilizationCountManeuversMaintenance 74
scalar OsgEarthNet.uav[69] utilizationCountChargeState 36
scalar OsgEarthNet.uav[69] utilizationCountOverdrawnAfterMission 0
scalar OsgEarthNet.uav[69] utilizationCountIdleState 37
scalar OsgEarthNet.uav[69] utilizationFail 0
scalar OsgEarthNet.uav[69] simulationTime 259200
scalar OsgEarthNet.uav[70] utilizationSecMission 24566.655722288
scalar OsgEarthNet.uav[70] utilizationSecMaintenance 13439.08430943
scalar OsgEarthNet.uav[70] utilizationSecCharge 138442.25896828
scalar OsgEarthNet.uav[70] utilizationSecIdle 82752
scalar OsgEarthNet.uav[70] utilizationEnergyMission 116905.16466522
scalar OsgEarthNet.uav[70] utilizationEnergyMaintenance 63329.28326416
scalar OsgEarthNet.uav[70] utilizationEnergyCharge 178770.27783203
scalar OsgEarthNet.uav[70] utilizationEnergyOverdrawMission 0
scalar OsgEarthNet.uav[70] utilizationEnergyOverdrawMaintenance 0
scalar OsgEarthNet.uav[70] utilizationCountMissions 40
scalar OsgEarthNet.uav[70] utilizationCountManeuversMission 724
scalar OsgEarthNet.uav[70] utilizationCountManeuversMaintenance 79
scalar OsgEarthNet.uav[70] utilizationCountChargeState 40
scalar OsgEarthNet.uav[70] utilizationCountOverdrawnAfterMission 0
scalar OsgEarthNet.uav[70] utilizationCountIdleState 40
scalar OsgEarthNet.uav[70] utilizationFail 0
scalar OsgEarthNet.uav[70] simulationTime 259200
scalar OsgEarthNet.uav[71] utilizationSecMission 28578.189331422
scalar OsgEarthNet.uav[71] utilizationSecMaintenance 16411.302394029
scalar OsgEarthNet.uav[71] utilizationSecCharge 172328.50227455
scalar OsgEarthNet.uav[71] utilizationSecIdle 41882.005
scalar OsgEarthNet.uav[71] utilizationEnergyMission 137605.29380417
scalar OsgEarthNet.uav[71] utilizationEnergyMaintenance 78719.964344025
scalar OsgEarthNet.uav[71] utilizationEnergyCharge 213506.14404297
scalar OsgEarthNet.uav[71] utilizationEnergyOverdrawMission 0
scalar OsgEarthNet.uav[71] utilizationEnergyOverdrawMaintenance 0
scalar OsgEarthNet.uav[71] utilizationCountMissions 55
scalar OsgEarthNet.uav[71] utilizationCountManeuversMission 775
scalar OsgEarthNet.uav[71] utilizationCountManeuversMaintenance 110
scalar OsgEarthNet.uav[71] utilizationCountChargeState 55
scalar OsgEarthNet.uav[71] utilizationCountOverdrawnAfterMission 0
scalar OsgEarthNet.uav[71] utilizationCountIdleState 55
scalar OsgEarthNet.uav[71] utilizationFail 0
scalar OsgEarthNet.uav[71] simulationTime 259200
scalar OsgEarthNet.uav[72] utilizationSecMission 38451.244965571
scalar OsgEarthNet.uav[72] utilizationSecMaintenance 15439.893024694
scalar OsgEarthNet.uav[72] utilizationSecCharge 195626.85700973
scalar OsgEarthNet.uav[72] utilizationSecIdle 9682.004
scalar OsgEarthNet.uav[72] utilizationEnergyMission 189253.70299149
scalar OsgEarthNet.uav[72] utilizationEnergyMaintenance 71446.80960083
scalar OsgEarthNet.uav[72] utilizationEnergyCharge 259806.13378906
scalar OsgEarthNet.uav[72] utilizationEnergyOverdrawMission 0
scalar OsgEarthNet.uav[72] utilizationEnergyOverdrawMaintenance 0
scalar OsgEarthNet.uav[72] utilizationCountMissions 56
scalar OsgEarthNet.uav[72] utilizationCountManeuversMission 1209
scalar OsgEarthNet.uav[72] utilizationCountManeuversMaintenance 112
scalar OsgEarthNet.uav[72] utilizationCountChargeState 56
scalar OsgEarthNet.uav[72] utilizationCountOverdrawnAfterMission 0
scalar OsgEarthNet.uav[72] utilizationCountIdleState 35
scalar OsgEarthNet.uav[72] utilizationFail 0
scalar OsgEarthNet.uav[72] simulationTime 259200
scalar OsgEarthNet.uav[73] utilizationSecMission 17074.743181892
scalar OsgEarthNet.uav[73] utilizationSecMaintenance 12501.407663139
scalar OsgEarthNet.uav[73] utilizationSecCharge 112790
scalar OsgEarthNet.uav[73] utilizationSecIdle 116833.84815497
scalar OsgEarthNet.uav[73] utilizationEnergyMission 83445.04013443
scalar OsgEarthNet.uav[73] utilizationEnergyMaintenance 59420.770458221
scalar OsgEarthNet.uav[73] utilizationEnergyCharge 145472.84521484
scalar OsgEarthNet.uav[73] utilizationEnergyOverdrawMission 0
scalar OsgEarthNet.uav[73] utilizationEnergyOverdrawMaintenance 0
scalar OsgEarthNet.uav[73] utilizationCountMissions 32
scalar OsgEarthNet.uav[73] utilizationCountManeuversMission 650
scalar OsgEarthNet.uav[73] utilizationCountManeuversMaintenance 64
scalar OsgEarthNet.uav[73] utilizationCountChargeState 32
scalar OsgEarthNet.uav[73] utilizationCountOverdrawnAfterMission 0
scalar OsgEarthNet.uav[73] utilizationCountIdleState 33
scalar OsgEarthNet.uav[73] utilizationFail 0
scalar OsgEarthNet.uav[73] simulationTime 259200
scalar OsgEarthNet.uav[74] utilizationSecMission 29677.895582125
scalar OsgEarthNet.uav[74] utilizationSecMaintenance 16608.225107693
scalar OsgEarthNet.uav[74] utilizationSecCharge 176532.91432451
scalar OsgEarthNet.uav[74] utilizationSecIdle 36380.963985674
scalar OsgEarthNet.uav[74] utilizationEnergyMission 140267.61615753
scalar OsgEarthNet.uav[74] utilizationEnergyMaintenance 79206.194042206
scalar OsgEarthNet.uav[74] utilizationEnergyCharge 219136.92749023
scalar OsgEarthNet.uav[74] utilizationEnergyOverdrawMission 0
scalar OsgEarthNet.uav[74] utilizationEnergyOverdrawMaintenance 0
scalar OsgEarthNet.uav[74] utilizationCountMissions 56
scalar OsgEarthNet.uav[74] utilizationCountManeuversMission 765
scalar OsgEarthNet.uav[74] utilizationCountManeuversMaintenance 112
scalar OsgEarthNet.uav[74] utilizationCountChargeState 56
scalar OsgEarthNet.uav[74] utilizationCountOverdrawnAfterMission 0
scalar OsgEarthNet.uav[74] utilizationCountIdleState 56
scalar OsgEarthNet.uav[74] utilizationFail 0
scalar OsgEarthNet.uav[74] simulationTime 259200
scalar OsgEarthNet.uav[75] utilizationSecMission 37543.584666375
scalar OsgEarthNet.uav[75] utilizationSecMaintenance 16493.100947267
scalar OsgEarthNet.uav[75] utilizationSecCharge 195344.09377244
scalar OsgEarthNet.uav[75] utilizationSecIdle 9819.2196139157
scalar OsgEarthNet.uav[75] utilizationEnergyMission 183725.84180832
scalar OsgEarthNet.uav[75] utilizationEnergyMaintenance 75134.208721161
scalar OsgEarthNet.uav[75] utilizationEnergyCharge 257484.49414062
scalar OsgEarthNet.uav[75] utilizationEnergyOverdrawMission 0
scalar OsgEarthNet.uav[75] utilizationEnergyOverdrawMaintenance 0
scalar OsgEarthNet.uav[75] utilizationCountMissions 57
scalar OsgEarthNet.uav[75] utilizationCountManeuversMission 1341
scalar OsgEarthNet.uav[75] utilizationCountManeuversMaintenance 114
scalar OsgEarthNet.uav[75] utilizationCountChargeState 57
scalar OsgEarthNet.uav[75] utilizationCountOverdrawnAfterMission 0
scalar OsgEarthNet.uav[75] utilizationCountIdleState 41
scalar OsgEarthNet.uav[75] utilizationFail 0
scalar OsgEarthNet.uav[75] simulationTime 259200
scalar OsgEarthNet.uav[76] utilizationSecMission 18564.376068062
scalar OsgEarthNet.uav[76] utilizationSecMaintenance 14599.655409462
scalar OsgEarthNet.uav[76] utilizationSecCharge 125330
scalar OsgEarthNet.uav[76] utilizationSecIdle 100705.96752248
scalar OsgEarthNet.uav[76] utilizationEnergyMission 91024.736415863
scalar OsgEarthNet.uav[76] utilizationEnergyMaintenance 69347.53622055
scalar OsgEarthNet.uav[76] utilizationEnergyCharge 161012.87451172
scalar OsgEarthNet.uav[76] utilizationEnergyOverdrawMission 0
scalar OsgEarthNet.uav[76] utilizationEnergyOverdrawMaintenance 0
scalar OsgEarthNet.uav[76] utilizationCountMissions 36
scalar OsgEarthNet.uav[76] utilizationCountManeuversMission 746
scalar OsgEarthNet.uav[76] utilizationCountManeuversMaintenance 72
scalar OsgEarthNet.uav[76] utilizationCountChargeState 36
scalar OsgEarthNet.uav[76] utilizationCountOverdrawnAfterMission 0
scalar OsgEarthNet.uav[76] utilizationCountIdleState 37
scalar OsgEarthNet.uav[76] utilizationFail 0
scalar OsgEarthNet.uav[76] simulationTime 259200
scalar OsgEarthNet.uav[77] utilizationSecMission 28745.371061159
scalar OsgEarthNet.uav[77] utilizationSecMaintenance 17896.84222507
scalar OsgEarthNet.uav[77] utilizationSecCharge 179425.78571377
scalar OsgEarthNet.uav[77] utilizationSecIdle 33132
scalar OsgEarthNet.uav[77] utilizationEnergyMission 139819.87777328
scalar OsgEarthNet.uav[77] utilizationEnergyMaintenance 85538.416404724
scalar OsgEarthNet.uav[77] utilizationEnergyCharge 222577.02819824
scalar OsgEarthNet.uav[77] utilizationEnergyOverdrawMission 0
scalar OsgEarthNet.uav[77] utilizationEnergyOverdrawMaintenance 0
scalar OsgEarthNet.uav[77] utilizationCountMissions 57
scalar OsgEarthNet.uav[77] utilizationCountManeuversMission 839
scalar OsgEarthNet.uav[77] utilizationCountManeuversMaintenance 114
scalar OsgEarthNet.uav[77] utilizationCountChargeState 57
scalar OsgEarthNet.uav[77] utilizationCountOverdrawnAfterMission 0
scalar OsgEarthNet.uav[77] utilizationCountIdleState 57
scalar OsgEarthNet.uav[77] utilizationFail 0
scalar OsgEarthNet.uav[77] simulationTime 259200
scalar OsgEarthNet.uav[78] utilizationSecMission 38645.72987367
scalar OsgEarthNet.uav[78] utilizationSecMaintenance 15511.221318882
scalar OsgEarthNet.uav[78] utilizationSecCharge 193911.04480745
scalar OsgEarthNet.uav[78] utilizationSecIdle 11132.003
scalar OsgEarthNet.uav[78] utilizationEnergyMission 186973.8845253
scalar OsgEarthNet.uav[78] utilizationEnergyMaintenance 70996.16998291
scalar OsgEarthNet.uav[78] utilizationEnergyCharge 255556.19140625
scalar OsgEarthNet.uav[78] utilizationEnergyOverdrawMission 0
scalar OsgEarthNet.uav[78] utilizationEnergyOverdrawMaintenance 0
scalar OsgEarthNet.uav[78] utilizationCountMissions 56
scalar OsgEarthNet.uav[78] utilizationCountManeuversMission 1249
scalar OsgEarthNet.uav[78] utilizationCountManeuversMaintenance 112
scalar OsgEarthNet.uav[78] utilizationCountChargeState 56
scalar OsgEarthNet.uav[78] utilizationCountOverdrawnAfterMission 0
scalar OsgEarthNet.uav[78] utilizationCountIdleState 40
scalar OsgEarthNet.uav[78] utilizationFail 0
scalar OsgEarthNet.uav[78] simulationTime 259200
scalar OsgEarthNet.uav[79] utilizationSecMission 19879.552414436
scalar OsgEarthNet.uav[79] utilizationSecMaintenance 12718.430585564
scalar OsgEarthNet.uav[79] utilizationSecCharge 122840
scalar OsgEarthNet.uav[79] utilizationSecIdle 103762.016
scalar OsgEarthNet.uav[79] utilizationEnergyMission 98195.719577868
scalar OsgEarthNet.uav[79] utilizationEnergyMaintenance 60700.477512359
scalar OsgEarthNet.uav[79] utilizationEnergyCharge 157974.91894531
scalar OsgEarthNet.uav[79] utilizationEnergyOverdrawMission 0
scalar OsgEarthNet.uav[79] utilizationEnergyOverdrawMaintenance 0
scalar OsgEarthNet.uav[79] utilizationCountMissions 35
scalar OsgEarthNet.uav[79] utilizationCountManeuversMission 658
scalar OsgEarthNet.uav[79] utilizationCountManeuversMaintenance 71
scalar OsgEarthNet.uav[79] utilizationCountChargeState 35
scalar OsgEarthNet.uav[79] utilizationCountOverdrawnAfterMission 0
scalar OsgEarthNet.uav[79] utilizationCountIdleState 36
scalar OsgEarthNet.uav[79] utilizationFail 0
scalar OsgEarthNet.uav[79] simulationTime 259200
scalar OsgEarthNet.uav[80] utilizationSecMission 21707.501830963
scalar OsgEarthNet.uav[80] utilizationSecMaintenance 14748.059007871
scalar OsgEarthNet.uav[80] utilizationSecCharge 136242.43316117
scalar OsgEarthNet.uav[80] utilizationSecIdle 86502.005
scalar OsgEarthNet.uav[80] utilizationEnergyMission 105018.91428757
scalar OsgEarthNet.uav[80] utilizationEnergyMaintenance 69651.806995392
scalar OsgEarthNet.uav[80] utilizationEnergyCharge 175347.28027344
scalar OsgEarthNet.uav[80] utilizationEnergyOverdrawMission 0
scalar OsgEarthNet.uav[80] utilizationEnergyOverdrawMaintenance 0
scalar OsgEarthNet.uav[80] utilizationCountMissions 39
scalar OsgEarthNet.uav[80] utilizationCountManeuversMission 773
scalar OsgEarthNet.uav[80] utilizationCountManeuversMaintenance 78
scalar OsgEarthNet.uav[80] utilizationCountChargeState 39
scalar OsgEarthNet.uav[80] utilizationCountOverdrawnAfterMission 0
scalar OsgEarthNet.uav[80] utilizationCountIdleState 39
scalar OsgEarthNet.uav[80] utilizationFail 0
scalar OsgEarthNet.uav[80] simulationTime 259200
scalar OsgEarthNet.uav[81] utilizationSecMission 30494.057064697
scalar OsgEarthNet.uav[81] utilizationSecMaintenance 16119.820651127
scalar OsgEarthNet.uav[81] utilizationSecCharge 175444.11528418
scalar OsgEarthNet.uav[81] utilizationSecIdle 37142.006
scalar OsgEarthNet.uav[81] utilizationEnergyMission 145916.39403152
scalar OsgEarthNet.uav[81] utilizationEnergyMaintenance 76079.48128891
scalar OsgEarthNet.uav[81] utilizationEnergyCharge 221006.19799805
scalar OsgEarthNet.uav[81] utilizationEnergyOverdrawMission 0
scalar OsgEarthNet.uav[81] utilizationEnergyOverdrawMaintenance 0
scalar OsgEarthNet.uav[81] utilizationCountMissions 53
scalar OsgEarthNet.uav[81] utilizationCountManeuversMission 835
scalar OsgEarthNet.uav[81] utilizationCountManeuversMaintenance 106
scalar OsgEarthNet.uav[81] utilizationCountChargeState 53
scalar OsgEarthNet.uav[81] utilizationCountOverdrawnAfterMission 0
scalar OsgEarthNet.uav[81] utilizationCountIdleState 53
scalar OsgEarthNet.uav[81] utilizationFail 0
scalar OsgEarthNet.uav[81] simulationTime 259200
scalar OsgEarthNet.uav[82] utilizationSecMission 38831.678579629
scalar OsgEarthNet.uav[82] utilizationSecMaintenance 15128.718218632
scalar OsgEarthNet.uav[82] utilizationSecCharge 193183.57894624
scalar OsgEarthNet.uav[82] utilizationSecIdle 12056.023255497
scalar OsgEarthNet.uav[82] utilizationEnergyMission 190533.47039795
scalar OsgEarthNet.uav[82] utilizationEnergyMaintenance 70572.683971405
scalar OsgEarthNet.uav[82] utilizationEnergyCharge 256504.93139648
scalar OsgEarthNet.uav[82] utilizationEnergyOverdrawMission 0
scalar OsgEarthNet.uav[82] utilizationEnergyOverdrawMaintenance 0
scalar OsgEarthNet.uav[82] utilizationCountMissions 56
scalar OsgEarthNet.uav[82] utilizationCountManeuversMission 1182
scalar OsgEarthNet.uav[82] utilizationCountManeuversMaintenance 112
scalar OsgEarthNet.uav[82] utilizationCountChargeState 56
scalar OsgEarthNet.uav[82] utilizationCountOverdrawnAfterMission 0
scalar OsgEarthNet.uav[82] utilizationCountIdleState 36
scalar OsgEarthNet.uav[82] utilizationFail 0
scalar OsgEarthNet.uav[82] simulationTime 259200
scalar OsgEarthNet.uav[83] utilizationSecMission 20589.377288704
scalar OsgEarthNet.uav[83] utilizationSecMaintenance 12195.595550333
scalar OsgEarthNet.uav[83] utilizationSecCharge 122880
scalar OsgEarthNet.uav[83] utilizationSecIdle 103535.02616096
scalar OsgEarthNet.uav[83] utilizationEnergyMission 98994.402671814
scalar OsgEarthNet.uav[83] utilizationEnergyMaintenance 58435.753940582
scalar OsgEarthNet.uav[83] utilizationEnergyCharge 158212.60498047
scalar OsgEarthNet.uav[83] utilizationEnergyOverdrawMission 0
scalar OsgEarthNet.uav[83] utilizationEnergyOverdrawMaintenance 0
scalar OsgEarthNet.uav[83] utilizationCountMissions 35
scalar OsgEarthNet.uav[83] utilizationCountManeuversMission 639
scalar OsgEarthNet.uav[83] utilizationCountManeuversMaintenance 70
scalar OsgEarthNet.uav[83] utilizationCountChargeState 35
scalar OsgEarthNet.uav[83] utilizationCountOverdrawnAfterMission 0
scalar OsgEarthNet.uav[83] utilizationCountIdleState 36
scalar OsgEarthNet.uav[83] utilizationFail 0
scalar OsgEarthNet.uav[83] simulationTime 259200
scalar OsgEarthNet.uav[84] utilizationSecMission 29770.716604978
scalar OsgEarthNet.uav[84] utilizationSecMaintenance 16740.9345813
scalar OsgEarthNet.uav[84] utilizationSecCharge 174936.34081372
scalar OsgEarthNet.uav[84] utilizationSecIdle 37752.007
scalar OsgEarthNet.uav[84] utilizationEnergyMission 141934.60368729
scalar OsgEarthNet.uav[84] utilizationEnergyMaintenance 79653.935504913
scalar OsgEarthNet.uav[84] utilizationEnergyCharge 218320.67578125
scalar OsgEarthNet.uav[84] utilizationEnergyOverdrawMission 0
scalar OsgEarthNet.uav[84] utilizationEnergyOverdrawMaintenance 0
scalar OsgEarthNet.uav[84] utilizationCountMissions 55
scalar OsgEarthNet.uav[84] utilizationCountManeuversMission 812
scalar OsgEarthNet.uav[84] utilizationCountManeuversMaintenance 110
scalar OsgEarthNet.uav[84] utilizationCountChargeState 55
scalar OsgEarthNet.uav[84] utilizationCountOverdrawnAfterMission 0
scalar OsgEarthNet.uav[84] utilizationCountIdleState 55
scalar OsgEarthNet.uav[84] utilizationFail 0
scalar OsgEarthNet.uav[84] simulationTime 259200
scalar OsgEarthNet.uav[85] utilizationSecMission 38168.452719949
scalar OsgEarthNet.uav[85] utilizationSecMaintenance 15679.83884469
scalar OsgEarthNet.uav[85] utilizationSecCharge 194219.70443536
scalar OsgEarthNet.uav[85] utilizationSecIdle 11132.003
scalar OsgEarthNet.uav[85] utilizationEnergyMission 188825.20240402
scalar OsgEarthNet.uav[85] utilizationEnergyMaintenance 72971.589836121
scalar OsgEarthNet.uav[85] utilizationEnergyCharge 257457.55053711
scalar OsgEarthNet.uav[85] utilizationEnergyOverdrawMission 0
scalar OsgEarthNet.uav[85] utilizationEnergyOverdrawMaintenance 0
scalar OsgEarthNet.uav[85] utilizationCountMissions 56
scalar OsgEarthNet.uav[85] utilizationCountManeuversMission 1266
scalar OsgEarthNet.uav[85] utilizationCountManeuversMaintenance 112
scalar OsgEarthNet.uav[85] utilizationCountChargeState 56
scalar OsgEarthNet.uav[85] utilizationCountOverdrawnAfterMission 0
scalar OsgEarthNet.uav[85] utilizationCountIdleState 38
scalar OsgEarthNet.uav[85] utilizationFail 0
scalar OsgEarthNet.uav[85] simulationTime 259200
scalar OsgEarthNet.uav[86] utilizationSecMission 22360.994707695
scalar OsgEarthNet.uav[86] utilizationSecMaintenance 12380.845774193
scalar OsgEarthNet.uav[86] utilizationSecCharge 129730
scalar OsgEarthNet.uav[86] utilizationSecIdle 94728.158518113
scalar OsgEarthNet.uav[86] utilizationEnergyMission 107725.287117
scalar OsgEarthNet.uav[86] utilizationEnergyMaintenance 58788.603626251
scalar OsgEarthNet.uav[86] utilizationEnergyCharge 167023.45361328
scalar OsgEarthNet.uav[86] utilizationEnergyOverdrawMission 0
scalar OsgEarthNet.uav[86] utilizationEnergyOverdrawMaintenance 0
scalar OsgEarthNet.uav[86] utilizationCountMissions 37
scalar OsgEarthNet.uav[86] utilizationCountManeuversMission 654
scalar OsgEarthNet.uav[86] utilizationCountManeuversMaintenance 74
scalar OsgEarthNet.uav[86] utilizationCountChargeState 37
scalar OsgEarthNet.uav[86] utilizationCountOverdrawnAfterMission 0
scalar OsgEarthNet.uav[86] utilizationCountIdleState 38
scalar OsgEarthNet.uav[86] utilizationFail 0
scalar OsgEarthNet.uav[86] simulationTime 259200
scalar OsgEarthNet.uav[87] utilizationSecMission 31005.227066555
scalar OsgEarthNet.uav[87] utilizationSecMaintenance 16729.766740484
scalar OsgEarthNet.uav[87] utilizationSecCharge 179430
scalar OsgEarthNet.uav[87] utilizationSecIdle 32035.005192961
scalar OsgEarthNet.uav[87] utilizationEnergyMission 150128.02852631
scalar OsgEarthNet.uav[87] utilizationEnergyMaintenance 78741.478218079
scalar OsgEarthNet.uav[87] utilizationEnergyCharge 227865.47827148
scalar OsgEarthNet.uav[87] utilizationEnergyOverdrawMission 0
scalar OsgEarthNet.uav[87] utilizationEnergyOverdrawMaintenance 0
scalar OsgEarthNet.uav[87] utilizationCountMissions 53
scalar OsgEarthNet.uav[87] utilizationCountManeuversMission 938
scalar OsgEarthNet.uav[87] utilizationCountManeuversMaintenance 106
scalar OsgEarthNet.uav[87] utilizationCountChargeState 53
scalar OsgEarthNet.uav[87] utilizationCountOverdrawnAfterMission 0
scalar OsgEarthNet.uav[87] utilizationCountIdleState 54
scalar OsgEarthNet.uav[87] utilizationFail 0
scalar OsgEarthNet.uav[87] simulationTime 259200
scalar OsgEarthNet.cs[0] usedPower 3983613.3064795
scalar OsgEarthNet.cs[0] chargedPower 3983613.3064795
scalar OsgEarthNet.cs[0] chargedMobileNodes 875
scalar OsgEarthNet.cs[0] reservations 888
scalar OsgEarthNet.cs[1] usedPower 5729457.6741857
scalar OsgEarthNet.cs[1] chargedPower 5729457.6741857
scalar OsgEarthNet.cs[1] chargedMobileNodes 1404
scalar OsgEarthNet.cs[1] reservations 1424
scalar OsgEarthNet.cs[2] usedPower 6941803.9814064
scalar OsgEarthNet.cs[2] chargedPower 6941803.9814064
scalar OsgEarthNet.cs[2] chargedMobileNodes 1000
scalar OsgEarthNet.cs[2] reservations 1518

