version 2
run Szenario_Hotel_Gabelbach-515-20180719-22:06:14-16900
attr configname Szenario_Hotel_Gabelbach
attr datetime 20180719-22:06:14
attr experiment Szenario_Hotel_Gabelbach
attr inifile omnetpp.ini
attr iterationvars "$replM=2, $biWeight=0.35, $replSearchM=1, $numUAVs=98"
attr iterationvarsf replM=2,biWeight=0.35,replSearchM=1,numUAVs=98-
attr measurement "$replM=2, $biWeight=0.35, $replSearchM=1, $numUAVs=98"
attr network OsgEarthNet
attr processid 16900
attr repetition 11
attr replication #11
attr resultdir results
attr runnumber 515
attr seedset 515
itervar biWeight 0.35
itervar numUAVs 98
itervar replM 2
itervar replSearchM 1
param *.osgEarthScene.scene "\"Szenario_Hotel_Gabelbach.earth\""
param *.playgroundLatitude 50.6830269
param *.playgroundLongitude 10.8538055
param *.playgroundWidth 3500m
param *.playgroundHeight 3500m
param *.cs[0].posX 3537m
param *.cs[0].posY 965m
param *.cs[0].posZ 538m
param *.cs[1].posX 312m
param *.cs[1].posY 1262m
param *.cs[1].posZ 539m
param *.cs[2].posX 2185m
param *.cs[2].posY 3026m
param *.cs[2].posZ 777m
param *.cs[3].posX 10m
param *.cs[3].posY 2200m
param *.cs[3].posZ 560m
param *.cs[4].posX 750m
param *.cs[4].posY 200m
param *.cs[4].posZ 540m
param *.cs[5].posX 2450m
param *.cs[5].posY 180m
param *.cs[5].posZ 524m
param *.cs[6].posX 3140m
param *.cs[6].posY 1790m
param *.cs[6].posZ 606m
param *.numCSs 3
param *.uav[*].replacementMethod 2
param *.uav[*].weightedSumWeight 0.35
param *.missionControl.replacementSearchMethod 1
param *.numUAVs 98
param *.*.timeStep 10s
param *.uav[*].commandPreviewCommandCount 20
param *.missionControl.missionFiles "\"missions\\\\Szenario_WB_Hotel_Gabelbach_Mission_Hotel.waypoints,missions\\\\Szenario_WB_Hotel_Gabelbach_Mission_Kickelhahn.waypoints,missions\\\\Szenario_WB_Hotel_Gabelbach_Mission_Ilmenau_Sportplatz.waypoints,missions\\\\Szenario_WB_Hotel_Gabelbach_Mission_Manebach_Mitte.waypoints,missions\\\\Szenario_WB_Hotel_Gabelbach_Mission_Manebach_Sued.waypoints,missions\\\\Szenario_WB_Hotel_Gabelbach_Hover_HoheSchlaufe.waypoints,missions\\\\Szenario_WB_Hotel_Gabelbach_Hover_Kickelhahn.waypoints,missions\\\\Szenario_WB_Hotel_Gabelbach_Hover_Gabelbachskopf.waypoints,missions\\\\Szenario_WB_Hotel_Gabelbach_Hover_Dachskopf.waypoints\""
param *.uav[0].startX 3537m
param *.uav[0].startY 965m
param *.uav[0].startZ 539m
param *.uav[1].startX 312m
param *.uav[1].startY 1262m
param *.uav[1].startZ 540m
param *.uav[2].startX 2185m
param *.uav[2].startY 3026m
param *.uav[2].startZ 778m
param *.uav[3].startX 3537m
param *.uav[3].startY 965m
param *.uav[3].startZ 539m
param *.uav[4].startX 312m
param *.uav[4].startY 1262m
param *.uav[4].startZ 540m
param *.uav[5].startX 2185m
param *.uav[5].startY 3026m
param *.uav[5].startZ 778m
param *.uav[6].startX 3537m
param *.uav[6].startY 965m
param *.uav[6].startZ 539m
param *.uav[7].startX 312m
param *.uav[7].startY 1262m
param *.uav[7].startZ 540m
param *.uav[8].startX 2185m
param *.uav[8].startY 3026m
param *.uav[8].startZ 778m
param *.uav[9].startX 3537m
param *.uav[9].startY 965m
param *.uav[9].startZ 539m
param *.uav[10].startX 3537m
param *.uav[10].startY 965m
param *.uav[10].startZ 539m
param *.uav[11].startX 312m
param *.uav[11].startY 1262m
param *.uav[11].startZ 540m
param *.uav[12].startX 2185m
param *.uav[12].startY 3026m
param *.uav[12].startZ 778m
param *.uav[13].startX 3537m
param *.uav[13].startY 965m
param *.uav[13].startZ 539m
param *.uav[14].startX 312m
param *.uav[14].startY 1262m
param *.uav[14].startZ 540m
param *.uav[15].startX 2185m
param *.uav[15].startY 3026m
param *.uav[15].startZ 778m
param *.uav[16].startX 3537m
param *.uav[16].startY 965m
param *.uav[16].startZ 539m
param *.uav[17].startX 312m
param *.uav[17].startY 1262m
param *.uav[17].startZ 540m
param *.uav[18].startX 2185m
param *.uav[18].startY 3026m
param *.uav[18].startZ 778m
param *.uav[19].startX 3537m
param *.uav[19].startY 965m
param *.uav[19].startZ 539m
param *.uav[20].startX 3537m
param *.uav[20].startY 965m
param *.uav[20].startZ 539m
param *.uav[21].startX 312m
param *.uav[21].startY 1262m
param *.uav[21].startZ 540m
param *.uav[22].startX 2185m
param *.uav[22].startY 3026m
param *.uav[22].startZ 778m
param *.uav[23].startX 3537m
param *.uav[23].startY 965m
param *.uav[23].startZ 539m
param *.uav[24].startX 312m
param *.uav[24].startY 1262m
param *.uav[24].startZ 540m
param *.uav[25].startX 2185m
param *.uav[25].startY 3026m
param *.uav[25].startZ 778m
param *.uav[26].startX 3537m
param *.uav[26].startY 965m
param *.uav[26].startZ 539m
param *.uav[27].startX 312m
param *.uav[27].startY 1262m
param *.uav[27].startZ 540m
param *.uav[28].startX 2185m
param *.uav[28].startY 3026m
param *.uav[28].startZ 778m
param *.uav[29].startX 3537m
param *.uav[29].startY 965m
param *.uav[29].startZ 539m
param *.uav[30].startX 3537m
param *.uav[30].startY 965m
param *.uav[30].startZ 539m
param *.uav[31].startX 312m
param *.uav[31].startY 1262m
param *.uav[31].startZ 540m
param *.uav[32].startX 2185m
param *.uav[32].startY 3026m
param *.uav[32].startZ 778m
param *.uav[33].startX 3537m
param *.uav[33].startY 965m
param *.uav[33].startZ 539m
param *.uav[34].startX 312m
param *.uav[34].startY 1262m
param *.uav[34].startZ 540m
param *.uav[35].startX 2185m
param *.uav[35].startY 3026m
param *.uav[35].startZ 778m
param *.uav[36].startX 3537m
param *.uav[36].startY 965m
param *.uav[36].startZ 539m
param *.uav[37].startX 312m
param *.uav[37].startY 1262m
param *.uav[37].startZ 540m
param *.uav[38].startX 2185m
param *.uav[38].startY 3026m
param *.uav[38].startZ 778m
param *.uav[39].startX 3537m
param *.uav[39].startY 965m
param *.uav[39].startZ 539m
param *.uav[40].startX 3537m
param *.uav[40].startY 965m
param *.uav[40].startZ 539m
param *.uav[41].startX 312m
param *.uav[41].startY 1262m
param *.uav[41].startZ 540m
param *.uav[42].startX 2185m
param *.uav[42].startY 3026m
param *.uav[42].startZ 778m
param *.uav[43].startX 3537m
param *.uav[43].startY 965m
param *.uav[43].startZ 539m
param *.uav[44].startX 312m
param *.uav[44].startY 1262m
param *.uav[44].startZ 540m
param *.uav[45].startX 2185m
param *.uav[45].startY 3026m
param *.uav[45].startZ 778m
param *.uav[46].startX 3537m
param *.uav[46].startY 965m
param *.uav[46].startZ 539m
param *.uav[47].startX 312m
param *.uav[47].startY 1262m
param *.uav[47].startZ 540m
param *.uav[48].startX 2185m
param *.uav[48].startY 3026m
param *.uav[48].startZ 778m
param *.uav[49].startX 3537m
param *.uav[49].startY 965m
param *.uav[49].startZ 539m
param *.uav[50].startX 3537m
param *.uav[50].startY 965m
param *.uav[50].startZ 539m
param *.uav[51].startX 312m
param *.uav[51].startY 1262m
param *.uav[51].startZ 540m
param *.uav[52].startX 2185m
param *.uav[52].startY 3026m
param *.uav[52].startZ 778m
param *.uav[53].startX 3537m
param *.uav[53].startY 965m
param *.uav[53].startZ 539m
param *.uav[54].startX 312m
param *.uav[54].startY 1262m
param *.uav[54].startZ 540m
param *.uav[55].startX 2185m
param *.uav[55].startY 3026m
param *.uav[55].startZ 778m
param *.uav[56].startX 3537m
param *.uav[56].startY 965m
param *.uav[56].startZ 539m
param *.uav[57].startX 312m
param *.uav[57].startY 1262m
param *.uav[57].startZ 540m
param *.uav[58].startX 2185m
param *.uav[58].startY 3026m
param *.uav[58].startZ 778m
param *.uav[59].startX 3537m
param *.uav[59].startY 965m
param *.uav[59].startZ 539m
param *.uav[60].startX 3537m
param *.uav[60].startY 965m
param *.uav[60].startZ 539m
param *.uav[61].startX 312m
param *.uav[61].startY 1262m
param *.uav[61].startZ 540m
param *.uav[62].startX 2185m
param *.uav[62].startY 3026m
param *.uav[62].startZ 778m
param *.uav[63].startX 3537m
param *.uav[63].startY 965m
param *.uav[63].startZ 539m
param *.uav[64].startX 312m
param *.uav[64].startY 1262m
param *.uav[64].startZ 540m
param *.uav[65].startX 2185m
param *.uav[65].startY 3026m
param *.uav[65].startZ 778m
param *.uav[66].startX 3537m
param *.uav[66].startY 965m
param *.uav[66].startZ 539m
param *.uav[67].startX 312m
param *.uav[67].startY 1262m
param *.uav[67].startZ 540m
param *.uav[68].startX 2185m
param *.uav[68].startY 3026m
param *.uav[68].startZ 778m
param *.uav[69].startX 3537m
param *.uav[69].startY 965m
param *.uav[69].startZ 539m
param *.uav[70].startX 3537m
param *.uav[70].startY 965m
param *.uav[70].startZ 539m
param *.uav[71].startX 312m
param *.uav[71].startY 1262m
param *.uav[71].startZ 540m
param *.uav[72].startX 2185m
param *.uav[72].startY 3026m
param *.uav[72].startZ 778m
param *.uav[73].startX 3537m
param *.uav[73].startY 965m
param *.uav[73].startZ 539m
param *.uav[74].startX 312m
param *.uav[74].startY 1262m
param *.uav[74].startZ 540m
param *.uav[75].startX 2185m
param *.uav[75].startY 3026m
param *.uav[75].startZ 778m
param *.uav[76].startX 3537m
param *.uav[76].startY 965m
param *.uav[76].startZ 539m
param *.uav[77].startX 312m
param *.uav[77].startY 1262m
param *.uav[77].startZ 540m
param *.uav[78].startX 2185m
param *.uav[78].startY 3026m
param *.uav[78].startZ 778m
param *.uav[79].startX 3537m
param *.uav[79].startY 965m
param *.uav[79].startZ 539m
param *.uav[80].startX 3537m
param *.uav[80].startY 965m
param *.uav[80].startZ 539m
param *.uav[81].startX 312m
param *.uav[81].startY 1262m
param *.uav[81].startZ 540m
param *.uav[82].startX 2185m
param *.uav[82].startY 3026m
param *.uav[82].startZ 778m
param *.uav[83].startX 3537m
param *.uav[83].startY 965m
param *.uav[83].startZ 539m
param *.uav[84].startX 312m
param *.uav[84].startY 1262m
param *.uav[84].startZ 540m
param *.uav[85].startX 2185m
param *.uav[85].startY 3026m
param *.uav[85].startZ 778m
param *.uav[86].startX 3537m
param *.uav[86].startY 965m
param *.uav[86].startZ 539m
param *.uav[87].startX 312m
param *.uav[87].startY 1262m
param *.uav[87].startZ 540m
param *.uav[88].startX 2185m
param *.uav[88].startY 3026m
param *.uav[88].startZ 778m
param *.uav[89].startX 3537m
param *.uav[89].startY 965m
param *.uav[89].startZ 539m
param *.uav[90].startX 3537m
param *.uav[90].startY 965m
param *.uav[90].startZ 539m
param *.uav[91].startX 312m
param *.uav[91].startY 1262m
param *.uav[91].startZ 540m
param *.uav[92].startX 2185m
param *.uav[92].startY 3026m
param *.uav[92].startZ 778m
param *.uav[93].startX 3537m
param *.uav[93].startY 965m
param *.uav[93].startZ 539m
param *.uav[94].startX 312m
param *.uav[94].startY 1262m
param *.uav[94].startZ 540m
param *.uav[95].startX 2185m
param *.uav[95].startY 3026m
param *.uav[95].startZ 778m
param *.uav[96].startX 3537m
param *.uav[96].startY 965m
param *.uav[96].startZ 539m
param *.uav[97].startX 312m
param *.uav[97].startY 1262m
param *.uav[97].startZ 540m
param *.uav[98].startX 2185m
param *.uav[98].startY 3026m
param *.uav[98].startZ 778m
param *.uav[99].startX 3537m
param *.uav[99].startY 965m
param *.uav[99].startZ 539m
param *.osgEarthScene.scene "\"boston.earth\""
param *.playgroundLatitude 42.3558
param *.playgroundLongitude -71.0677
param *.playgroundWidth 400m
param *.playgroundHeight 200m
param *.channelController.connectionColor "\"#0000FF40\""
param *.channelController.showConnections false
param *.uav[*].modelURL "\"quadrocopter.small.obj.15.scale.0,0,90.rot\""
param *.uav[*].labelColor "\"#FF7C00CC\""
param *.uav[*].label2Color "\"#FF7C00EE\""
param *.uav[*].batteryCapacity 5200mAh
param *.uav[*].batteryRemaining uav[index].batteryCapacity
param *.uav[*].predictionQuantile 0.95
param *.uav[*].replacementMethod 2
param *.uav[*].weightedSumWeight 0.5
param *.cs[*].modelURL "\"chargingstation_v1.osgt.2.scale.0,0,0.rot.0,0,-15e-1.trans\""
param *.cs[*].spotsWaiting 999
param *.cs[*].spotsCharging 999
param *.cs[*].chargeEffectivenessPercentage 100
param *.cs[*].nonLinearPhaseStartPercentage 85
param *.cs[*].chargeCurrent 6.0A
param *.cs[*].prioritizeFastCharge true
param *.missionControl.replacementSearchMethod 0
param *.*.timeStep 9s

scalar OsgEarthNet.uav[0] utilizationSecMission 420
scalar OsgEarthNet.uav[0] utilizationSecMaintenance 447.1303002674
scalar OsgEarthNet.uav[0] utilizationSecCharge 3410
scalar OsgEarthNet.uav[0] utilizationSecIdle 254922.86869973
scalar OsgEarthNet.uav[0] utilizationEnergyMission 1886.1299629211
scalar OsgEarthNet.uav[0] utilizationEnergyMaintenance 2199.8291130066
scalar OsgEarthNet.uav[0] utilizationEnergyCharge 4292.931640625
scalar OsgEarthNet.uav[0] utilizationEnergyOverdrawMission 0
scalar OsgEarthNet.uav[0] utilizationEnergyOverdrawMaintenance 0
scalar OsgEarthNet.uav[0] utilizationCountMissions 1
scalar OsgEarthNet.uav[0] utilizationCountManeuversMission 21
scalar OsgEarthNet.uav[0] utilizationCountManeuversMaintenance 2
scalar OsgEarthNet.uav[0] utilizationCountChargeState 1
scalar OsgEarthNet.uav[0] utilizationCountOverdrawnAfterMission 0
scalar OsgEarthNet.uav[0] utilizationCountIdleState 2
scalar OsgEarthNet.uav[0] utilizationFail 0
scalar OsgEarthNet.uav[0] simulationTime 259200
scalar OsgEarthNet.uav[1] utilizationSecMission 540
scalar OsgEarthNet.uav[1] utilizationSecMaintenance 395.21104267299
scalar OsgEarthNet.uav[1] utilizationSecCharge 3560
scalar OsgEarthNet.uav[1] utilizationSecIdle 254704.78795733
scalar OsgEarthNet.uav[1] utilizationEnergyMission 2636.2234992981
scalar OsgEarthNet.uav[1] utilizationEnergyMaintenance 1869.9875602722
scalar OsgEarthNet.uav[1] utilizationEnergyCharge 4617.9204101562
scalar OsgEarthNet.uav[1] utilizationEnergyOverdrawMission 0
scalar OsgEarthNet.uav[1] utilizationEnergyOverdrawMaintenance 0
scalar OsgEarthNet.uav[1] utilizationCountMissions 1
scalar OsgEarthNet.uav[1] utilizationCountManeuversMission 27
scalar OsgEarthNet.uav[1] utilizationCountManeuversMaintenance 2
scalar OsgEarthNet.uav[1] utilizationCountChargeState 1
scalar OsgEarthNet.uav[1] utilizationCountOverdrawnAfterMission 0
scalar OsgEarthNet.uav[1] utilizationCountIdleState 2
scalar OsgEarthNet.uav[1] utilizationFail 0
scalar OsgEarthNet.uav[1] simulationTime 259200
scalar OsgEarthNet.uav[2] utilizationSecMission 40638.510041622
scalar OsgEarthNet.uav[2] utilizationSecMaintenance 18441.446410964
scalar OsgEarthNet.uav[2] utilizationSecCharge 195590
scalar OsgEarthNet.uav[2] utilizationSecIdle 4530.0425474148
scalar OsgEarthNet.uav[2] utilizationEnergyMission 197421.74387741
scalar OsgEarthNet.uav[2] utilizationEnergyMaintenance 85385.456149127
scalar OsgEarthNet.uav[2] utilizationEnergyCharge 279609.47607422
scalar OsgEarthNet.uav[2] utilizationEnergyOverdrawMission 0
scalar OsgEarthNet.uav[2] utilizationEnergyOverdrawMaintenance 0
scalar OsgEarthNet.uav[2] utilizationCountMissions 62
scalar OsgEarthNet.uav[2] utilizationCountManeuversMission 1328
scalar OsgEarthNet.uav[2] utilizationCountManeuversMaintenance 124
scalar OsgEarthNet.uav[2] utilizationCountChargeState 61
scalar OsgEarthNet.uav[2] utilizationCountOverdrawnAfterMission 0
scalar OsgEarthNet.uav[2] utilizationCountIdleState 10
scalar OsgEarthNet.uav[2] utilizationFail 0
scalar OsgEarthNet.uav[2] simulationTime 259200
scalar OsgEarthNet.uav[3] utilizationSecMission 15517.134717134
scalar OsgEarthNet.uav[3] utilizationSecMaintenance 9065.2327538122
scalar OsgEarthNet.uav[3] utilizationSecCharge 91400
scalar OsgEarthNet.uav[3] utilizationSecIdle 143217.63152905
scalar OsgEarthNet.uav[3] utilizationEnergyMission 75234.695739746
scalar OsgEarthNet.uav[3] utilizationEnergyMaintenance 43130.55242157
scalar OsgEarthNet.uav[3] utilizationEnergyCharge 117564.82910156
scalar OsgEarthNet.uav[3] utilizationEnergyOverdrawMission 0
scalar OsgEarthNet.uav[3] utilizationEnergyOverdrawMaintenance 0
scalar OsgEarthNet.uav[3] utilizationCountMissions 26
scalar OsgEarthNet.uav[3] utilizationCountManeuversMission 485
scalar OsgEarthNet.uav[3] utilizationCountManeuversMaintenance 52
scalar OsgEarthNet.uav[3] utilizationCountChargeState 26
scalar OsgEarthNet.uav[3] utilizationCountOverdrawnAfterMission 0
scalar OsgEarthNet.uav[3] utilizationCountIdleState 27
scalar OsgEarthNet.uav[3] utilizationFail 0
scalar OsgEarthNet.uav[3] simulationTime 259200
scalar OsgEarthNet.uav[4] utilizationSecMission 520
scalar OsgEarthNet.uav[4] utilizationSecMaintenance 395.21104267299
scalar OsgEarthNet.uav[4] utilizationSecCharge 3620
scalar OsgEarthNet.uav[4] utilizationSecIdle 254664.78795733
scalar OsgEarthNet.uav[4] utilizationEnergyMission 2872.8343238831
scalar OsgEarthNet.uav[4] utilizationEnergyMaintenance 1906.4783439636
scalar OsgEarthNet.uav[4] utilizationEnergyCharge 4695.8837890625
scalar OsgEarthNet.uav[4] utilizationEnergyOverdrawMission 0
scalar OsgEarthNet.uav[4] utilizationEnergyOverdrawMaintenance 0
scalar OsgEarthNet.uav[4] utilizationCountMissions 1
scalar OsgEarthNet.uav[4] utilizationCountManeuversMission 26
scalar OsgEarthNet.uav[4] utilizationCountManeuversMaintenance 2
scalar OsgEarthNet.uav[4] utilizationCountChargeState 1
scalar OsgEarthNet.uav[4] utilizationCountOverdrawnAfterMission 0
scalar OsgEarthNet.uav[4] utilizationCountIdleState 2
scalar OsgEarthNet.uav[4] utilizationFail 0
scalar OsgEarthNet.uav[4] simulationTime 259200
scalar OsgEarthNet.uav[5] utilizationSecMission 41672.425885633
scalar OsgEarthNet.uav[5] utilizationSecMaintenance 17357.624855325
scalar OsgEarthNet.uav[5] utilizationSecCharge 195044.19956854
scalar OsgEarthNet.uav[5] utilizationSecIdle 5125.7486904992
scalar OsgEarthNet.uav[5] utilizationEnergyMission 200317.0861969
scalar OsgEarthNet.uav[5] utilizationEnergyMaintenance 80609.591743469
scalar OsgEarthNet.uav[5] utilizationEnergyCharge 279535.74365234
scalar OsgEarthNet.uav[5] utilizationEnergyOverdrawMission 0
scalar OsgEarthNet.uav[5] utilizationEnergyOverdrawMaintenance 0
scalar OsgEarthNet.uav[5] utilizationCountMissions 61
scalar OsgEarthNet.uav[5] utilizationCountManeuversMission 1190
scalar OsgEarthNet.uav[5] utilizationCountManeuversMaintenance 122
scalar OsgEarthNet.uav[5] utilizationCountChargeState 61
scalar OsgEarthNet.uav[5] utilizationCountOverdrawnAfterMission 0
scalar OsgEarthNet.uav[5] utilizationCountIdleState 11
scalar OsgEarthNet.uav[5] utilizationFail 0
scalar OsgEarthNet.uav[5] simulationTime 259200
scalar OsgEarthNet.uav[6] utilizationSecMission 7512.8677241509
scalar OsgEarthNet.uav[6] utilizationSecMaintenance 4588.2067591973
scalar OsgEarthNet.uav[6] utilizationSecCharge 45560
scalar OsgEarthNet.uav[6] utilizationSecIdle 201538.92451665
scalar OsgEarthNet.uav[6] utilizationEnergyMission 36982.120586395
scalar OsgEarthNet.uav[6] utilizationEnergyMaintenance 21952.684150696
scalar OsgEarthNet.uav[6] utilizationEnergyCharge 58886.861816406
scalar OsgEarthNet.uav[6] utilizationEnergyOverdrawMission 0
scalar OsgEarthNet.uav[6] utilizationEnergyOverdrawMaintenance 0
scalar OsgEarthNet.uav[6] utilizationCountMissions 13
scalar OsgEarthNet.uav[6] utilizationCountManeuversMission 250
scalar OsgEarthNet.uav[6] utilizationCountManeuversMaintenance 26
scalar OsgEarthNet.uav[6] utilizationCountChargeState 13
scalar OsgEarthNet.uav[6] utilizationCountOverdrawnAfterMission 0
scalar OsgEarthNet.uav[6] utilizationCountIdleState 14
scalar OsgEarthNet.uav[6] utilizationFail 0
scalar OsgEarthNet.uav[6] simulationTime 259200
scalar OsgEarthNet.uav[7] utilizationSecMission 18126.944083258
scalar OsgEarthNet.uav[7] utilizationSecMaintenance 12203.563552998
scalar OsgEarthNet.uav[7] utilizationSecCharge 116530
scalar OsgEarthNet.uav[7] utilizationSecIdle 112339.49136374
scalar OsgEarthNet.uav[7] utilizationEnergyMission 88777.383934021
scalar OsgEarthNet.uav[7] utilizationEnergyMaintenance 58209.811832428
scalar OsgEarthNet.uav[7] utilizationEnergyCharge 146932.34692383
scalar OsgEarthNet.uav[7] utilizationEnergyOverdrawMission 0
scalar OsgEarthNet.uav[7] utilizationEnergyOverdrawMaintenance 0
scalar OsgEarthNet.uav[7] utilizationCountMissions 35
scalar OsgEarthNet.uav[7] utilizationCountManeuversMission 661
scalar OsgEarthNet.uav[7] utilizationCountManeuversMaintenance 70
scalar OsgEarthNet.uav[7] utilizationCountChargeState 35
scalar OsgEarthNet.uav[7] utilizationCountOverdrawnAfterMission 0
scalar OsgEarthNet.uav[7] utilizationCountIdleState 36
scalar OsgEarthNet.uav[7] utilizationFail 0
scalar OsgEarthNet.uav[7] simulationTime 259200
scalar OsgEarthNet.uav[8] utilizationSecMission 41446.276117941
scalar OsgEarthNet.uav[8] utilizationSecMaintenance 18061.425172747
scalar OsgEarthNet.uav[8] utilizationSecCharge 198540.29670931
scalar OsgEarthNet.uav[8] utilizationSecIdle 1152.001
scalar OsgEarthNet.uav[8] utilizationEnergyMission 199671.30614853
scalar OsgEarthNet.uav[8] utilizationEnergyMaintenance 83276.606086731
scalar OsgEarthNet.uav[8] utilizationEnergyCharge 283564.01171875
scalar OsgEarthNet.uav[8] utilizationEnergyOverdrawMission 0
scalar OsgEarthNet.uav[8] utilizationEnergyOverdrawMaintenance 0
scalar OsgEarthNet.uav[8] utilizationCountMissions 62
scalar OsgEarthNet.uav[8] utilizationCountManeuversMission 1186
scalar OsgEarthNet.uav[8] utilizationCountManeuversMaintenance 124
scalar OsgEarthNet.uav[8] utilizationCountChargeState 62
scalar OsgEarthNet.uav[8] utilizationCountOverdrawnAfterMission 0
scalar OsgEarthNet.uav[8] utilizationCountIdleState 10
scalar OsgEarthNet.uav[8] utilizationFail 0
scalar OsgEarthNet.uav[8] simulationTime 259200
scalar OsgEarthNet.uav[9] utilizationSecMission 5881.8754577408
scalar OsgEarthNet.uav[9] utilizationSecMaintenance 4256.1096611357
scalar OsgEarthNet.uav[9] utilizationSecCharge 38640
scalar OsgEarthNet.uav[9] utilizationSecIdle 210422.01388112
scalar OsgEarthNet.uav[9] utilizationEnergyMission 28572.415283203
scalar OsgEarthNet.uav[9] utilizationEnergyMaintenance 20088.073776245
scalar OsgEarthNet.uav[9] utilizationEnergyCharge 49656.365722656
scalar OsgEarthNet.uav[9] utilizationEnergyOverdrawMission 0
scalar OsgEarthNet.uav[9] utilizationEnergyOverdrawMaintenance 0
scalar OsgEarthNet.uav[9] utilizationCountMissions 11
scalar OsgEarthNet.uav[9] utilizationCountManeuversMission 216
scalar OsgEarthNet.uav[9] utilizationCountManeuversMaintenance 22
scalar OsgEarthNet.uav[9] utilizationCountChargeState 11
scalar OsgEarthNet.uav[9] utilizationCountOverdrawnAfterMission 0
scalar OsgEarthNet.uav[9] utilizationCountIdleState 12
scalar OsgEarthNet.uav[9] utilizationFail 0
scalar OsgEarthNet.uav[9] simulationTime 259200
scalar OsgEarthNet.uav[10] utilizationSecMission 11937.759869714
scalar OsgEarthNet.uav[10] utilizationSecMaintenance 5241.564742844
scalar OsgEarthNet.uav[10] utilizationSecCharge 62730
scalar OsgEarthNet.uav[10] utilizationSecIdle 179290.67438744
scalar OsgEarthNet.uav[10] utilizationEnergyMission 56073.341510773
scalar OsgEarthNet.uav[10] utilizationEnergyMaintenance 24501.500705719
scalar OsgEarthNet.uav[10] utilizationEnergyCharge 80350.847167969
scalar OsgEarthNet.uav[10] utilizationEnergyOverdrawMission 0
scalar OsgEarthNet.uav[10] utilizationEnergyOverdrawMaintenance 0
scalar OsgEarthNet.uav[10] utilizationCountMissions 18
scalar OsgEarthNet.uav[10] utilizationCountManeuversMission 280
scalar OsgEarthNet.uav[10] utilizationCountManeuversMaintenance 36
scalar OsgEarthNet.uav[10] utilizationCountChargeState 18
scalar OsgEarthNet.uav[10] utilizationCountOverdrawnAfterMission 0
scalar OsgEarthNet.uav[10] utilizationCountIdleState 19
scalar OsgEarthNet.uav[10] utilizationFail 0
scalar OsgEarthNet.uav[10] simulationTime 259200
scalar OsgEarthNet.uav[11] utilizationSecMission 10946.035213023
scalar OsgEarthNet.uav[11] utilizationSecMaintenance 6293.2008372176
scalar OsgEarthNet.uav[11] utilizationSecCharge 66180
scalar OsgEarthNet.uav[11] utilizationSecIdle 175780.76294976
scalar OsgEarthNet.uav[11] utilizationEnergyMission 52417.382667541
scalar OsgEarthNet.uav[11] utilizationEnergyMaintenance 30249.269863129
scalar OsgEarthNet.uav[11] utilizationEnergyCharge 83025.299804688
scalar OsgEarthNet.uav[11] utilizationEnergyOverdrawMission 0
scalar OsgEarthNet.uav[11] utilizationEnergyOverdrawMaintenance 0
scalar OsgEarthNet.uav[11] utilizationCountMissions 20
scalar OsgEarthNet.uav[11] utilizationCountManeuversMission 273
scalar OsgEarthNet.uav[11] utilizationCountManeuversMaintenance 40
scalar OsgEarthNet.uav[11] utilizationCountChargeState 20
scalar OsgEarthNet.uav[11] utilizationCountOverdrawnAfterMission 0
scalar OsgEarthNet.uav[11] utilizationCountIdleState 21
scalar OsgEarthNet.uav[11] utilizationFail 0
scalar OsgEarthNet.uav[11] simulationTime 259200
scalar OsgEarthNet.uav[12] utilizationSecMission 40953.490414347
scalar OsgEarthNet.uav[12] utilizationSecMaintenance 18552.903307642
scalar OsgEarthNet.uav[12] utilizationSecCharge 195841.59927801
scalar OsgEarthNet.uav[12] utilizationSecIdle 3852.006
scalar OsgEarthNet.uav[12] utilizationEnergyMission 198022.56866837
scalar OsgEarthNet.uav[12] utilizationEnergyMaintenance 85446.684013367
scalar OsgEarthNet.uav[12] utilizationEnergyCharge 280994.45092773
scalar OsgEarthNet.uav[12] utilizationEnergyOverdrawMission 0
scalar OsgEarthNet.uav[12] utilizationEnergyOverdrawMaintenance 0
scalar OsgEarthNet.uav[12] utilizationCountMissions 62
scalar OsgEarthNet.uav[12] utilizationCountManeuversMission 1258
scalar OsgEarthNet.uav[12] utilizationCountManeuversMaintenance 124
scalar OsgEarthNet.uav[12] utilizationCountChargeState 62
scalar OsgEarthNet.uav[12] utilizationCountOverdrawnAfterMission 0
scalar OsgEarthNet.uav[12] utilizationCountIdleState 8
scalar OsgEarthNet.uav[12] utilizationFail 0
scalar OsgEarthNet.uav[12] simulationTime 259200
scalar OsgEarthNet.uav[13] utilizationSecMission 10444.376068062
scalar OsgEarthNet.uav[13] utilizationSecMaintenance 6273.7510397188
scalar OsgEarthNet.uav[13] utilizationSecCharge 63250
scalar OsgEarthNet.uav[13] utilizationSecIdle 179231.87189222
scalar OsgEarthNet.uav[13] utilizationEnergyMission 51822.130073547
scalar OsgEarthNet.uav[13] utilizationEnergyMaintenance 29671.682853699
scalar OsgEarthNet.uav[13] utilizationEnergyCharge 81310.436523438
scalar OsgEarthNet.uav[13] utilizationEnergyOverdrawMission 0
scalar OsgEarthNet.uav[13] utilizationEnergyOverdrawMaintenance 0
scalar OsgEarthNet.uav[13] utilizationCountMissions 18
scalar OsgEarthNet.uav[13] utilizationCountManeuversMission 340
scalar OsgEarthNet.uav[13] utilizationCountManeuversMaintenance 36
scalar OsgEarthNet.uav[13] utilizationCountChargeState 18
scalar OsgEarthNet.uav[13] utilizationCountOverdrawnAfterMission 0
scalar OsgEarthNet.uav[13] utilizationCountIdleState 19
scalar OsgEarthNet.uav[13] utilizationFail 0
scalar OsgEarthNet.uav[13] simulationTime 259200
scalar OsgEarthNet.uav[14] utilizationSecMission 13022.592111011
scalar OsgEarthNet.uav[14] utilizationSecMaintenance 8098.0947327996
scalar OsgEarthNet.uav[14] utilizationSecCharge 82120
scalar OsgEarthNet.uav[14] utilizationSecIdle 155959.31215619
scalar OsgEarthNet.uav[14] utilizationEnergyMission 63551.18793869
scalar OsgEarthNet.uav[14] utilizationEnergyMaintenance 38666.769554138
scalar OsgEarthNet.uav[14] utilizationEnergyCharge 101376.41577148
scalar OsgEarthNet.uav[14] utilizationEnergyOverdrawMission 0
scalar OsgEarthNet.uav[14] utilizationEnergyOverdrawMaintenance 0
scalar OsgEarthNet.uav[14] utilizationCountMissions 26
scalar OsgEarthNet.uav[14] utilizationCountManeuversMission 324
scalar OsgEarthNet.uav[14] utilizationCountManeuversMaintenance 52
scalar OsgEarthNet.uav[14] utilizationCountChargeState 26
scalar OsgEarthNet.uav[14] utilizationCountOverdrawnAfterMission 0
scalar OsgEarthNet.uav[14] utilizationCountIdleState 27
scalar OsgEarthNet.uav[14] utilizationFail 0
scalar OsgEarthNet.uav[14] simulationTime 259200
scalar OsgEarthNet.uav[15] utilizationSecMission 40448.610320726
scalar OsgEarthNet.uav[15] utilizationSecMaintenance 19046.215410383
scalar OsgEarthNet.uav[15] utilizationSecCharge 196765.7479216
scalar OsgEarthNet.uav[15] utilizationSecIdle 2939.4253472904
scalar OsgEarthNet.uav[15] utilizationEnergyMission 196776.79158783
scalar OsgEarthNet.uav[15] utilizationEnergyMaintenance 88241.868904114
scalar OsgEarthNet.uav[15] utilizationEnergyCharge 282007.41088867
scalar OsgEarthNet.uav[15] utilizationEnergyOverdrawMission 0
scalar OsgEarthNet.uav[15] utilizationEnergyOverdrawMaintenance 0
scalar OsgEarthNet.uav[15] utilizationCountMissions 62
scalar OsgEarthNet.uav[15] utilizationCountManeuversMission 1310
scalar OsgEarthNet.uav[15] utilizationCountManeuversMaintenance 124
scalar OsgEarthNet.uav[15] utilizationCountChargeState 62
scalar OsgEarthNet.uav[15] utilizationCountOverdrawnAfterMission 0
scalar OsgEarthNet.uav[15] utilizationCountIdleState 12
scalar OsgEarthNet.uav[15] utilizationFail 0
scalar OsgEarthNet.uav[15] simulationTime 259200
scalar OsgEarthNet.uav[16] utilizationSecMission 11023.750915482
scalar OsgEarthNet.uav[16] utilizationSecMaintenance 7597.5946540695
scalar OsgEarthNet.uav[16] utilizationSecCharge 68126.645430449
scalar OsgEarthNet.uav[16] utilizationSecIdle 172452.008
scalar OsgEarthNet.uav[16] utilizationEnergyMission 54106.835166931
scalar OsgEarthNet.uav[16] utilizationEnergyMaintenance 36303.295639038
scalar OsgEarthNet.uav[16] utilizationEnergyCharge 88183.269775391
scalar OsgEarthNet.uav[16] utilizationEnergyOverdrawMission 0
scalar OsgEarthNet.uav[16] utilizationEnergyOverdrawMaintenance 0
scalar OsgEarthNet.uav[16] utilizationCountMissions 20
scalar OsgEarthNet.uav[16] utilizationCountManeuversMission 395
scalar OsgEarthNet.uav[16] utilizationCountManeuversMaintenance 40
scalar OsgEarthNet.uav[16] utilizationCountChargeState 20
scalar OsgEarthNet.uav[16] utilizationCountOverdrawnAfterMission 0
scalar OsgEarthNet.uav[16] utilizationCountIdleState 20
scalar OsgEarthNet.uav[16] utilizationFail 0
scalar OsgEarthNet.uav[16] simulationTime 259200
scalar OsgEarthNet.uav[17] utilizationSecMission 8198.8026591191
scalar OsgEarthNet.uav[17] utilizationSecMaintenance 5741.6011425116
scalar OsgEarthNet.uav[17] utilizationSecCharge 54190
scalar OsgEarthNet.uav[17] utilizationSecIdle 191069.59519837
scalar OsgEarthNet.uav[17] utilizationEnergyMission 40646.642204285
scalar OsgEarthNet.uav[17] utilizationEnergyMaintenance 27049.295768738
scalar OsgEarthNet.uav[17] utilizationEnergyCharge 67111.862792969
scalar OsgEarthNet.uav[17] utilizationEnergyOverdrawMission 0
scalar OsgEarthNet.uav[17] utilizationEnergyOverdrawMaintenance 0
scalar OsgEarthNet.uav[17] utilizationCountMissions 17
scalar OsgEarthNet.uav[17] utilizationCountManeuversMission 283
scalar OsgEarthNet.uav[17] utilizationCountManeuversMaintenance 34
scalar OsgEarthNet.uav[17] utilizationCountChargeState 17
scalar OsgEarthNet.uav[17] utilizationCountOverdrawnAfterMission 0
scalar OsgEarthNet.uav[17] utilizationCountIdleState 18
scalar OsgEarthNet.uav[17] utilizationFail 0
scalar OsgEarthNet.uav[17] simulationTime 259200
scalar OsgEarthNet.uav[18] utilizationSecMission 42107.47626048
scalar OsgEarthNet.uav[18] utilizationSecMaintenance 17310.52073952
scalar OsgEarthNet.uav[18] utilizationSecCharge 197250
scalar OsgEarthNet.uav[18] utilizationSecIdle 2532.002
scalar OsgEarthNet.uav[18] utilizationEnergyMission 203724.11833954
scalar OsgEarthNet.uav[18] utilizationEnergyMaintenance 80194.290539303
scalar OsgEarthNet.uav[18] utilizationEnergyCharge 279879.39404297
scalar OsgEarthNet.uav[18] utilizationEnergyOverdrawMission 0
scalar OsgEarthNet.uav[18] utilizationEnergyOverdrawMaintenance 0
scalar OsgEarthNet.uav[18] utilizationCountMissions 62
scalar OsgEarthNet.uav[18] utilizationCountManeuversMission 1256
scalar OsgEarthNet.uav[18] utilizationCountManeuversMaintenance 124
scalar OsgEarthNet.uav[18] utilizationCountChargeState 61
scalar OsgEarthNet.uav[18] utilizationCountOverdrawnAfterMission 0
scalar OsgEarthNet.uav[18] utilizationCountIdleState 11
scalar OsgEarthNet.uav[18] utilizationFail 0
scalar OsgEarthNet.uav[18] simulationTime 259200
scalar OsgEarthNet.uav[19] utilizationSecMission 10214.743181892
scalar OsgEarthNet.uav[19] utilizationSecMaintenance 5692.5331178827
scalar OsgEarthNet.uav[19] utilizationSecCharge 59290
scalar OsgEarthNet.uav[19] utilizationSecIdle 184002.72270023
scalar OsgEarthNet.uav[19] utilizationEnergyMission 50076.917003632
scalar OsgEarthNet.uav[19] utilizationEnergyMaintenance 26880.571392059
scalar OsgEarthNet.uav[19] utilizationEnergyCharge 76233.418945312
scalar OsgEarthNet.uav[19] utilizationEnergyOverdrawMission 0
scalar OsgEarthNet.uav[19] utilizationEnergyOverdrawMaintenance 0
scalar OsgEarthNet.uav[19] utilizationCountMissions 17
scalar OsgEarthNet.uav[19] utilizationCountManeuversMission 307
scalar OsgEarthNet.uav[19] utilizationCountManeuversMaintenance 34
scalar OsgEarthNet.uav[19] utilizationCountChargeState 17
scalar OsgEarthNet.uav[19] utilizationCountOverdrawnAfterMission 0
scalar OsgEarthNet.uav[19] utilizationCountIdleState 18
scalar OsgEarthNet.uav[19] utilizationFail 0
scalar OsgEarthNet.uav[19] simulationTime 259200
scalar OsgEarthNet.uav[20] utilizationSecMission 14227.501830963
scalar OsgEarthNet.uav[20] utilizationSecMaintenance 7511.8153768502
scalar OsgEarthNet.uav[20] utilizationSecCharge 77893.532761485
scalar OsgEarthNet.uav[20] utilizationSecIdle 159567.1490307
scalar OsgEarthNet.uav[20] utilizationEnergyMission 68303.774227142
scalar OsgEarthNet.uav[20] utilizationEnergyMaintenance 35359.661804199
scalar OsgEarthNet.uav[20] utilizationEnergyCharge 100695.39135742
scalar OsgEarthNet.uav[20] utilizationEnergyOverdrawMission 0
scalar OsgEarthNet.uav[20] utilizationEnergyOverdrawMaintenance 0
scalar OsgEarthNet.uav[20] utilizationCountMissions 23
scalar OsgEarthNet.uav[20] utilizationCountManeuversMission 399
scalar OsgEarthNet.uav[20] utilizationCountManeuversMaintenance 46
scalar OsgEarthNet.uav[20] utilizationCountChargeState 23
scalar OsgEarthNet.uav[20] utilizationCountOverdrawnAfterMission 0
scalar OsgEarthNet.uav[20] utilizationCountIdleState 23
scalar OsgEarthNet.uav[20] utilizationFail 0
scalar OsgEarthNet.uav[20] simulationTime 259200
scalar OsgEarthNet.uav[21] utilizationSecMission 17474.657486735
scalar OsgEarthNet.uav[21] utilizationSecMaintenance 12756.512430027
scalar OsgEarthNet.uav[21] utilizationSecCharge 116416.82808324
scalar OsgEarthNet.uav[21] utilizationSecIdle 112552.001
scalar OsgEarthNet.uav[21] utilizationEnergyMission 85437.373264313
scalar OsgEarthNet.uav[21] utilizationEnergyMaintenance 60685.94146347
scalar OsgEarthNet.uav[21] utilizationEnergyCharge 144894.04907227
scalar OsgEarthNet.uav[21] utilizationEnergyOverdrawMission 0
scalar OsgEarthNet.uav[21] utilizationEnergyOverdrawMaintenance 0
scalar OsgEarthNet.uav[21] utilizationCountMissions 37
scalar OsgEarthNet.uav[21] utilizationCountManeuversMission 642
scalar OsgEarthNet.uav[21] utilizationCountManeuversMaintenance 74
scalar OsgEarthNet.uav[21] utilizationCountChargeState 37
scalar OsgEarthNet.uav[21] utilizationCountOverdrawnAfterMission 0
scalar OsgEarthNet.uav[21] utilizationCountIdleState 37
scalar OsgEarthNet.uav[21] utilizationFail 0
scalar OsgEarthNet.uav[21] simulationTime 259200
scalar OsgEarthNet.uav[22] utilizationSecMission 40131.325792969
scalar OsgEarthNet.uav[22] utilizationSecMaintenance 19144.397500911
scalar OsgEarthNet.uav[22] utilizationSecCharge 197012.27170612
scalar OsgEarthNet.uav[22] utilizationSecIdle 2912.004
scalar OsgEarthNet.uav[22] utilizationEnergyMission 197429.69678879
scalar OsgEarthNet.uav[22] utilizationEnergyMaintenance 88573.658485413
scalar OsgEarthNet.uav[22] utilizationEnergyCharge 283617.66259766
scalar OsgEarthNet.uav[22] utilizationEnergyOverdrawMission 0
scalar OsgEarthNet.uav[22] utilizationEnergyOverdrawMaintenance 0
scalar OsgEarthNet.uav[22] utilizationCountMissions 62
scalar OsgEarthNet.uav[22] utilizationCountManeuversMission 1356
scalar OsgEarthNet.uav[22] utilizationCountManeuversMaintenance 124
scalar OsgEarthNet.uav[22] utilizationCountChargeState 62
scalar OsgEarthNet.uav[22] utilizationCountOverdrawnAfterMission 0
scalar OsgEarthNet.uav[22] utilizationCountIdleState 11
scalar OsgEarthNet.uav[22] utilizationFail 0
scalar OsgEarthNet.uav[22] simulationTime 259200
scalar OsgEarthNet.uav[23] utilizationSecMission 11356.509564553
scalar OsgEarthNet.uav[23] utilizationSecMaintenance 5750.0557762706
scalar OsgEarthNet.uav[23] utilizationSecCharge 62950
scalar OsgEarthNet.uav[23] utilizationSecIdle 179143.43365918
scalar OsgEarthNet.uav[23] utilizationEnergyMission 53926.111736298
scalar OsgEarthNet.uav[23] utilizationEnergyMaintenance 27300.140445709
scalar OsgEarthNet.uav[23] utilizationEnergyCharge 80600.491210938
scalar OsgEarthNet.uav[23] utilizationEnergyOverdrawMission 0
scalar OsgEarthNet.uav[23] utilizationEnergyOverdrawMaintenance 0
scalar OsgEarthNet.uav[23] utilizationCountMissions 18
scalar OsgEarthNet.uav[23] utilizationCountManeuversMission 303
scalar OsgEarthNet.uav[23] utilizationCountManeuversMaintenance 36
scalar OsgEarthNet.uav[23] utilizationCountChargeState 18
scalar OsgEarthNet.uav[23] utilizationCountOverdrawnAfterMission 0
scalar OsgEarthNet.uav[23] utilizationCountIdleState 19
scalar OsgEarthNet.uav[23] utilizationFail 0
scalar OsgEarthNet.uav[23] simulationTime 259200
scalar OsgEarthNet.uav[24] utilizationSecMission 17760.759949604
scalar OsgEarthNet.uav[24] utilizationSecMaintenance 12921.922968565
scalar OsgEarthNet.uav[24] utilizationSecCharge 117860
scalar OsgEarthNet.uav[24] utilizationSecIdle 110657.31608183
scalar OsgEarthNet.uav[24] utilizationEnergyMission 85299.316894531
scalar OsgEarthNet.uav[24] utilizationEnergyMaintenance 61338.425946689
scalar OsgEarthNet.uav[24] utilizationEnergyCharge 143934.61962891
scalar OsgEarthNet.uav[24] utilizationEnergyOverdrawMission 0
scalar OsgEarthNet.uav[24] utilizationEnergyOverdrawMaintenance 0
scalar OsgEarthNet.uav[24] utilizationCountMissions 39
scalar OsgEarthNet.uav[24] utilizationCountManeuversMission 589
scalar OsgEarthNet.uav[24] utilizationCountManeuversMaintenance 78
scalar OsgEarthNet.uav[24] utilizationCountChargeState 38
scalar OsgEarthNet.uav[24] utilizationCountOverdrawnAfterMission 0
scalar OsgEarthNet.uav[24] utilizationCountIdleState 39
scalar OsgEarthNet.uav[24] utilizationFail 0
scalar OsgEarthNet.uav[24] simulationTime 259200
scalar OsgEarthNet.uav[25] utilizationSecMission 42276.730388421
scalar OsgEarthNet.uav[25] utilizationSecMaintenance 18094.00857701
scalar OsgEarthNet.uav[25] utilizationSecCharge 197484.76209339
scalar OsgEarthNet.uav[25] utilizationSecIdle 1344.4979411756
scalar OsgEarthNet.uav[25] utilizationEnergyMission 202522.59001923
scalar OsgEarthNet.uav[25] utilizationEnergyMaintenance 82631.181369782
scalar OsgEarthNet.uav[25] utilizationEnergyCharge 282434.71026611
scalar OsgEarthNet.uav[25] utilizationEnergyOverdrawMission 0
scalar OsgEarthNet.uav[25] utilizationEnergyOverdrawMaintenance 0
scalar OsgEarthNet.uav[25] utilizationCountMissions 62
scalar OsgEarthNet.uav[25] utilizationCountManeuversMission 1190
scalar OsgEarthNet.uav[25] utilizationCountManeuversMaintenance 124
scalar OsgEarthNet.uav[25] utilizationCountChargeState 62
scalar OsgEarthNet.uav[25] utilizationCountOverdrawnAfterMission 0
scalar OsgEarthNet.uav[25] utilizationCountIdleState 6
scalar OsgEarthNet.uav[25] utilizationFail 0
scalar OsgEarthNet.uav[25] simulationTime 259200
scalar OsgEarthNet.uav[26] utilizationSecMission 10903.750915482
scalar OsgEarthNet.uav[26] utilizationSecMaintenance 7684.9619760385
scalar OsgEarthNet.uav[26] utilizationSecCharge 70460
scalar OsgEarthNet.uav[26] utilizationSecIdle 170151.28610848
scalar OsgEarthNet.uav[26] utilizationEnergyMission 54647.120800018
scalar OsgEarthNet.uav[26] utilizationEnergyMaintenance 36697.725875854
scalar OsgEarthNet.uav[26] utilizationEnergyCharge 90638.506835938
scalar OsgEarthNet.uav[26] utilizationEnergyOverdrawMission 0
scalar OsgEarthNet.uav[26] utilizationEnergyOverdrawMaintenance 0
scalar OsgEarthNet.uav[26] utilizationCountMissions 20
scalar OsgEarthNet.uav[26] utilizationCountManeuversMission 389
scalar OsgEarthNet.uav[26] utilizationCountManeuversMaintenance 40
scalar OsgEarthNet.uav[26] utilizationCountChargeState 20
scalar OsgEarthNet.uav[26] utilizationCountOverdrawnAfterMission 0
scalar OsgEarthNet.uav[26] utilizationCountIdleState 21
scalar OsgEarthNet.uav[26] utilizationFail 0
scalar OsgEarthNet.uav[26] simulationTime 259200
scalar OsgEarthNet.uav[27] utilizationSecMission 20530.289453464
scalar OsgEarthNet.uav[27] utilizationSecMaintenance 14506.734696361
scalar OsgEarthNet.uav[27] utilizationSecCharge 134020.97485018
scalar OsgEarthNet.uav[27] utilizationSecIdle 90142
scalar OsgEarthNet.uav[27] utilizationEnergyMission 100332.67602158
scalar OsgEarthNet.uav[27] utilizationEnergyMaintenance 68658.647220612
scalar OsgEarthNet.uav[27] utilizationEnergyCharge 165555.62115479
scalar OsgEarthNet.uav[27] utilizationEnergyOverdrawMission 0
scalar OsgEarthNet.uav[27] utilizationEnergyOverdrawMaintenance 0
scalar OsgEarthNet.uav[27] utilizationCountMissions 43
scalar OsgEarthNet.uav[27] utilizationCountManeuversMission 710
scalar OsgEarthNet.uav[27] utilizationCountManeuversMaintenance 85
scalar OsgEarthNet.uav[27] utilizationCountChargeState 43
scalar OsgEarthNet.uav[27] utilizationCountOverdrawnAfterMission 0
scalar OsgEarthNet.uav[27] utilizationCountIdleState 43
scalar OsgEarthNet.uav[27] utilizationFail 0
scalar OsgEarthNet.uav[27] simulationTime 259200
scalar OsgEarthNet.uav[28] utilizationSecMission 41404.783205767
scalar OsgEarthNet.uav[28] utilizationSecMaintenance 17777.612510221
scalar OsgEarthNet.uav[28] utilizationSecCharge 196172.14763047
scalar OsgEarthNet.uav[28] utilizationSecIdle 3845.4556535415
scalar OsgEarthNet.uav[28] utilizationEnergyMission 199744.54962158
scalar OsgEarthNet.uav[28] utilizationEnergyMaintenance 82739.379798889
scalar OsgEarthNet.uav[28] utilizationEnergyCharge 281195.30371094
scalar OsgEarthNet.uav[28] utilizationEnergyOverdrawMission 0
scalar OsgEarthNet.uav[28] utilizationEnergyOverdrawMaintenance 0
scalar OsgEarthNet.uav[28] utilizationCountMissions 61
scalar OsgEarthNet.uav[28] utilizationCountManeuversMission 1200
scalar OsgEarthNet.uav[28] utilizationCountManeuversMaintenance 122
scalar OsgEarthNet.uav[28] utilizationCountChargeState 61
scalar OsgEarthNet.uav[28] utilizationCountOverdrawnAfterMission 0
scalar OsgEarthNet.uav[28] utilizationCountIdleState 11
scalar OsgEarthNet.uav[28] utilizationFail 0
scalar OsgEarthNet.uav[28] simulationTime 259200
scalar OsgEarthNet.uav[29] utilizationSecMission 13075.368334472
scalar OsgEarthNet.uav[29] utilizationSecMaintenance 8045.5419608408
scalar OsgEarthNet.uav[29] utilizationSecCharge 80280
scalar OsgEarthNet.uav[29] utilizationSecIdle 157799.08870469
scalar OsgEarthNet.uav[29] utilizationEnergyMission 63636.61328125
scalar OsgEarthNet.uav[29] utilizationEnergyMaintenance 38016.942474365
scalar OsgEarthNet.uav[29] utilizationEnergyCharge 102850.64746094
scalar OsgEarthNet.uav[29] utilizationEnergyOverdrawMission 0
scalar OsgEarthNet.uav[29] utilizationEnergyOverdrawMaintenance 0
scalar OsgEarthNet.uav[29] utilizationCountMissions 23
scalar OsgEarthNet.uav[29] utilizationCountManeuversMission 424
scalar OsgEarthNet.uav[29] utilizationCountManeuversMaintenance 46
scalar OsgEarthNet.uav[29] utilizationCountChargeState 23
scalar OsgEarthNet.uav[29] utilizationCountOverdrawnAfterMission 0
scalar OsgEarthNet.uav[29] utilizationCountIdleState 24
scalar OsgEarthNet.uav[29] utilizationFail 0
scalar OsgEarthNet.uav[29] simulationTime 259200
scalar OsgEarthNet.uav[30] utilizationSecMission 12934.118029311
scalar OsgEarthNet.uav[30] utilizationSecMaintenance 8554.001673725
scalar OsgEarthNet.uav[30] utilizationSecCharge 79849.863296964
scalar OsgEarthNet.uav[30] utilizationSecIdle 157862.016
scalar OsgEarthNet.uav[30] utilizationEnergyMission 64217.207069397
scalar OsgEarthNet.uav[30] utilizationEnergyMaintenance 40555.505706787
scalar OsgEarthNet.uav[30] utilizationEnergyCharge 103036.40673828
scalar OsgEarthNet.uav[30] utilizationEnergyOverdrawMission 0
scalar OsgEarthNet.uav[30] utilizationEnergyOverdrawMaintenance 0
scalar OsgEarthNet.uav[30] utilizationCountMissions 23
scalar OsgEarthNet.uav[30] utilizationCountManeuversMission 469
scalar OsgEarthNet.uav[30] utilizationCountManeuversMaintenance 46
scalar OsgEarthNet.uav[30] utilizationCountChargeState 23
scalar OsgEarthNet.uav[30] utilizationCountOverdrawnAfterMission 0
scalar OsgEarthNet.uav[30] utilizationCountIdleState 23
scalar OsgEarthNet.uav[30] utilizationFail 0
scalar OsgEarthNet.uav[30] simulationTime 259200
scalar OsgEarthNet.uav[31] utilizationSecMission 18605.027463869
scalar OsgEarthNet.uav[31] utilizationSecMaintenance 12648.58657794
scalar OsgEarthNet.uav[31] utilizationSecCharge 119990
scalar OsgEarthNet.uav[31] utilizationSecIdle 107956.38495819
scalar OsgEarthNet.uav[31] utilizationEnergyMission 90783.968452454
scalar OsgEarthNet.uav[31] utilizationEnergyMaintenance 59987.55172348
scalar OsgEarthNet.uav[31] utilizationEnergyCharge 151155.65087891
scalar OsgEarthNet.uav[31] utilizationEnergyOverdrawMission 0
scalar OsgEarthNet.uav[31] utilizationEnergyOverdrawMaintenance 0
scalar OsgEarthNet.uav[31] utilizationCountMissions 36
scalar OsgEarthNet.uav[31] utilizationCountManeuversMission 683
scalar OsgEarthNet.uav[31] utilizationCountManeuversMaintenance 72
scalar OsgEarthNet.uav[31] utilizationCountChargeState 36
scalar OsgEarthNet.uav[31] utilizationCountOverdrawnAfterMission 0
scalar OsgEarthNet.uav[31] utilizationCountIdleState 37
scalar OsgEarthNet.uav[31] utilizationFail 0
scalar OsgEarthNet.uav[31] simulationTime 259200
scalar OsgEarthNet.uav[32] utilizationSecMission 41782.509040931
scalar OsgEarthNet.uav[32] utilizationSecMaintenance 17584.865597437
scalar OsgEarthNet.uav[32] utilizationSecCharge 195277.91360958
scalar OsgEarthNet.uav[32] utilizationSecIdle 4554.7107520526
scalar OsgEarthNet.uav[32] utilizationEnergyMission 200674.04961777
scalar OsgEarthNet.uav[32] utilizationEnergyMaintenance 81602.014263153
scalar OsgEarthNet.uav[32] utilizationEnergyCharge 278781.66821289
scalar OsgEarthNet.uav[32] utilizationEnergyOverdrawMission 0
scalar OsgEarthNet.uav[32] utilizationEnergyOverdrawMaintenance 0
scalar OsgEarthNet.uav[32] utilizationCountMissions 61
scalar OsgEarthNet.uav[32] utilizationCountManeuversMission 1189
scalar OsgEarthNet.uav[32] utilizationCountManeuversMaintenance 122
scalar OsgEarthNet.uav[32] utilizationCountChargeState 61
scalar OsgEarthNet.uav[32] utilizationCountOverdrawnAfterMission 0
scalar OsgEarthNet.uav[32] utilizationCountIdleState 10
scalar OsgEarthNet.uav[32] utilizationFail 0
scalar OsgEarthNet.uav[32] simulationTime 259200
scalar OsgEarthNet.uav[33] utilizationSecMission 14385.001220642
scalar OsgEarthNet.uav[33] utilizationSecMaintenance 9783.7253022833
scalar OsgEarthNet.uav[33] utilizationSecCharge 90082.871141984
scalar OsgEarthNet.uav[33] utilizationSecIdle 144948.40133509
scalar OsgEarthNet.uav[33] utilizationEnergyMission 70846.012565613
scalar OsgEarthNet.uav[33] utilizationEnergyMaintenance 46476.79428482
scalar OsgEarthNet.uav[33] utilizationEnergyCharge 117022.77661133
scalar OsgEarthNet.uav[33] utilizationEnergyOverdrawMission 0
scalar OsgEarthNet.uav[33] utilizationEnergyOverdrawMaintenance 0
scalar OsgEarthNet.uav[33] utilizationCountMissions 26
scalar OsgEarthNet.uav[33] utilizationCountManeuversMission 511
scalar OsgEarthNet.uav[33] utilizationCountManeuversMaintenance 52
scalar OsgEarthNet.uav[33] utilizationCountChargeState 26
scalar OsgEarthNet.uav[33] utilizationCountOverdrawnAfterMission 0
scalar OsgEarthNet.uav[33] utilizationCountIdleState 26
scalar OsgEarthNet.uav[33] utilizationFail 0
scalar OsgEarthNet.uav[33] simulationTime 259200
scalar OsgEarthNet.uav[34] utilizationSecMission 19653.857312938
scalar OsgEarthNet.uav[34] utilizationSecMaintenance 13874.138687062
scalar OsgEarthNet.uav[34] utilizationSecCharge 129560
scalar OsgEarthNet.uav[34] utilizationSecIdle 96112.003
scalar OsgEarthNet.uav[34] utilizationEnergyMission 96443.613707829
scalar OsgEarthNet.uav[34] utilizationEnergyMaintenance 65529.632293701
scalar OsgEarthNet.uav[34] utilizationEnergyCharge 161486.05908203
scalar OsgEarthNet.uav[34] utilizationEnergyOverdrawMission 0
scalar OsgEarthNet.uav[34] utilizationEnergyOverdrawMaintenance 0
scalar OsgEarthNet.uav[34] utilizationCountMissions 40
scalar OsgEarthNet.uav[34] utilizationCountManeuversMission 707
scalar OsgEarthNet.uav[34] utilizationCountManeuversMaintenance 81
scalar OsgEarthNet.uav[34] utilizationCountChargeState 40
scalar OsgEarthNet.uav[34] utilizationCountOverdrawnAfterMission 0
scalar OsgEarthNet.uav[34] utilizationCountIdleState 41
scalar OsgEarthNet.uav[34] utilizationFail 0
scalar OsgEarthNet.uav[34] simulationTime 259200
scalar OsgEarthNet.uav[35] utilizationSecMission 41056.918809495
scalar OsgEarthNet.uav[35] utilizationSecMaintenance 18206.502813333
scalar OsgEarthNet.uav[35] utilizationSecCharge 196634.57337717
scalar OsgEarthNet.uav[35] utilizationSecIdle 3302.004
scalar OsgEarthNet.uav[35] utilizationEnergyMission 198835.01048279
scalar OsgEarthNet.uav[35] utilizationEnergyMaintenance 83098.011802673
scalar OsgEarthNet.uav[35] utilizationEnergyCharge 281075.5814209
scalar OsgEarthNet.uav[35] utilizationEnergyOverdrawMission 0
scalar OsgEarthNet.uav[35] utilizationEnergyOverdrawMaintenance 0
scalar OsgEarthNet.uav[35] utilizationCountMissions 62
scalar OsgEarthNet.uav[35] utilizationCountManeuversMission 1387
scalar OsgEarthNet.uav[35] utilizationCountManeuversMaintenance 124
scalar OsgEarthNet.uav[35] utilizationCountChargeState 62
scalar OsgEarthNet.uav[35] utilizationCountOverdrawnAfterMission 0
scalar OsgEarthNet.uav[35] utilizationCountIdleState 9
scalar OsgEarthNet.uav[35] utilizationFail 0
scalar OsgEarthNet.uav[35] simulationTime 259200
scalar OsgEarthNet.uav[36] utilizationSecMission 14876.618639633
scalar OsgEarthNet.uav[36] utilizationSecMaintenance 8606.6490250516
scalar OsgEarthNet.uav[36] utilizationSecCharge 87760
scalar OsgEarthNet.uav[36] utilizationSecIdle 147956.73133532
scalar OsgEarthNet.uav[36] utilizationEnergyMission 72669.166812897
scalar OsgEarthNet.uav[36] utilizationEnergyMaintenance 40815.368003845
scalar OsgEarthNet.uav[36] utilizationEnergyCharge 112683.42822266
scalar OsgEarthNet.uav[36] utilizationEnergyOverdrawMission 0
scalar OsgEarthNet.uav[36] utilizationEnergyOverdrawMaintenance 0
scalar OsgEarthNet.uav[36] utilizationCountMissions 25
scalar OsgEarthNet.uav[36] utilizationCountManeuversMission 462
scalar OsgEarthNet.uav[36] utilizationCountManeuversMaintenance 50
scalar OsgEarthNet.uav[36] utilizationCountChargeState 25
scalar OsgEarthNet.uav[36] utilizationCountOverdrawnAfterMission 0
scalar OsgEarthNet.uav[36] utilizationCountIdleState 26
scalar OsgEarthNet.uav[36] utilizationFail 0
scalar OsgEarthNet.uav[36] simulationTime 259200
scalar OsgEarthNet.uav[37] utilizationSecMission 20724.703337204
scalar OsgEarthNet.uav[37] utilizationSecMaintenance 14293.293662796
scalar OsgEarthNet.uav[37] utilizationSecCharge 132190
scalar OsgEarthNet.uav[37] utilizationSecIdle 91992.002
scalar OsgEarthNet.uav[37] utilizationEnergyMission 101524.62468719
scalar OsgEarthNet.uav[37] utilizationEnergyMaintenance 67500.705993673
scalar OsgEarthNet.uav[37] utilizationEnergyCharge 164372.58666992
scalar OsgEarthNet.uav[37] utilizationEnergyOverdrawMission 0
scalar OsgEarthNet.uav[37] utilizationEnergyOverdrawMaintenance 0
scalar OsgEarthNet.uav[37] utilizationCountMissions 42
scalar OsgEarthNet.uav[37] utilizationCountManeuversMission 717
scalar OsgEarthNet.uav[37] utilizationCountManeuversMaintenance 84
scalar OsgEarthNet.uav[37] utilizationCountChargeState 41
scalar OsgEarthNet.uav[37] utilizationCountOverdrawnAfterMission 0
scalar OsgEarthNet.uav[37] utilizationCountIdleState 42
scalar OsgEarthNet.uav[37] utilizationFail 0
scalar OsgEarthNet.uav[37] simulationTime 259200
scalar OsgEarthNet.uav[38] utilizationSecMission 42523.904047957
scalar OsgEarthNet.uav[38] utilizationSecMaintenance 16560.87475774
scalar OsgEarthNet.uav[38] utilizationSecCharge 195806.64660171
scalar OsgEarthNet.uav[38] utilizationSecIdle 4308.5735925931
scalar OsgEarthNet.uav[38] utilizationEnergyMission 203167.42201614
scalar OsgEarthNet.uav[38] utilizationEnergyMaintenance 77169.603488922
scalar OsgEarthNet.uav[38] utilizationEnergyCharge 281077.67724609
scalar OsgEarthNet.uav[38] utilizationEnergyOverdrawMission 0
scalar OsgEarthNet.uav[38] utilizationEnergyOverdrawMaintenance 0
scalar OsgEarthNet.uav[38] utilizationCountMissions 61
scalar OsgEarthNet.uav[38] utilizationCountManeuversMission 1133
scalar OsgEarthNet.uav[38] utilizationCountManeuversMaintenance 122
scalar OsgEarthNet.uav[38] utilizationCountChargeState 61
scalar OsgEarthNet.uav[38] utilizationCountOverdrawnAfterMission 0
scalar OsgEarthNet.uav[38] utilizationCountIdleState 12
scalar OsgEarthNet.uav[38] utilizationFail 0
scalar OsgEarthNet.uav[38] simulationTime 259200
scalar OsgEarthNet.uav[39] utilizationSecMission 12995.884411973
scalar OsgEarthNet.uav[39] utilizationSecMaintenance 7871.3642018091
scalar OsgEarthNet.uav[39] utilizationSecCharge 77780
scalar OsgEarthNet.uav[39] utilizationSecIdle 160552.75038622
scalar OsgEarthNet.uav[39] utilizationEnergyMission 62758.518535614
scalar OsgEarthNet.uav[39] utilizationEnergyMaintenance 37330.349189758
scalar OsgEarthNet.uav[39] utilizationEnergyCharge 100393.45800781
scalar OsgEarthNet.uav[39] utilizationEnergyOverdrawMission 0
scalar OsgEarthNet.uav[39] utilizationEnergyOverdrawMaintenance 0
scalar OsgEarthNet.uav[39] utilizationCountMissions 22
scalar OsgEarthNet.uav[39] utilizationCountManeuversMission 411
scalar OsgEarthNet.uav[39] utilizationCountManeuversMaintenance 44
scalar OsgEarthNet.uav[39] utilizationCountChargeState 22
scalar OsgEarthNet.uav[39] utilizationCountOverdrawnAfterMission 0
scalar OsgEarthNet.uav[39] utilizationCountIdleState 23
scalar OsgEarthNet.uav[39] utilizationFail 0
scalar OsgEarthNet.uav[39] simulationTime 259200
scalar OsgEarthNet.uav[40] utilizationSecMission 14256.509564553
scalar OsgEarthNet.uav[40] utilizationSecMaintenance 8337.2474948571
scalar OsgEarthNet.uav[40] utilizationSecCharge 83064.22794059
scalar OsgEarthNet.uav[40] utilizationSecIdle 153542.014
scalar OsgEarthNet.uav[40] utilizationEnergyMission 69483.397590637
scalar OsgEarthNet.uav[40] utilizationEnergyMaintenance 39898.388183594
scalar OsgEarthNet.uav[40] utilizationEnergyCharge 107986.09863281
scalar OsgEarthNet.uav[40] utilizationEnergyOverdrawMission 0
scalar OsgEarthNet.uav[40] utilizationEnergyOverdrawMaintenance 0
scalar OsgEarthNet.uav[40] utilizationCountMissions 24
scalar OsgEarthNet.uav[40] utilizationCountManeuversMission 448
scalar OsgEarthNet.uav[40] utilizationCountManeuversMaintenance 48
scalar OsgEarthNet.uav[40] utilizationCountChargeState 24
scalar OsgEarthNet.uav[40] utilizationCountOverdrawnAfterMission 0
scalar OsgEarthNet.uav[40] utilizationCountIdleState 24
scalar OsgEarthNet.uav[40] utilizationFail 0
scalar OsgEarthNet.uav[40] simulationTime 259200
scalar OsgEarthNet.uav[41] utilizationSecMission 19572.534067483
scalar OsgEarthNet.uav[41] utilizationSecMaintenance 13925.59450175
scalar OsgEarthNet.uav[41] utilizationSecCharge 128999.86243077
scalar OsgEarthNet.uav[41] utilizationSecIdle 96702.008
scalar OsgEarthNet.uav[41] utilizationEnergyMission 96553.559955597
scalar OsgEarthNet.uav[41] utilizationEnergyMaintenance 66436.666980743
scalar OsgEarthNet.uav[41] utilizationEnergyCharge 163464.29956055
scalar OsgEarthNet.uav[41] utilizationEnergyOverdrawMission 0
scalar OsgEarthNet.uav[41] utilizationEnergyOverdrawMaintenance 0
scalar OsgEarthNet.uav[41] utilizationCountMissions 39
scalar OsgEarthNet.uav[41] utilizationCountManeuversMission 768
scalar OsgEarthNet.uav[41] utilizationCountManeuversMaintenance 78
scalar OsgEarthNet.uav[41] utilizationCountChargeState 39
scalar OsgEarthNet.uav[41] utilizationCountOverdrawnAfterMission 0
scalar OsgEarthNet.uav[41] utilizationCountIdleState 39
scalar OsgEarthNet.uav[41] utilizationFail 0
scalar OsgEarthNet.uav[41] simulationTime 259200
scalar OsgEarthNet.uav[42] utilizationSecMission 40388.015567683
scalar OsgEarthNet.uav[42] utilizationSecMaintenance 18822.352351652
scalar OsgEarthNet.uav[42] utilizationSecCharge 197290
scalar OsgEarthNet.uav[42] utilizationSecIdle 2699.6310806652
scalar OsgEarthNet.uav[42] utilizationEnergyMission 199757.37008176
scalar OsgEarthNet.uav[42] utilizationEnergyMaintenance 86472.483161926
scalar OsgEarthNet.uav[42] utilizationEnergyCharge 283025.92626953
scalar OsgEarthNet.uav[42] utilizationEnergyOverdrawMission 0
scalar OsgEarthNet.uav[42] utilizationEnergyOverdrawMaintenance 0
scalar OsgEarthNet.uav[42] utilizationCountMissions 62
scalar OsgEarthNet.uav[42] utilizationCountManeuversMission 1374
scalar OsgEarthNet.uav[42] utilizationCountManeuversMaintenance 125
scalar OsgEarthNet.uav[42] utilizationCountChargeState 62
scalar OsgEarthNet.uav[42] utilizationCountOverdrawnAfterMission 0
scalar OsgEarthNet.uav[42] utilizationCountIdleState 8
scalar OsgEarthNet.uav[42] utilizationFail 0
scalar OsgEarthNet.uav[42] simulationTime 259200
scalar OsgEarthNet.uav[43] utilizationSecMission 14226.251525803
scalar OsgEarthNet.uav[43] utilizationSecMaintenance 8282.9721726459
scalar OsgEarthNet.uav[43] utilizationSecCharge 82798.757301551
scalar OsgEarthNet.uav[43] utilizationSecIdle 153892.018
scalar OsgEarthNet.uav[43] utilizationEnergyMission 70300.091449738
scalar OsgEarthNet.uav[43] utilizationEnergyMaintenance 38861.919128418
scalar OsgEarthNet.uav[43] utilizationEnergyCharge 107319.51025391
scalar OsgEarthNet.uav[43] utilizationEnergyOverdrawMission 0
scalar OsgEarthNet.uav[43] utilizationEnergyOverdrawMaintenance 0
scalar OsgEarthNet.uav[43] utilizationCountMissions 24
scalar OsgEarthNet.uav[43] utilizationCountManeuversMission 451
scalar OsgEarthNet.uav[43] utilizationCountManeuversMaintenance 48
scalar OsgEarthNet.uav[43] utilizationCountChargeState 24
scalar OsgEarthNet.uav[43] utilizationCountOverdrawnAfterMission 0
scalar OsgEarthNet.uav[43] utilizationCountIdleState 24
scalar OsgEarthNet.uav[43] utilizationFail 0
scalar OsgEarthNet.uav[43] simulationTime 259200
scalar OsgEarthNet.uav[44] utilizationSecMission 17929.202788482
scalar OsgEarthNet.uav[44] utilizationSecMaintenance 11908.071745059
scalar OsgEarthNet.uav[44] utilizationSecCharge 115920
scalar OsgEarthNet.uav[44] utilizationSecIdle 113442.72446646
scalar OsgEarthNet.uav[44] utilizationEnergyMission 87593.932161588
scalar OsgEarthNet.uav[44] utilizationEnergyMaintenance 56691.093074799
scalar OsgEarthNet.uav[44] utilizationEnergyCharge 144129.48095703
scalar OsgEarthNet.uav[44] utilizationEnergyOverdrawMission 0
scalar OsgEarthNet.uav[44] utilizationEnergyOverdrawMaintenance 0
scalar OsgEarthNet.uav[44] utilizationCountMissions 36
scalar OsgEarthNet.uav[44] utilizationCountManeuversMission 542
scalar OsgEarthNet.uav[44] utilizationCountManeuversMaintenance 73
scalar OsgEarthNet.uav[44] utilizationCountChargeState 36
scalar OsgEarthNet.uav[44] utilizationCountOverdrawnAfterMission 0
scalar OsgEarthNet.uav[44] utilizationCountIdleState 37
scalar OsgEarthNet.uav[44] utilizationFail 0
scalar OsgEarthNet.uav[44] simulationTime 259200
scalar OsgEarthNet.uav[45] utilizationSecMission 42442.097293509
scalar OsgEarthNet.uav[45] utilizationSecMaintenance 16872.943792567
scalar OsgEarthNet.uav[45] utilizationSecCharge 196752.95491392
scalar OsgEarthNet.uav[45] utilizationSecIdle 3132.003
scalar OsgEarthNet.uav[45] utilizationEnergyMission 201406.6232338
scalar OsgEarthNet.uav[45] utilizationEnergyMaintenance 76784.437725067
scalar OsgEarthNet.uav[45] utilizationEnergyCharge 280660.87207031
scalar OsgEarthNet.uav[45] utilizationEnergyOverdrawMission 0
scalar OsgEarthNet.uav[45] utilizationEnergyOverdrawMaintenance 0
scalar OsgEarthNet.uav[45] utilizationCountMissions 61
scalar OsgEarthNet.uav[45] utilizationCountManeuversMission 1286
scalar OsgEarthNet.uav[45] utilizationCountManeuversMaintenance 122
scalar OsgEarthNet.uav[45] utilizationCountChargeState 61
scalar OsgEarthNet.uav[45] utilizationCountOverdrawnAfterMission 0
scalar OsgEarthNet.uav[45] utilizationCountIdleState 10
scalar OsgEarthNet.uav[45] utilizationFail 0
scalar OsgEarthNet.uav[45] simulationTime 259200
scalar OsgEarthNet.uav[46] utilizationSecMission 11845.626373223
scalar OsgEarthNet.uav[46] utilizationSecMaintenance 6757.522102503
scalar OsgEarthNet.uav[46] utilizationSecCharge 69400
scalar OsgEarthNet.uav[46] utilizationSecIdle 171196.85052427
scalar OsgEarthNet.uav[46] utilizationEnergyMission 56755.603122711
scalar OsgEarthNet.uav[46] utilizationEnergyMaintenance 32289.843959808
scalar OsgEarthNet.uav[46] utilizationEnergyCharge 88878.551269531
scalar OsgEarthNet.uav[46] utilizationEnergyOverdrawMission 0
scalar OsgEarthNet.uav[46] utilizationEnergyOverdrawMaintenance 0
scalar OsgEarthNet.uav[46] utilizationCountMissions 20
scalar OsgEarthNet.uav[46] utilizationCountManeuversMission 358
scalar OsgEarthNet.uav[46] utilizationCountManeuversMaintenance 40
scalar OsgEarthNet.uav[46] utilizationCountChargeState 20
scalar OsgEarthNet.uav[46] utilizationCountOverdrawnAfterMission 0
scalar OsgEarthNet.uav[46] utilizationCountIdleState 21
scalar OsgEarthNet.uav[46] utilizationFail 0
scalar OsgEarthNet.uav[46] simulationTime 259200
scalar OsgEarthNet.uav[47] utilizationSecMission 20808.280974155
scalar OsgEarthNet.uav[47] utilizationSecMaintenance 12969.085984427
scalar OsgEarthNet.uav[47] utilizationSecCharge 125340.62604142
scalar OsgEarthNet.uav[47] utilizationSecIdle 100082.006
scalar OsgEarthNet.uav[47] utilizationEnergyMission 102703.118927
scalar OsgEarthNet.uav[47] utilizationEnergyMaintenance 60552.789894104
scalar OsgEarthNet.uav[47] utilizationEnergyCharge 158914.57324219
scalar OsgEarthNet.uav[47] utilizationEnergyOverdrawMission 0
scalar OsgEarthNet.uav[47] utilizationEnergyOverdrawMaintenance 0
scalar OsgEarthNet.uav[47] utilizationCountMissions 38
scalar OsgEarthNet.uav[47] utilizationCountManeuversMission 692
scalar OsgEarthNet.uav[47] utilizationCountManeuversMaintenance 76
scalar OsgEarthNet.uav[47] utilizationCountChargeState 38
scalar OsgEarthNet.uav[47] utilizationCountOverdrawnAfterMission 0
scalar OsgEarthNet.uav[47] utilizationCountIdleState 38
scalar OsgEarthNet.uav[47] utilizationFail 0
scalar OsgEarthNet.uav[47] simulationTime 259200
scalar OsgEarthNet.uav[48] utilizationSecMission 42466.83569536
scalar OsgEarthNet.uav[48] utilizationSecMaintenance 17967.06387405
scalar OsgEarthNet.uav[48] utilizationSecCharge 197444.09943059
scalar OsgEarthNet.uav[48] utilizationSecIdle 1322
scalar OsgEarthNet.uav[48] utilizationEnergyMission 204169.5962594
scalar OsgEarthNet.uav[48] utilizationEnergyMaintenance 82423.414329529
scalar OsgEarthNet.uav[48] utilizationEnergyCharge 283735.9128418
scalar OsgEarthNet.uav[48] utilizationEnergyOverdrawMission 0
scalar OsgEarthNet.uav[48] utilizationEnergyOverdrawMaintenance 0
scalar OsgEarthNet.uav[48] utilizationCountMissions 62
scalar OsgEarthNet.uav[48] utilizationCountManeuversMission 1194
scalar OsgEarthNet.uav[48] utilizationCountManeuversMaintenance 123
scalar OsgEarthNet.uav[48] utilizationCountChargeState 62
scalar OsgEarthNet.uav[48] utilizationCountOverdrawnAfterMission 0
scalar OsgEarthNet.uav[48] utilizationCountIdleState 9
scalar OsgEarthNet.uav[48] utilizationFail 0
scalar OsgEarthNet.uav[48] simulationTime 259200
scalar OsgEarthNet.uav[49] utilizationSecMission 13305.001220642
scalar OsgEarthNet.uav[49] utilizationSecMaintenance 8518.7661231609
scalar OsgEarthNet.uav[49] utilizationSecCharge 81390
scalar OsgEarthNet.uav[49] utilizationSecIdle 155986.2316562
scalar OsgEarthNet.uav[49] utilizationEnergyMission 65323.836830139
scalar OsgEarthNet.uav[49] utilizationEnergyMaintenance 40251.835590362
scalar OsgEarthNet.uav[49] utilizationEnergyCharge 104949.45458984
scalar OsgEarthNet.uav[49] utilizationEnergyOverdrawMission 0
scalar OsgEarthNet.uav[49] utilizationEnergyOverdrawMaintenance 0
scalar OsgEarthNet.uav[49] utilizationCountMissions 23
scalar OsgEarthNet.uav[49] utilizationCountManeuversMission 457
scalar OsgEarthNet.uav[49] utilizationCountManeuversMaintenance 46
scalar OsgEarthNet.uav[49] utilizationCountChargeState 23
scalar OsgEarthNet.uav[49] utilizationCountOverdrawnAfterMission 0
scalar OsgEarthNet.uav[49] utilizationCountIdleState 24
scalar OsgEarthNet.uav[49] utilizationFail 0
scalar OsgEarthNet.uav[49] simulationTime 259200
scalar OsgEarthNet.uav[50] utilizationSecMission 11304.376068062
scalar OsgEarthNet.uav[50] utilizationSecMaintenance 7255.9818153871
scalar OsgEarthNet.uav[50] utilizationSecCharge 69840
scalar OsgEarthNet.uav[50] utilizationSecIdle 170799.64111655
scalar OsgEarthNet.uav[50] utilizationEnergyMission 55996.993778229
scalar OsgEarthNet.uav[50] utilizationEnergyMaintenance 34312.245040893
scalar OsgEarthNet.uav[50] utilizationEnergyCharge 89470.866699219
scalar OsgEarthNet.uav[50] utilizationEnergyOverdrawMission 0
scalar OsgEarthNet.uav[50] utilizationEnergyOverdrawMaintenance 0
scalar OsgEarthNet.uav[50] utilizationCountMissions 20
scalar OsgEarthNet.uav[50] utilizationCountManeuversMission 383
scalar OsgEarthNet.uav[50] utilizationCountManeuversMaintenance 40
scalar OsgEarthNet.uav[50] utilizationCountChargeState 20
scalar OsgEarthNet.uav[50] utilizationCountOverdrawnAfterMission 0
scalar OsgEarthNet.uav[50] utilizationCountIdleState 21
scalar OsgEarthNet.uav[50] utilizationFail 0
scalar OsgEarthNet.uav[50] simulationTime 259200
scalar OsgEarthNet.uav[51] utilizationSecMission 29413.576140446
scalar OsgEarthNet.uav[51] utilizationSecMaintenance 14742.77196884
scalar OsgEarthNet.uav[51] utilizationSecCharge 158181.64189071
scalar OsgEarthNet.uav[51] utilizationSecIdle 56862.009
scalar OsgEarthNet.uav[51] utilizationEnergyMission 142246.41788101
scalar OsgEarthNet.uav[51] utilizationEnergyMaintenance 67741.398300171
scalar OsgEarthNet.uav[51] utilizationEnergyCharge 208322.7668457
scalar OsgEarthNet.uav[51] utilizationEnergyOverdrawMission 0
scalar OsgEarthNet.uav[51] utilizationEnergyOverdrawMaintenance 0
scalar OsgEarthNet.uav[51] utilizationCountMissions 48
scalar OsgEarthNet.uav[51] utilizationCountManeuversMission 862
scalar OsgEarthNet.uav[51] utilizationCountManeuversMaintenance 96
scalar OsgEarthNet.uav[51] utilizationCountChargeState 48
scalar OsgEarthNet.uav[51] utilizationCountOverdrawnAfterMission 0
scalar OsgEarthNet.uav[51] utilizationCountIdleState 30
scalar OsgEarthNet.uav[51] utilizationFail 0
scalar OsgEarthNet.uav[51] simulationTime 259200
scalar OsgEarthNet.uav[52] utilizationSecMission 42856.752758734
scalar OsgEarthNet.uav[52] utilizationSecMaintenance 17116.27568329
scalar OsgEarthNet.uav[52] utilizationSecCharge 197149.52029395
scalar OsgEarthNet.uav[52] utilizationSecIdle 2077.4502640309
scalar OsgEarthNet.uav[52] utilizationEnergyMission 203879.94619751
scalar OsgEarthNet.uav[52] utilizationEnergyMaintenance 78225.365089417
scalar OsgEarthNet.uav[52] utilizationEnergyCharge 281198.68457031
scalar OsgEarthNet.uav[52] utilizationEnergyOverdrawMission 0
scalar OsgEarthNet.uav[52] utilizationEnergyOverdrawMaintenance 0
scalar OsgEarthNet.uav[52] utilizationCountMissions 61
scalar OsgEarthNet.uav[52] utilizationCountManeuversMission 1046
scalar OsgEarthNet.uav[52] utilizationCountManeuversMaintenance 122
scalar OsgEarthNet.uav[52] utilizationCountChargeState 61
scalar OsgEarthNet.uav[52] utilizationCountOverdrawnAfterMission 0
scalar OsgEarthNet.uav[52] utilizationCountIdleState 9
scalar OsgEarthNet.uav[52] utilizationFail 0
scalar OsgEarthNet.uav[52] simulationTime 259200
scalar OsgEarthNet.uav[53] utilizationSecMission 17934.738557694
scalar OsgEarthNet.uav[53] utilizationSecMaintenance 10565.488246822
scalar OsgEarthNet.uav[53] utilizationSecCharge 105680
scalar OsgEarthNet.uav[53] utilizationSecIdle 125019.77219548
scalar OsgEarthNet.uav[53] utilizationEnergyMission 85756.159950256
scalar OsgEarthNet.uav[53] utilizationEnergyMaintenance 50398.280708313
scalar OsgEarthNet.uav[53] utilizationEnergyCharge 136208.19384766
scalar OsgEarthNet.uav[53] utilizationEnergyOverdrawMission 0
scalar OsgEarthNet.uav[53] utilizationEnergyOverdrawMaintenance 0
scalar OsgEarthNet.uav[53] utilizationCountMissions 30
scalar OsgEarthNet.uav[53] utilizationCountManeuversMission 577
scalar OsgEarthNet.uav[53] utilizationCountManeuversMaintenance 59
scalar OsgEarthNet.uav[53] utilizationCountChargeState 30
scalar OsgEarthNet.uav[53] utilizationCountOverdrawnAfterMission 0
scalar OsgEarthNet.uav[53] utilizationCountIdleState 31
scalar OsgEarthNet.uav[53] utilizationFail 0
scalar OsgEarthNet.uav[53] simulationTime 259200
scalar OsgEarthNet.uav[54] utilizationSecMission 20191.147134875
scalar OsgEarthNet.uav[54] utilizationSecMaintenance 13111.548682447
scalar OsgEarthNet.uav[54] utilizationSecCharge 130300
scalar OsgEarthNet.uav[54] utilizationSecIdle 95597.303182678
scalar OsgEarthNet.uav[54] utilizationEnergyMission 96365.725006103
scalar OsgEarthNet.uav[54] utilizationEnergyMaintenance 62303.282840729
scalar OsgEarthNet.uav[54] utilizationEnergyCharge 159031.83007812
scalar OsgEarthNet.uav[54] utilizationEnergyOverdrawMission 0
scalar OsgEarthNet.uav[54] utilizationEnergyOverdrawMaintenance 0
scalar OsgEarthNet.uav[54] utilizationCountMissions 42
scalar OsgEarthNet.uav[54] utilizationCountManeuversMission 518
scalar OsgEarthNet.uav[54] utilizationCountManeuversMaintenance 84
scalar OsgEarthNet.uav[54] utilizationCountChargeState 42
scalar OsgEarthNet.uav[54] utilizationCountOverdrawnAfterMission 0
scalar OsgEarthNet.uav[54] utilizationCountIdleState 43
scalar OsgEarthNet.uav[54] utilizationFail 0
scalar OsgEarthNet.uav[54] simulationTime 259200
scalar OsgEarthNet.uav[55] utilizationSecMission 41249.189313
scalar OsgEarthNet.uav[55] utilizationSecMaintenance 17515.46696414
scalar OsgEarthNet.uav[55] utilizationSecCharge 195674.63466563
scalar OsgEarthNet.uav[55] utilizationSecIdle 4760.7080572282
scalar OsgEarthNet.uav[55] utilizationEnergyMission 197082.35816193
scalar OsgEarthNet.uav[55] utilizationEnergyMaintenance 80898.655452728
scalar OsgEarthNet.uav[55] utilizationEnergyCharge 276721.82910156
scalar OsgEarthNet.uav[55] utilizationEnergyOverdrawMission 0
scalar OsgEarthNet.uav[55] utilizationEnergyOverdrawMaintenance 0
scalar OsgEarthNet.uav[55] utilizationCountMissions 61
scalar OsgEarthNet.uav[55] utilizationCountManeuversMission 1126
scalar OsgEarthNet.uav[55] utilizationCountManeuversMaintenance 122
scalar OsgEarthNet.uav[55] utilizationCountChargeState 61
scalar OsgEarthNet.uav[55] utilizationCountOverdrawnAfterMission 0
scalar OsgEarthNet.uav[55] utilizationCountIdleState 16
scalar OsgEarthNet.uav[55] utilizationFail 0
scalar OsgEarthNet.uav[55] simulationTime 259200
scalar OsgEarthNet.uav[56] utilizationSecMission 15423.750915482
scalar OsgEarthNet.uav[56] utilizationSecMaintenance 11624.480195716
scalar OsgEarthNet.uav[56] utilizationSecCharge 99769.762888802
scalar OsgEarthNet.uav[56] utilizationSecIdle 132382.005
scalar OsgEarthNet.uav[56] utilizationEnergyMission 77338.033592224
scalar OsgEarthNet.uav[56] utilizationEnergyMaintenance 54878.64156723
scalar OsgEarthNet.uav[56] utilizationEnergyCharge 129030.52319336
scalar OsgEarthNet.uav[56] utilizationEnergyOverdrawMission 0
scalar OsgEarthNet.uav[56] utilizationEnergyOverdrawMaintenance 0
scalar OsgEarthNet.uav[56] utilizationCountMissions 29
scalar OsgEarthNet.uav[56] utilizationCountManeuversMission 615
scalar OsgEarthNet.uav[56] utilizationCountManeuversMaintenance 58
scalar OsgEarthNet.uav[56] utilizationCountChargeState 29
scalar OsgEarthNet.uav[56] utilizationCountOverdrawnAfterMission 0
scalar OsgEarthNet.uav[56] utilizationCountIdleState 29
scalar OsgEarthNet.uav[56] utilizationFail 0
scalar OsgEarthNet.uav[56] simulationTime 259200
scalar OsgEarthNet.uav[57] utilizationSecMission 19352.551275619
scalar OsgEarthNet.uav[57] utilizationSecMaintenance 13368.905167545
scalar OsgEarthNet.uav[57] utilizationSecCharge 128693.8368578
scalar OsgEarthNet.uav[57] utilizationSecIdle 97784.705699036
scalar OsgEarthNet.uav[57] utilizationEnergyMission 94288.535587311
scalar OsgEarthNet.uav[57] utilizationEnergyMaintenance 64243.621574402
scalar OsgEarthNet.uav[57] utilizationEnergyCharge 158614.99731445
scalar OsgEarthNet.uav[57] utilizationEnergyOverdrawMission 0
scalar OsgEarthNet.uav[57] utilizationEnergyOverdrawMaintenance 0
scalar OsgEarthNet.uav[57] utilizationCountMissions 41
scalar OsgEarthNet.uav[57] utilizationCountManeuversMission 580
scalar OsgEarthNet.uav[57] utilizationCountManeuversMaintenance 82
scalar OsgEarthNet.uav[57] utilizationCountChargeState 41
scalar OsgEarthNet.uav[57] utilizationCountOverdrawnAfterMission 0
scalar OsgEarthNet.uav[57] utilizationCountIdleState 41
scalar OsgEarthNet.uav[57] utilizationFail 0
scalar OsgEarthNet.uav[57] simulationTime 259200
scalar OsgEarthNet.uav[58] utilizationSecMission 41426.477382957
scalar OsgEarthNet.uav[58] utilizationSecMaintenance 19048.473299356
scalar OsgEarthNet.uav[58] utilizationSecCharge 196995.82870377
scalar OsgEarthNet.uav[58] utilizationSecIdle 1729.2196139157
scalar OsgEarthNet.uav[58] utilizationEnergyMission 198725.30154037
scalar OsgEarthNet.uav[58] utilizationEnergyMaintenance 88324.843917847
scalar OsgEarthNet.uav[58] utilizationEnergyCharge 284713.14233398
scalar OsgEarthNet.uav[58] utilizationEnergyOverdrawMission 0
scalar OsgEarthNet.uav[58] utilizationEnergyOverdrawMaintenance 0
scalar OsgEarthNet.uav[58] utilizationCountMissions 63
scalar OsgEarthNet.uav[58] utilizationCountManeuversMission 1285
scalar OsgEarthNet.uav[58] utilizationCountManeuversMaintenance 126
scalar OsgEarthNet.uav[58] utilizationCountChargeState 63
scalar OsgEarthNet.uav[58] utilizationCountOverdrawnAfterMission 0
scalar OsgEarthNet.uav[58] utilizationCountIdleState 10
scalar OsgEarthNet.uav[58] utilizationFail 0
scalar OsgEarthNet.uav[58] simulationTime 259200
scalar OsgEarthNet.uav[59] utilizationSecMission 42267.895625483
scalar OsgEarthNet.uav[59] utilizationSecMaintenance 18085.398112569
scalar OsgEarthNet.uav[59] utilizationSecCharge 197644.70526195
scalar OsgEarthNet.uav[59] utilizationSecIdle 1202
scalar OsgEarthNet.uav[59] utilizationEnergyMission 203031.03341675
scalar OsgEarthNet.uav[59] utilizationEnergyMaintenance 82573.913013458
scalar OsgEarthNet.uav[59] utilizationEnergyCharge 281285.5289917
scalar OsgEarthNet.uav[59] utilizationEnergyOverdrawMission 0
scalar OsgEarthNet.uav[59] utilizationEnergyOverdrawMaintenance 0
scalar OsgEarthNet.uav[59] utilizationCountMissions 62
scalar OsgEarthNet.uav[59] utilizationCountManeuversMission 1176
scalar OsgEarthNet.uav[59] utilizationCountManeuversMaintenance 123
scalar OsgEarthNet.uav[59] utilizationCountChargeState 62
scalar OsgEarthNet.uav[59] utilizationCountOverdrawnAfterMission 0
scalar OsgEarthNet.uav[59] utilizationCountIdleState 11
scalar OsgEarthNet.uav[59] utilizationFail 0
scalar OsgEarthNet.uav[59] simulationTime 259200
scalar OsgEarthNet.uav[60] utilizationSecMission 13285.626373223
scalar OsgEarthNet.uav[60] utilizationSecMaintenance 8264.5206064476
scalar OsgEarthNet.uav[60] utilizationSecCharge 80960
scalar OsgEarthNet.uav[60] utilizationSecIdle 156689.85202033
scalar OsgEarthNet.uav[60] utilizationEnergyMission 65771.837581635
scalar OsgEarthNet.uav[60] utilizationEnergyMaintenance 39500.915241241
scalar OsgEarthNet.uav[60] utilizationEnergyCharge 104459.71923828
scalar OsgEarthNet.uav[60] utilizationEnergyOverdrawMission 0
scalar OsgEarthNet.uav[60] utilizationEnergyOverdrawMaintenance 0
scalar OsgEarthNet.uav[60] utilizationCountMissions 23
scalar OsgEarthNet.uav[60] utilizationCountManeuversMission 430
scalar OsgEarthNet.uav[60] utilizationCountManeuversMaintenance 46
scalar OsgEarthNet.uav[60] utilizationCountChargeState 23
scalar OsgEarthNet.uav[60] utilizationCountOverdrawnAfterMission 0
scalar OsgEarthNet.uav[60] utilizationCountIdleState 24
scalar OsgEarthNet.uav[60] utilizationFail 0
scalar OsgEarthNet.uav[60] simulationTime 259200
scalar OsgEarthNet.uav[61] utilizationSecMission 18382.469769131
scalar OsgEarthNet.uav[61] utilizationSecMaintenance 12991.938072783
scalar OsgEarthNet.uav[61] utilizationSecCharge 122100
scalar OsgEarthNet.uav[61] utilizationSecIdle 105725.59115809
scalar OsgEarthNet.uav[61] utilizationEnergyMission 90111.876625061
scalar OsgEarthNet.uav[61] utilizationEnergyMaintenance 61520.019275665
scalar OsgEarthNet.uav[61] utilizationEnergyCharge 151533.98901367
scalar OsgEarthNet.uav[61] utilizationEnergyOverdrawMission 0
scalar OsgEarthNet.uav[61] utilizationEnergyOverdrawMaintenance 0
scalar OsgEarthNet.uav[61] utilizationCountMissions 38
scalar OsgEarthNet.uav[61] utilizationCountManeuversMission 645
scalar OsgEarthNet.uav[61] utilizationCountManeuversMaintenance 76
scalar OsgEarthNet.uav[61] utilizationCountChargeState 38
scalar OsgEarthNet.uav[61] utilizationCountOverdrawnAfterMission 0
scalar OsgEarthNet.uav[61] utilizationCountIdleState 39
scalar OsgEarthNet.uav[61] utilizationFail 0
scalar OsgEarthNet.uav[61] simulationTime 259200
scalar OsgEarthNet.uav[62] utilizationSecMission 41374.810033927
scalar OsgEarthNet.uav[62] utilizationSecMaintenance 17126.572529037
scalar OsgEarthNet.uav[62] utilizationSecCharge 197676.61443704
scalar OsgEarthNet.uav[62] utilizationSecIdle 3022.002
scalar OsgEarthNet.uav[62] utilizationEnergyMission 200448.84159851
scalar OsgEarthNet.uav[62] utilizationEnergyMaintenance 78764.943031311
scalar OsgEarthNet.uav[62] utilizationEnergyCharge 280555.41503906
scalar OsgEarthNet.uav[62] utilizationEnergyOverdrawMission 0
scalar OsgEarthNet.uav[62] utilizationEnergyOverdrawMaintenance 0
scalar OsgEarthNet.uav[62] utilizationCountMissions 61
scalar OsgEarthNet.uav[62] utilizationCountManeuversMission 1197
scalar OsgEarthNet.uav[62] utilizationCountManeuversMaintenance 122
scalar OsgEarthNet.uav[62] utilizationCountChargeState 61
scalar OsgEarthNet.uav[62] utilizationCountOverdrawnAfterMission 0
scalar OsgEarthNet.uav[62] utilizationCountIdleState 15
scalar OsgEarthNet.uav[62] utilizationFail 0
scalar OsgEarthNet.uav[62] simulationTime 259200
scalar OsgEarthNet.uav[63] utilizationSecMission 15205.001220642
scalar OsgEarthNet.uav[63] utilizationSecMaintenance 10308.49303056
scalar OsgEarthNet.uav[63] utilizationSecCharge 94360
scalar OsgEarthNet.uav[63] utilizationSecIdle 139326.5047488
scalar OsgEarthNet.uav[63] utilizationEnergyMission 77132.367622375
scalar OsgEarthNet.uav[63] utilizationEnergyMaintenance 49018.34784317
scalar OsgEarthNet.uav[63] utilizationEnergyCharge 121518.55712891
scalar OsgEarthNet.uav[63] utilizationEnergyOverdrawMission 0
scalar OsgEarthNet.uav[63] utilizationEnergyOverdrawMaintenance 0
scalar OsgEarthNet.uav[63] utilizationCountMissions 27
scalar OsgEarthNet.uav[63] utilizationCountManeuversMission 552
scalar OsgEarthNet.uav[63] utilizationCountManeuversMaintenance 54
scalar OsgEarthNet.uav[63] utilizationCountChargeState 27
scalar OsgEarthNet.uav[63] utilizationCountOverdrawnAfterMission 0
scalar OsgEarthNet.uav[63] utilizationCountIdleState 28
scalar OsgEarthNet.uav[63] utilizationFail 0
scalar OsgEarthNet.uav[63] simulationTime 259200
scalar OsgEarthNet.uav[64] utilizationSecMission 18308.064768433
scalar OsgEarthNet.uav[64] utilizationSecMaintenance 13225.904506019
scalar OsgEarthNet.uav[64] utilizationSecCharge 124694.01672555
scalar OsgEarthNet.uav[64] utilizationSecIdle 102972.013
scalar OsgEarthNet.uav[64] utilizationEnergyMission 88274.707286835
scalar OsgEarthNet.uav[64] utilizationEnergyMaintenance 62982.220775604
scalar OsgEarthNet.uav[64] utilizationEnergyCharge 152461.96826172
scalar OsgEarthNet.uav[64] utilizationEnergyOverdrawMission 0
scalar OsgEarthNet.uav[64] utilizationEnergyOverdrawMaintenance 0
scalar OsgEarthNet.uav[64] utilizationCountMissions 41
scalar OsgEarthNet.uav[64] utilizationCountManeuversMission 528
scalar OsgEarthNet.uav[64] utilizationCountManeuversMaintenance 82
scalar OsgEarthNet.uav[64] utilizationCountChargeState 41
scalar OsgEarthNet.uav[64] utilizationCountOverdrawnAfterMission 0
scalar OsgEarthNet.uav[64] utilizationCountIdleState 41
scalar OsgEarthNet.uav[64] utilizationFail 0
scalar OsgEarthNet.uav[64] simulationTime 259200
scalar OsgEarthNet.uav[65] utilizationSecMission 40870.096439256
scalar OsgEarthNet.uav[65] utilizationSecMaintenance 19037.199893027
scalar OsgEarthNet.uav[65] utilizationSecCharge 196660
scalar OsgEarthNet.uav[65] utilizationSecIdle 2632.7026677176
[...]
scalar OsgEarthNet.uav[79] utilizationEnergyOverdrawMaintenance 0
scalar OsgEarthNet.uav[79] utilizationCountMissions 27
scalar OsgEarthNet.uav[79] utilizationCountManeuversMission 518
scalar OsgEarthNet.uav[79] utilizationCountManeuversMaintenance 54
scalar OsgEarthNet.uav[79] utilizationCountChargeState 27
scalar OsgEarthNet.uav[79] utilizationCountOverdrawnAfterMission 0
scalar OsgEarthNet.uav[79] utilizationCountIdleState 27
scalar OsgEarthNet.uav[79] utilizationFail 0
scalar OsgEarthNet.uav[79] simulationTime 259200
scalar OsgEarthNet.uav[80] utilizationSecMission 15285.001220642
scalar OsgEarthNet.uav[80] utilizationSecMaintenance 10843.292079378
scalar OsgEarthNet.uav[80] utilizationSecCharge 99090
scalar OsgEarthNet.uav[80] utilizationSecIdle 133981.70569998
scalar OsgEarthNet.uav[80] utilizationEnergyMission 75377.125198364
scalar OsgEarthNet.uav[80] utilizationEnergyMaintenance 51864.450912475
scalar OsgEarthNet.uav[80] utilizationEnergyCharge 127910.17773438
scalar OsgEarthNet.uav[80] utilizationEnergyOverdrawMission 0
scalar OsgEarthNet.uav[80] utilizationEnergyOverdrawMaintenance 0
scalar OsgEarthNet.uav[80] utilizationCountMissions 28
scalar OsgEarthNet.uav[80] utilizationCountManeuversMission 556
scalar OsgEarthNet.uav[80] utilizationCountManeuversMaintenance 56
scalar OsgEarthNet.uav[80] utilizationCountChargeState 28
scalar OsgEarthNet.uav[80] utilizationCountOverdrawnAfterMission 0
scalar OsgEarthNet.uav[80] utilizationCountIdleState 29
scalar OsgEarthNet.uav[80] utilizationFail 0
scalar OsgEarthNet.uav[80] simulationTime 259200
scalar OsgEarthNet.uav[81] utilizationSecMission 20608.158632275
scalar OsgEarthNet.uav[81] utilizationSecMaintenance 13908.050804588
scalar OsgEarthNet.uav[81] utilizationSecCharge 131341.77856314
scalar OsgEarthNet.uav[81] utilizationSecIdle 93342.011
scalar OsgEarthNet.uav[81] utilizationEnergyMission 100839.18040085
scalar OsgEarthNet.uav[81] utilizationEnergyMaintenance 65385.740825653
scalar OsgEarthNet.uav[81] utilizationEnergyCharge 166463.2565918
scalar OsgEarthNet.uav[81] utilizationEnergyOverdrawMission 0
scalar OsgEarthNet.uav[81] utilizationEnergyOverdrawMaintenance 0
scalar OsgEarthNet.uav[81] utilizationCountMissions 40
scalar OsgEarthNet.uav[81] utilizationCountManeuversMission 735
scalar OsgEarthNet.uav[81] utilizationCountManeuversMaintenance 80
scalar OsgEarthNet.uav[81] utilizationCountChargeState 40
scalar OsgEarthNet.uav[81] utilizationCountOverdrawnAfterMission 0
scalar OsgEarthNet.uav[81] utilizationCountIdleState 40
scalar OsgEarthNet.uav[81] utilizationFail 0
scalar OsgEarthNet.uav[81] simulationTime 259200
scalar OsgEarthNet.uav[82] utilizationSecMission 41148.881665039
scalar OsgEarthNet.uav[82] utilizationSecMaintenance 18277.395492359
scalar OsgEarthNet.uav[82] utilizationSecCharge 196141.7168426
scalar OsgEarthNet.uav[82] utilizationSecIdle 3632.005
scalar OsgEarthNet.uav[82] utilizationEnergyMission 198886.36422348
scalar OsgEarthNet.uav[82] utilizationEnergyMaintenance 84763.871753693
scalar OsgEarthNet.uav[82] utilizationEnergyCharge 282554.45959473
scalar OsgEarthNet.uav[82] utilizationEnergyOverdrawMission 0
scalar OsgEarthNet.uav[82] utilizationEnergyOverdrawMaintenance 0
scalar OsgEarthNet.uav[82] utilizationCountMissions 62
scalar OsgEarthNet.uav[82] utilizationCountManeuversMission 1312
scalar OsgEarthNet.uav[82] utilizationCountManeuversMaintenance 124
scalar OsgEarthNet.uav[82] utilizationCountChargeState 62
scalar OsgEarthNet.uav[82] utilizationCountOverdrawnAfterMission 0
scalar OsgEarthNet.uav[82] utilizationCountIdleState 8
scalar OsgEarthNet.uav[82] utilizationFail 0
scalar OsgEarthNet.uav[82] simulationTime 259200
scalar OsgEarthNet.uav[83] utilizationSecMission 16208.280588885
scalar OsgEarthNet.uav[83] utilizationSecMaintenance 10027.073989192
scalar OsgEarthNet.uav[83] utilizationSecCharge 97830
scalar OsgEarthNet.uav[83] utilizationSecIdle 135134.64442192
scalar OsgEarthNet.uav[83] utilizationEnergyMission 79995.892209215
scalar OsgEarthNet.uav[83] utilizationEnergyMaintenance 47841.68554306
scalar OsgEarthNet.uav[83] utilizationEnergyCharge 125755.22607422
scalar OsgEarthNet.uav[83] utilizationEnergyOverdrawMission 0
scalar OsgEarthNet.uav[83] utilizationEnergyOverdrawMaintenance 0
scalar OsgEarthNet.uav[83] utilizationCountMissions 28
scalar OsgEarthNet.uav[83] utilizationCountManeuversMission 529
scalar OsgEarthNet.uav[83] utilizationCountManeuversMaintenance 57
scalar OsgEarthNet.uav[83] utilizationCountChargeState 28
scalar OsgEarthNet.uav[83] utilizationCountOverdrawnAfterMission 0
scalar OsgEarthNet.uav[83] utilizationCountIdleState 29
scalar OsgEarthNet.uav[83] utilizationFail 0
scalar OsgEarthNet.uav[83] simulationTime 259200
scalar OsgEarthNet.uav[84] utilizationSecMission 23545.251471868
scalar OsgEarthNet.uav[84] utilizationSecMaintenance 15721.568731174
scalar OsgEarthNet.uav[84] utilizationSecCharge 151528.56690744
scalar OsgEarthNet.uav[84] utilizationSecIdle 68404.611889516
scalar OsgEarthNet.uav[84] utilizationEnergyMission 115205.43613434
scalar OsgEarthNet.uav[84] utilizationEnergyMaintenance 74628.394634247
scalar OsgEarthNet.uav[84] utilizationEnergyCharge 187717.35327148
scalar OsgEarthNet.uav[84] utilizationEnergyOverdrawMission 0
scalar OsgEarthNet.uav[84] utilizationEnergyOverdrawMaintenance 0
scalar OsgEarthNet.uav[84] utilizationCountMissions 48
scalar OsgEarthNet.uav[84] utilizationCountManeuversMission 730
scalar OsgEarthNet.uav[84] utilizationCountManeuversMaintenance 96
scalar OsgEarthNet.uav[84] utilizationCountChargeState 48
scalar OsgEarthNet.uav[84] utilizationCountOverdrawnAfterMission 0
scalar OsgEarthNet.uav[84] utilizationCountIdleState 48
scalar OsgEarthNet.uav[84] utilizationFail 0
scalar OsgEarthNet.uav[84] simulationTime 259200
scalar OsgEarthNet.uav[85] utilizationSecMission 42365.59505098
scalar OsgEarthNet.uav[85] utilizationSecMaintenance 16974.697004234
scalar OsgEarthNet.uav[85] utilizationSecCharge 195219.87013075
scalar OsgEarthNet.uav[85] utilizationSecIdle 4639.83681404
scalar OsgEarthNet.uav[85] utilizationEnergyMission 204270.26063156
scalar OsgEarthNet.uav[85] utilizationEnergyMaintenance 77428.640377045
scalar OsgEarthNet.uav[85] utilizationEnergyCharge 276017.8460083
scalar OsgEarthNet.uav[85] utilizationEnergyOverdrawMission 0
scalar OsgEarthNet.uav[85] utilizationEnergyOverdrawMaintenance 0
scalar OsgEarthNet.uav[85] utilizationCountMissions 61
scalar OsgEarthNet.uav[85] utilizationCountManeuversMission 1168
scalar OsgEarthNet.uav[85] utilizationCountManeuversMaintenance 122
scalar OsgEarthNet.uav[85] utilizationCountChargeState 61
scalar OsgEarthNet.uav[85] utilizationCountOverdrawnAfterMission 0
scalar OsgEarthNet.uav[85] utilizationCountIdleState 12
scalar OsgEarthNet.uav[85] utilizationFail 0
scalar OsgEarthNet.uav[85] simulationTime 259200
scalar OsgEarthNet.uav[86] utilizationSecMission 12244.376068062
scalar OsgEarthNet.uav[86] utilizationSecMaintenance 8248.2439115979
scalar OsgEarthNet.uav[86] utilizationSecCharge 77550
scalar OsgEarthNet.uav[86] utilizationSecIdle 161157.37902034
scalar OsgEarthNet.uav[86] utilizationEnergyMission 61215.128616333
scalar OsgEarthNet.uav[86] utilizationEnergyMaintenance 38879.472278595
scalar OsgEarthNet.uav[86] utilizationEnergyCharge 99944.729980469
scalar OsgEarthNet.uav[86] utilizationEnergyOverdrawMission 0
scalar OsgEarthNet.uav[86] utilizationEnergyOverdrawMaintenance 0
scalar OsgEarthNet.uav[86] utilizationCountMissions 22
scalar OsgEarthNet.uav[86] utilizationCountManeuversMission 430
scalar OsgEarthNet.uav[86] utilizationCountManeuversMaintenance 44
scalar OsgEarthNet.uav[86] utilizationCountChargeState 22
scalar OsgEarthNet.uav[86] utilizationCountOverdrawnAfterMission 0
scalar OsgEarthNet.uav[86] utilizationCountIdleState 23
scalar OsgEarthNet.uav[86] utilizationFail 0
scalar OsgEarthNet.uav[86] simulationTime 259200
scalar OsgEarthNet.uav[87] utilizationSecMission 23313.888166516
scalar OsgEarthNet.uav[87] utilizationSecMaintenance 14925.403302939
scalar OsgEarthNet.uav[87] utilizationSecCharge 146068.70602382
scalar OsgEarthNet.uav[87] utilizationSecIdle 74892.001506722
scalar OsgEarthNet.uav[87] utilizationEnergyMission 113699.54327393
scalar OsgEarthNet.uav[87] utilizationEnergyMaintenance 70530.940509796
scalar OsgEarthNet.uav[87] utilizationEnergyCharge 181981.44677734
scalar OsgEarthNet.uav[87] utilizationEnergyOverdrawMission 0
scalar OsgEarthNet.uav[87] utilizationEnergyOverdrawMaintenance 0
scalar OsgEarthNet.uav[87] utilizationCountMissions 46
scalar OsgEarthNet.uav[87] utilizationCountManeuversMission 675
scalar OsgEarthNet.uav[87] utilizationCountManeuversMaintenance 92
scalar OsgEarthNet.uav[87] utilizationCountChargeState 46
scalar OsgEarthNet.uav[87] utilizationCountOverdrawnAfterMission 0
scalar OsgEarthNet.uav[87] utilizationCountIdleState 46
scalar OsgEarthNet.uav[87] utilizationFail 0
scalar OsgEarthNet.uav[87] simulationTime 259200
scalar OsgEarthNet.uav[88] utilizationSecMission 41582.772001072
scalar OsgEarthNet.uav[88] utilizationSecMaintenance 17085.225998928
scalar OsgEarthNet.uav[88] utilizationSecCharge 197920
scalar OsgEarthNet.uav[88] utilizationSecIdle 2612.001
scalar OsgEarthNet.uav[88] utilizationEnergyMission 200358.38372206
scalar OsgEarthNet.uav[88] utilizationEnergyMaintenance 79094.135066986
scalar OsgEarthNet.uav[88] utilizationEnergyCharge 280594.234375
scalar OsgEarthNet.uav[88] utilizationEnergyOverdrawMission 0
scalar OsgEarthNet.uav[88] utilizationEnergyOverdrawMaintenance 0
scalar OsgEarthNet.uav[88] utilizationCountMissions 61
scalar OsgEarthNet.uav[88] utilizationCountManeuversMission 1250
scalar OsgEarthNet.uav[88] utilizationCountManeuversMaintenance 123
scalar OsgEarthNet.uav[88] utilizationCountChargeState 61
scalar OsgEarthNet.uav[88] utilizationCountOverdrawnAfterMission 0
scalar OsgEarthNet.uav[88] utilizationCountIdleState 10
scalar OsgEarthNet.uav[88] utilizationFail 0
scalar OsgEarthNet.uav[88] simulationTime 259200
scalar OsgEarthNet.uav[89] utilizationSecMission 17051.311117926
scalar OsgEarthNet.uav[89] utilizationSecMaintenance 10994.669612346
scalar OsgEarthNet.uav[89] utilizationSecCharge 101890
scalar OsgEarthNet.uav[89] utilizationSecIdle 129264.01826973
scalar OsgEarthNet.uav[89] utilizationEnergyMission 83685.142865091
scalar OsgEarthNet.uav[89] utilizationEnergyMaintenance 52132.974281311
scalar OsgEarthNet.uav[89] utilizationEnergyCharge 130957.95898438
scalar OsgEarthNet.uav[89] utilizationEnergyOverdrawMission 0
scalar OsgEarthNet.uav[89] utilizationEnergyOverdrawMaintenance 0
scalar OsgEarthNet.uav[89] utilizationCountMissions 29
scalar OsgEarthNet.uav[89] utilizationCountManeuversMission 587
scalar OsgEarthNet.uav[89] utilizationCountManeuversMaintenance 59
scalar OsgEarthNet.uav[89] utilizationCountChargeState 29
scalar OsgEarthNet.uav[89] utilizationCountOverdrawnAfterMission 0
scalar OsgEarthNet.uav[89] utilizationCountIdleState 30
scalar OsgEarthNet.uav[89] utilizationFail 0
scalar OsgEarthNet.uav[89] simulationTime 259200
scalar OsgEarthNet.uav[90] utilizationSecMission 17878.385022294
scalar OsgEarthNet.uav[90] utilizationSecMaintenance 10459.600977706
scalar OsgEarthNet.uav[90] utilizationSecCharge 105550
scalar OsgEarthNet.uav[90] utilizationSecIdle 125312.013
scalar OsgEarthNet.uav[90] utilizationEnergyMission 84640.132881165
scalar OsgEarthNet.uav[90] utilizationEnergyMaintenance 49832.435131884
scalar OsgEarthNet.uav[90] utilizationEnergyCharge 136245.66650391
scalar OsgEarthNet.uav[90] utilizationEnergyOverdrawMission 0
scalar OsgEarthNet.uav[90] utilizationEnergyOverdrawMaintenance 0
scalar OsgEarthNet.uav[90] utilizationCountMissions 30
scalar OsgEarthNet.uav[90] utilizationCountManeuversMission 551
scalar OsgEarthNet.uav[90] utilizationCountManeuversMaintenance 61
scalar OsgEarthNet.uav[90] utilizationCountChargeState 30
scalar OsgEarthNet.uav[90] utilizationCountOverdrawnAfterMission 0
scalar OsgEarthNet.uav[90] utilizationCountIdleState 31
scalar OsgEarthNet.uav[90] utilizationFail 0
scalar OsgEarthNet.uav[90] simulationTime 259200
scalar OsgEarthNet.uav[91] utilizationSecMission 18885.73232144
scalar OsgEarthNet.uav[91] utilizationSecMaintenance 15313.479126848
scalar OsgEarthNet.uav[91] utilizationSecCharge 137820
scalar OsgEarthNet.uav[91] utilizationSecIdle 87180.787551711
scalar OsgEarthNet.uav[91] utilizationEnergyMission 91752.866256714
scalar OsgEarthNet.uav[91] utilizationEnergyMaintenance 73429.858184814
scalar OsgEarthNet.uav[91] utilizationEnergyCharge 165970.34765625
scalar OsgEarthNet.uav[91] utilizationEnergyOverdrawMission 0
scalar OsgEarthNet.uav[91] utilizationEnergyOverdrawMaintenance 0
scalar OsgEarthNet.uav[91] utilizationCountMissions 46
scalar OsgEarthNet.uav[91] utilizationCountManeuversMission 658
scalar OsgEarthNet.uav[91] utilizationCountManeuversMaintenance 92
scalar OsgEarthNet.uav[91] utilizationCountChargeState 46
scalar OsgEarthNet.uav[91] utilizationCountOverdrawnAfterMission 0
scalar OsgEarthNet.uav[91] utilizationCountIdleState 47
scalar OsgEarthNet.uav[91] utilizationFail 0
scalar OsgEarthNet.uav[91] simulationTime 259200
scalar OsgEarthNet.uav[92] utilizationSecMission 42356.575358936
scalar OsgEarthNet.uav[92] utilizationSecMaintenance 16921.750591681
scalar OsgEarthNet.uav[92] utilizationSecCharge 197280
scalar OsgEarthNet.uav[92] utilizationSecIdle 2641.673049383
scalar OsgEarthNet.uav[92] utilizationEnergyMission 205362.79199276
scalar OsgEarthNet.uav[92] utilizationEnergyMaintenance 78013.982902527
scalar OsgEarthNet.uav[92] utilizationEnergyCharge 279854.54101562
scalar OsgEarthNet.uav[92] utilizationEnergyOverdrawMission 0
scalar OsgEarthNet.uav[92] utilizationEnergyOverdrawMaintenance 0
scalar OsgEarthNet.uav[92] utilizationCountMissions 61
scalar OsgEarthNet.uav[92] utilizationCountManeuversMission 1273
scalar OsgEarthNet.uav[92] utilizationCountManeuversMaintenance 123
scalar OsgEarthNet.uav[92] utilizationCountChargeState 61
scalar OsgEarthNet.uav[92] utilizationCountOverdrawnAfterMission 0
scalar OsgEarthNet.uav[92] utilizationCountIdleState 13
scalar OsgEarthNet.uav[92] utilizationFail 0
scalar OsgEarthNet.uav[92] simulationTime 259200
scalar OsgEarthNet.uav[93] utilizationSecMission 16677.243792213
scalar OsgEarthNet.uav[93] utilizationSecMaintenance 9956.8006547944
scalar OsgEarthNet.uav[93] utilizationSecCharge 98280
scalar OsgEarthNet.uav[93] utilizationSecIdle 134285.95455299
scalar OsgEarthNet.uav[93] utilizationEnergyMission 81943.515125275
scalar OsgEarthNet.uav[93] utilizationEnergyMaintenance 47594.840175629
scalar OsgEarthNet.uav[93] utilizationEnergyCharge 126480.26269531
scalar OsgEarthNet.uav[93] utilizationEnergyOverdrawMission 0
scalar OsgEarthNet.uav[93] utilizationEnergyOverdrawMaintenance 0
scalar OsgEarthNet.uav[93] utilizationCountMissions 28
scalar OsgEarthNet.uav[93] utilizationCountManeuversMission 526
scalar OsgEarthNet.uav[93] utilizationCountManeuversMaintenance 56
scalar OsgEarthNet.uav[93] utilizationCountChargeState 28
scalar OsgEarthNet.uav[93] utilizationCountOverdrawnAfterMission 0
scalar OsgEarthNet.uav[93] utilizationCountIdleState 29
scalar OsgEarthNet.uav[93] utilizationFail 0
scalar OsgEarthNet.uav[93] simulationTime 259200
scalar OsgEarthNet.uav[94] utilizationSecMission 20483.707781108
scalar OsgEarthNet.uav[94] utilizationSecMaintenance 14480.179425677
scalar OsgEarthNet.uav[94] utilizationSecCharge 136775.99770955
scalar OsgEarthNet.uav[94] utilizationSecIdle 87460.114083665
scalar OsgEarthNet.uav[94] utilizationEnergyMission 101622.36376953
scalar OsgEarthNet.uav[94] utilizationEnergyMaintenance 68589.966964722
scalar OsgEarthNet.uav[94] utilizationEnergyCharge 168911.41430664
scalar OsgEarthNet.uav[94] utilizationEnergyOverdrawMission 0
scalar OsgEarthNet.uav[94] utilizationEnergyOverdrawMaintenance 0
scalar OsgEarthNet.uav[94] utilizationCountMissions 43
scalar OsgEarthNet.uav[94] utilizationCountManeuversMission 703
scalar OsgEarthNet.uav[94] utilizationCountManeuversMaintenance 86
scalar OsgEarthNet.uav[94] utilizationCountChargeState 43
scalar OsgEarthNet.uav[94] utilizationCountOverdrawnAfterMission 0
scalar OsgEarthNet.uav[94] utilizationCountIdleState 43
scalar OsgEarthNet.uav[94] utilizationFail 0
scalar OsgEarthNet.uav[94] simulationTime 259200
scalar OsgEarthNet.uav[95] utilizationSecMission 40525.078947402
scalar OsgEarthNet.uav[95] utilizationSecMaintenance 17596.811189712
scalar OsgEarthNet.uav[95] utilizationSecCharge 195986.10386289
scalar OsgEarthNet.uav[95] utilizationSecIdle 5092.005
scalar OsgEarthNet.uav[95] utilizationEnergyMission 194375.42127228
scalar OsgEarthNet.uav[95] utilizationEnergyMaintenance 81673.492275238
scalar OsgEarthNet.uav[95] utilizationEnergyCharge 279177.31274414
scalar OsgEarthNet.uav[95] utilizationEnergyOverdrawMission 0
scalar OsgEarthNet.uav[95] utilizationEnergyOverdrawMaintenance 0
scalar OsgEarthNet.uav[95] utilizationCountMissions 61
scalar OsgEarthNet.uav[95] utilizationCountManeuversMission 1277
scalar OsgEarthNet.uav[95] utilizationCountManeuversMaintenance 122
scalar OsgEarthNet.uav[95] utilizationCountChargeState 61
scalar OsgEarthNet.uav[95] utilizationCountOverdrawnAfterMission 0
scalar OsgEarthNet.uav[95] utilizationCountIdleState 15
scalar OsgEarthNet.uav[95] utilizationFail 0
scalar OsgEarthNet.uav[95] simulationTime 259200
scalar OsgEarthNet.uav[96] utilizationSecMission 16706.876678383
scalar OsgEarthNet.uav[96] utilizationSecMaintenance 10702.721900026
scalar OsgEarthNet.uav[96] utilizationSecCharge 99728.390421591
scalar OsgEarthNet.uav[96] utilizationSecIdle 132062.01
scalar OsgEarthNet.uav[96] utilizationEnergyMission 80388.573318481
scalar OsgEarthNet.uav[96] utilizationEnergyMaintenance 50772.793666839
scalar OsgEarthNet.uav[96] utilizationEnergyCharge 128835.28125
scalar OsgEarthNet.uav[96] utilizationEnergyOverdrawMission 0
scalar OsgEarthNet.uav[96] utilizationEnergyOverdrawMaintenance 0
scalar OsgEarthNet.uav[96] utilizationCountMissions 29
scalar OsgEarthNet.uav[96] utilizationCountManeuversMission 549
scalar OsgEarthNet.uav[96] utilizationCountManeuversMaintenance 58
scalar OsgEarthNet.uav[96] utilizationCountChargeState 29
scalar OsgEarthNet.uav[96] utilizationCountOverdrawnAfterMission 0
scalar OsgEarthNet.uav[96] utilizationCountIdleState 29
scalar OsgEarthNet.uav[96] utilizationFail 0
scalar OsgEarthNet.uav[96] simulationTime 259200
scalar OsgEarthNet.uav[97] utilizationSecMission 23458.240138763
scalar OsgEarthNet.uav[97] utilizationSecMaintenance 15461.773620088
scalar OsgEarthNet.uav[97] utilizationSecCharge 150110
scalar OsgEarthNet.uav[97] utilizationSecIdle 70169.985241149
scalar OsgEarthNet.uav[97] utilizationEnergyMission 115508.55034637
scalar OsgEarthNet.uav[97] utilizationEnergyMaintenance 72840.733894348
scalar OsgEarthNet.uav[97] utilizationEnergyCharge 187806.30322266
scalar OsgEarthNet.uav[97] utilizationEnergyOverdrawMission 0
scalar OsgEarthNet.uav[97] utilizationEnergyOverdrawMaintenance 0
scalar OsgEarthNet.uav[97] utilizationCountMissions 46
scalar OsgEarthNet.uav[97] utilizationCountManeuversMission 764
scalar OsgEarthNet.uav[97] utilizationCountManeuversMaintenance 92
scalar OsgEarthNet.uav[97] utilizationCountChargeState 46
scalar OsgEarthNet.uav[97] utilizationCountOverdrawnAfterMission 0
scalar OsgEarthNet.uav[97] utilizationCountIdleState 47
scalar OsgEarthNet.uav[97] utilizationFail 0
scalar OsgEarthNet.uav[97] simulationTime 259200
scalar OsgEarthNet.cs[0] usedPower 3987858.2962201
scalar OsgEarthNet.cs[0] chargedPower 3987858.2962201
scalar OsgEarthNet.cs[0] chargedMobileNodes 876
scalar OsgEarthNet.cs[0] reservations 888
scalar OsgEarthNet.cs[1] usedPower 4154803.6114412
scalar OsgEarthNet.cs[1] chargedPower 4154803.6114412
scalar OsgEarthNet.cs[1] chargedMobileNodes 1035
scalar OsgEarthNet.cs[1] reservations 1049
scalar OsgEarthNet.cs[2] usedPower 8701420.2973587
scalar OsgEarthNet.cs[2] chargedPower 8701420.2973587
scalar OsgEarthNet.cs[2] chargedMobileNodes 304
scalar OsgEarthNet.cs[2] reservations 1906

