version 2
run Szenario_Hotel_Gabelbach-44-20180722-01:37:47-18084
attr configname Szenario_Hotel_Gabelbach
attr datetime 20180722-01:37:47
attr experiment Szenario_Hotel_Gabelbach
attr inifile omnetpp.ini
attr iterationvars "$replM=2, $biWeight=0.35, $replSearchM=1, $numUAVs=200"
attr iterationvarsf replM=2,biWeight=0.35,replSearchM=1,numUAVs=200-
attr measurement "$replM=2, $biWeight=0.35, $replSearchM=1, $numUAVs=200"
attr network OsgEarthNet
attr processid 18084
attr repetition 20
attr replication #20
attr resultdir results
attr runnumber 44
attr seedset 44
itervar biWeight 0.35
itervar numUAVs 200
itervar replM 2
itervar replSearchM 1
param *.osgEarthScene.scene "\"Szenario_Hotel_Gabelbach.earth\""
param *.playgroundLatitude 50.6830269
param *.playgroundLongitude 10.8538055
param *.playgroundWidth 3500m
param *.playgroundHeight 3500m
param *.cs[0].posX 3537m
param *.cs[0].posY 965m
param *.cs[0].posZ 538m
param *.cs[1].posX 312m
param *.cs[1].posY 1262m
param *.cs[1].posZ 539m
param *.cs[2].posX 2185m
param *.cs[2].posY 3026m
param *.cs[2].posZ 777m
param *.cs[3].posX 10m
param *.cs[3].posY 2200m
param *.cs[3].posZ 560m
param *.cs[4].posX 750m
param *.cs[4].posY 200m
param *.cs[4].posZ 540m
param *.cs[5].posX 2450m
param *.cs[5].posY 180m
param *.cs[5].posZ 524m
param *.cs[6].posX 3140m
param *.cs[6].posY 1790m
param *.cs[6].posZ 606m
param *.numCSs 3
param *.uav[*].replacementMethod 2
param *.uav[*].weightedSumWeight 0.35
param *.missionControl.replacementSearchMethod 1
param *.numUAVs 200
param *.*.timeStep 10s
param *.uav[*].commandPreviewCommandCount 20
param *.missionControl.missionFiles "\"missions\\\\Szenario_WB_Hotel_Gabelbach_Mission_Hotel.waypoints,missions\\\\Szenario_WB_Hotel_Gabelbach_Mission_Kickelhahn.waypoints,missions\\\\Szenario_WB_Hotel_Gabelbach_Mission_Ilmenau_Sportplatz.waypoints,missions\\\\Szenario_WB_Hotel_Gabelbach_Mission_Manebach_Mitte.waypoints,missions\\\\Szenario_WB_Hotel_Gabelbach_Mission_Manebach_Sued.waypoints,missions\\\\Szenario_WB_Hotel_Gabelbach_Hover_HoheSchlaufe.waypoints,missions\\\\Szenario_WB_Hotel_Gabelbach_Hover_Kickelhahn.waypoints,missions\\\\Szenario_WB_Hotel_Gabelbach_Hover_Gabelbachskopf.waypoints,missions\\\\Szenario_WB_Hotel_Gabelbach_Hover_Dachskopf.waypoints\""
param *.uav[0].startX 3537m
param *.uav[0].startY 965m
param *.uav[0].startZ 539m
param *.uav[1].startX 312m
param *.uav[1].startY 1262m
param *.uav[1].startZ 540m
param *.uav[2].startX 2185m
param *.uav[2].startY 3026m
param *.uav[2].startZ 778m
param *.uav[3].startX 3537m
param *.uav[3].startY 965m
param *.uav[3].startZ 539m
param *.uav[4].startX 312m
param *.uav[4].startY 1262m
param *.uav[4].startZ 540m
param *.uav[5].startX 2185m
param *.uav[5].startY 3026m
param *.uav[5].startZ 778m
param *.uav[6].startX 3537m
param *.uav[6].startY 965m
param *.uav[6].startZ 539m
param *.uav[7].startX 312m
param *.uav[7].startY 1262m
param *.uav[7].startZ 540m
param *.uav[8].startX 2185m
param *.uav[8].startY 3026m
param *.uav[8].startZ 778m
param *.uav[9].startX 3537m
param *.uav[9].startY 965m
param *.uav[9].startZ 539m
param *.uav[10].startX 3537m
param *.uav[10].startY 965m
param *.uav[10].startZ 539m
param *.uav[11].startX 312m
param *.uav[11].startY 1262m
param *.uav[11].startZ 540m
param *.uav[12].startX 2185m
param *.uav[12].startY 3026m
param *.uav[12].startZ 778m
param *.uav[13].startX 3537m
param *.uav[13].startY 965m
param *.uav[13].startZ 539m
param *.uav[14].startX 312m
param *.uav[14].startY 1262m
param *.uav[14].startZ 540m
param *.uav[15].startX 2185m
param *.uav[15].startY 3026m
param *.uav[15].startZ 778m
param *.uav[16].startX 3537m
param *.uav[16].startY 965m
param *.uav[16].startZ 539m
param *.uav[17].startX 312m
param *.uav[17].startY 1262m
param *.uav[17].startZ 540m
param *.uav[18].startX 2185m
param *.uav[18].startY 3026m
param *.uav[18].startZ 778m
param *.uav[19].startX 3537m
param *.uav[19].startY 965m
param *.uav[19].startZ 539m
param *.uav[20].startX 3537m
param *.uav[20].startY 965m
param *.uav[20].startZ 539m
param *.uav[21].startX 312m
param *.uav[21].startY 1262m
param *.uav[21].startZ 540m
param *.uav[22].startX 2185m
param *.uav[22].startY 3026m
param *.uav[22].startZ 778m
param *.uav[23].startX 3537m
param *.uav[23].startY 965m
param *.uav[23].startZ 539m
param *.uav[24].startX 312m
param *.uav[24].startY 1262m
param *.uav[24].startZ 540m
param *.uav[25].startX 2185m
param *.uav[25].startY 3026m
param *.uav[25].startZ 778m
param *.uav[26].startX 3537m
param *.uav[26].startY 965m
param *.uav[26].startZ 539m
param *.uav[27].startX 312m
param *.uav[27].startY 1262m
param *.uav[27].startZ 540m
param *.uav[28].startX 2185m
param *.uav[28].startY 3026m
param *.uav[28].startZ 778m
param *.uav[29].startX 3537m
param *.uav[29].startY 965m
param *.uav[29].startZ 539m
param *.uav[30].startX 3537m
param *.uav[30].startY 965m
param *.uav[30].startZ 539m
param *.uav[31].startX 312m
param *.uav[31].startY 1262m
param *.uav[31].startZ 540m
param *.uav[32].startX 2185m
param *.uav[32].startY 3026m
param *.uav[32].startZ 778m
param *.uav[33].startX 3537m
param *.uav[33].startY 965m
param *.uav[33].startZ 539m
param *.uav[34].startX 312m
param *.uav[34].startY 1262m
param *.uav[34].startZ 540m
param *.uav[35].startX 2185m
param *.uav[35].startY 3026m
param *.uav[35].startZ 778m
param *.uav[36].startX 3537m
param *.uav[36].startY 965m
param *.uav[36].startZ 539m
param *.uav[37].startX 312m
param *.uav[37].startY 1262m
param *.uav[37].startZ 540m
param *.uav[38].startX 2185m
param *.uav[38].startY 3026m
param *.uav[38].startZ 778m
param *.uav[39].startX 3537m
param *.uav[39].startY 965m
param *.uav[39].startZ 539m
param *.uav[40].startX 3537m
param *.uav[40].startY 965m
param *.uav[40].startZ 539m
param *.uav[41].startX 312m
param *.uav[41].startY 1262m
param *.uav[41].startZ 540m
param *.uav[42].startX 2185m
param *.uav[42].startY 3026m
param *.uav[42].startZ 778m
param *.uav[43].startX 3537m
param *.uav[43].startY 965m
param *.uav[43].startZ 539m
param *.uav[44].startX 312m
param *.uav[44].startY 1262m
param *.uav[44].startZ 540m
param *.uav[45].startX 2185m
param *.uav[45].startY 3026m
param *.uav[45].startZ 778m
param *.uav[46].startX 3537m
param *.uav[46].startY 965m
param *.uav[46].startZ 539m
param *.uav[47].startX 312m
param *.uav[47].startY 1262m
param *.uav[47].startZ 540m
param *.uav[48].startX 2185m
param *.uav[48].startY 3026m
param *.uav[48].startZ 778m
param *.uav[49].startX 3537m
param *.uav[49].startY 965m
param *.uav[49].startZ 539m
param *.uav[50].startX 3537m
param *.uav[50].startY 965m
param *.uav[50].startZ 539m
param *.uav[51].startX 312m
param *.uav[51].startY 1262m
param *.uav[51].startZ 540m
param *.uav[52].startX 2185m
param *.uav[52].startY 3026m
param *.uav[52].startZ 778m
param *.uav[53].startX 3537m
param *.uav[53].startY 965m
param *.uav[53].startZ 539m
param *.uav[54].startX 312m
param *.uav[54].startY 1262m
param *.uav[54].startZ 540m
param *.uav[55].startX 2185m
param *.uav[55].startY 3026m
param *.uav[55].startZ 778m
param *.uav[56].startX 3537m
param *.uav[56].startY 965m
param *.uav[56].startZ 539m
param *.uav[57].startX 312m
param *.uav[57].startY 1262m
param *.uav[57].startZ 540m
param *.uav[58].startX 2185m
param *.uav[58].startY 3026m
param *.uav[58].startZ 778m
param *.uav[59].startX 3537m
param *.uav[59].startY 965m
param *.uav[59].startZ 539m
param *.uav[60].startX 3537m
param *.uav[60].startY 965m
param *.uav[60].startZ 539m
param *.uav[61].startX 312m
param *.uav[61].startY 1262m
param *.uav[61].startZ 540m
param *.uav[62].startX 2185m
param *.uav[62].startY 3026m
param *.uav[62].startZ 778m
param *.uav[63].startX 3537m
param *.uav[63].startY 965m
param *.uav[63].startZ 539m
param *.uav[64].startX 312m
param *.uav[64].startY 1262m
param *.uav[64].startZ 540m
param *.uav[65].startX 2185m
param *.uav[65].startY 3026m
param *.uav[65].startZ 778m
param *.uav[66].startX 3537m
param *.uav[66].startY 965m
param *.uav[66].startZ 539m
param *.uav[67].startX 312m
param *.uav[67].startY 1262m
param *.uav[67].startZ 540m
param *.uav[68].startX 2185m
param *.uav[68].startY 3026m
param *.uav[68].startZ 778m
param *.uav[69].startX 3537m
param *.uav[69].startY 965m
param *.uav[69].startZ 539m
param *.uav[70].startX 3537m
param *.uav[70].startY 965m
param *.uav[70].startZ 539m
param *.uav[71].startX 312m
param *.uav[71].startY 1262m
param *.uav[71].startZ 540m
param *.uav[72].startX 2185m
param *.uav[72].startY 3026m
param *.uav[72].startZ 778m
param *.uav[73].startX 3537m
param *.uav[73].startY 965m
param *.uav[73].startZ 539m
param *.uav[74].startX 312m
param *.uav[74].startY 1262m
param *.uav[74].startZ 540m
param *.uav[75].startX 2185m
param *.uav[75].startY 3026m
param *.uav[75].startZ 778m
param *.uav[76].startX 3537m
param *.uav[76].startY 965m
param *.uav[76].startZ 539m
param *.uav[77].startX 312m
param *.uav[77].startY 1262m
param *.uav[77].startZ 540m
param *.uav[78].startX 2185m
param *.uav[78].startY 3026m
param *.uav[78].startZ 778m
param *.uav[79].startX 3537m
param *.uav[79].startY 965m
param *.uav[79].startZ 539m
param *.uav[80].startX 3537m
param *.uav[80].startY 965m
param *.uav[80].startZ 539m
param *.uav[81].startX 312m
param *.uav[81].startY 1262m
param *.uav[81].startZ 540m
param *.uav[82].startX 2185m
param *.uav[82].startY 3026m
param *.uav[82].startZ 778m
param *.uav[83].startX 3537m
param *.uav[83].startY 965m
param *.uav[83].startZ 539m
param *.uav[84].startX 312m
param *.uav[84].startY 1262m
param *.uav[84].startZ 540m
param *.uav[85].startX 2185m
param *.uav[85].startY 3026m
param *.uav[85].startZ 778m
param *.uav[86].startX 3537m
param *.uav[86].startY 965m
param *.uav[86].startZ 539m
param *.uav[87].startX 312m
param *.uav[87].startY 1262m
param *.uav[87].startZ 540m
param *.uav[88].startX 2185m
param *.uav[88].startY 3026m
param *.uav[88].startZ 778m
param *.uav[89].startX 3537m
param *.uav[89].startY 965m
param *.uav[89].startZ 539m
param *.uav[90].startX 3537m
param *.uav[90].startY 965m
param *.uav[90].startZ 539m
param *.uav[91].startX 312m
param *.uav[91].startY 1262m
param *.uav[91].startZ 540m
param *.uav[92].startX 2185m
param *.uav[92].startY 3026m
param *.uav[92].startZ 778m
param *.uav[93].startX 3537m
param *.uav[93].startY 965m
param *.uav[93].startZ 539m
param *.uav[94].startX 312m
param *.uav[94].startY 1262m
param *.uav[94].startZ 540m
param *.uav[95].startX 2185m
param *.uav[95].startY 3026m
param *.uav[95].startZ 778m
param *.uav[96].startX 3537m
param *.uav[96].startY 965m
param *.uav[96].startZ 539m
param *.uav[97].startX 312m
param *.uav[97].startY 1262m
param *.uav[97].startZ 540m
param *.uav[98].startX 2185m
param *.uav[98].startY 3026m
param *.uav[98].startZ 778m
param *.uav[99].startX 3537m
param *.uav[99].startY 965m
param *.uav[99].startZ 539m
param *.osgEarthScene.scene "\"boston.earth\""
param *.playgroundLatitude 42.3558
param *.playgroundLongitude -71.0677
param *.playgroundWidth 400m
param *.playgroundHeight 200m
param *.channelController.connectionColor "\"#0000FF40\""
param *.channelController.showConnections false
param *.uav[*].modelURL "\"quadrocopter.small.obj.15.scale.0,0,90.rot\""
param *.uav[*].labelColor "\"#FF7C00CC\""
param *.uav[*].label2Color "\"#FF7C00EE\""
param *.uav[*].batteryCapacity 5200mAh
param *.uav[*].batteryRemaining uav[index].batteryCapacity
param *.uav[*].predictionQuantile 0.95
param *.uav[*].replacementMethod 2
param *.uav[*].weightedSumWeight 0.5
param *.cs[*].modelURL "\"chargingstation_v1.osgt.2.scale.0,0,0.rot.0,0,-15e-1.trans\""
param *.cs[*].spotsWaiting 999
param *.cs[*].spotsCharging 999
param *.cs[*].chargeEffectivenessPercentage 100
param *.cs[*].nonLinearPhaseStartPercentage 85
param *.cs[*].chargeCurrent 6.0A
param *.cs[*].prioritizeFastCharge true
param *.missionControl.replacementSearchMethod 0
param *.*.timeStep 9s

scalar OsgEarthNet.uav[0] utilizationSecMission 460
scalar OsgEarthNet.uav[0] utilizationSecMaintenance 447.1303002674
scalar OsgEarthNet.uav[0] utilizationSecCharge 3660
scalar OsgEarthNet.uav[0] utilizationSecIdle 254632.86869973
scalar OsgEarthNet.uav[0] utilizationEnergyMission 2184.6893234253
scalar OsgEarthNet.uav[0] utilizationEnergyMaintenance 2144.8470573425
scalar OsgEarthNet.uav[0] utilizationEnergyCharge 4710.7348632812
scalar OsgEarthNet.uav[0] utilizationEnergyOverdrawMission 0
scalar OsgEarthNet.uav[0] utilizationEnergyOverdrawMaintenance 0
scalar OsgEarthNet.uav[0] utilizationCountMissions 1
scalar OsgEarthNet.uav[0] utilizationCountManeuversMission 23
scalar OsgEarthNet.uav[0] utilizationCountManeuversMaintenance 2
scalar OsgEarthNet.uav[0] utilizationCountChargeState 1
scalar OsgEarthNet.uav[0] utilizationCountOverdrawnAfterMission 0
scalar OsgEarthNet.uav[0] utilizationCountIdleState 2
scalar OsgEarthNet.uav[0] utilizationFail 0
scalar OsgEarthNet.uav[0] simulationTime 259200
scalar OsgEarthNet.uav[1] utilizationSecMission 18256.201177494
scalar OsgEarthNet.uav[1] utilizationSecMaintenance 12402.487962694
scalar OsgEarthNet.uav[1] utilizationSecCharge 119066.6979703
scalar OsgEarthNet.uav[1] utilizationSecIdle 109474.61188952
scalar OsgEarthNet.uav[1] utilizationEnergyMission 88895.299625397
scalar OsgEarthNet.uav[1] utilizationEnergyMaintenance 59153.3943367
scalar OsgEarthNet.uav[1] utilizationEnergyCharge 147606.48291016
scalar OsgEarthNet.uav[1] utilizationEnergyOverdrawMission 0
scalar OsgEarthNet.uav[1] utilizationEnergyOverdrawMaintenance 0
scalar OsgEarthNet.uav[1] utilizationCountMissions 38
scalar OsgEarthNet.uav[1] utilizationCountManeuversMission 555
scalar OsgEarthNet.uav[1] utilizationCountManeuversMaintenance 76
scalar OsgEarthNet.uav[1] utilizationCountChargeState 38
scalar OsgEarthNet.uav[1] utilizationCountOverdrawnAfterMission 0
scalar OsgEarthNet.uav[1] utilizationCountIdleState 38
scalar OsgEarthNet.uav[1] utilizationFail 0
scalar OsgEarthNet.uav[1] simulationTime 259200
scalar OsgEarthNet.uav[2] utilizationSecMission 42360.343041548
scalar OsgEarthNet.uav[2] utilizationSecMaintenance 17488.202999735
scalar OsgEarthNet.uav[2] utilizationSecCharge 197390
scalar OsgEarthNet.uav[2] utilizationSecIdle 1961.4529587171
scalar OsgEarthNet.uav[2] utilizationEnergyMission 200406.22696502
scalar OsgEarthNet.uav[2] utilizationEnergyMaintenance 80798.026386261
scalar OsgEarthNet.uav[2] utilizationEnergyCharge 282635.33837891
scalar OsgEarthNet.uav[2] utilizationEnergyOverdrawMission 0
scalar OsgEarthNet.uav[2] utilizationEnergyOverdrawMaintenance 0
scalar OsgEarthNet.uav[2] utilizationCountMissions 62
scalar OsgEarthNet.uav[2] utilizationCountManeuversMission 1191
scalar OsgEarthNet.uav[2] utilizationCountManeuversMaintenance 125
scalar OsgEarthNet.uav[2] utilizationCountChargeState 62
scalar OsgEarthNet.uav[2] utilizationCountOverdrawnAfterMission 0
scalar OsgEarthNet.uav[2] utilizationCountIdleState 5
scalar OsgEarthNet.uav[2] utilizationFail 0
scalar OsgEarthNet.uav[2] simulationTime 259200
scalar OsgEarthNet.uav[3] utilizationSecMission 420
scalar OsgEarthNet.uav[3] utilizationSecMaintenance 447.1303002674
scalar OsgEarthNet.uav[3] utilizationSecCharge 3500
scalar OsgEarthNet.uav[3] utilizationSecIdle 254832.86869973
scalar OsgEarthNet.uav[3] utilizationEnergyMission 2075.8013305664
scalar OsgEarthNet.uav[3] utilizationEnergyMaintenance 2171.5959587097
scalar OsgEarthNet.uav[3] utilizationEnergyCharge 4461.9375
scalar OsgEarthNet.uav[3] utilizationEnergyOverdrawMission 0
scalar OsgEarthNet.uav[3] utilizationEnergyOverdrawMaintenance 0
scalar OsgEarthNet.uav[3] utilizationCountMissions 1
scalar OsgEarthNet.uav[3] utilizationCountManeuversMission 21
scalar OsgEarthNet.uav[3] utilizationCountManeuversMaintenance 2
scalar OsgEarthNet.uav[3] utilizationCountChargeState 1
scalar OsgEarthNet.uav[3] utilizationCountOverdrawnAfterMission 0
scalar OsgEarthNet.uav[3] utilizationCountIdleState 2
scalar OsgEarthNet.uav[3] utilizationFail 0
scalar OsgEarthNet.uav[3] simulationTime 259200
scalar OsgEarthNet.uav[4] utilizationSecMission 9701.5436907599
scalar OsgEarthNet.uav[4] utilizationSecMaintenance 6368.6018397782
scalar OsgEarthNet.uav[4] utilizationSecCharge 61330
scalar OsgEarthNet.uav[4] utilizationSecIdle 181799.85346946
scalar OsgEarthNet.uav[4] utilizationEnergyMission 47783.013824463
scalar OsgEarthNet.uav[4] utilizationEnergyMaintenance 30008.446994781
scalar OsgEarthNet.uav[4] utilizationEnergyCharge 78054.667724609
scalar OsgEarthNet.uav[4] utilizationEnergyOverdrawMission 0
scalar OsgEarthNet.uav[4] utilizationEnergyOverdrawMaintenance 0
scalar OsgEarthNet.uav[4] utilizationCountMissions 18
scalar OsgEarthNet.uav[4] utilizationCountManeuversMission 359
scalar OsgEarthNet.uav[4] utilizationCountManeuversMaintenance 36
scalar OsgEarthNet.uav[4] utilizationCountChargeState 18
scalar OsgEarthNet.uav[4] utilizationCountOverdrawnAfterMission 0
scalar OsgEarthNet.uav[4] utilizationCountIdleState 19
scalar OsgEarthNet.uav[4] utilizationFail 0
scalar OsgEarthNet.uav[4] simulationTime 259200
scalar OsgEarthNet.uav[5] utilizationSecMission 9706.6618167595
scalar OsgEarthNet.uav[5] utilizationSecMaintenance 5393.6784601301
scalar OsgEarthNet.uav[5] utilizationSecCharge 56180
scalar OsgEarthNet.uav[5] utilizationSecIdle 187919.65872311
scalar OsgEarthNet.uav[5] utilizationEnergyMission 46511.671878815
scalar OsgEarthNet.uav[5] utilizationEnergyMaintenance 25450.363994598
scalar OsgEarthNet.uav[5] utilizationEnergyCharge 72268.348632812
scalar OsgEarthNet.uav[5] utilizationEnergyOverdrawMission 0
scalar OsgEarthNet.uav[5] utilizationEnergyOverdrawMaintenance 0
scalar OsgEarthNet.uav[5] utilizationCountMissions 16
scalar OsgEarthNet.uav[5] utilizationCountManeuversMission 282
scalar OsgEarthNet.uav[5] utilizationCountManeuversMaintenance 32
scalar OsgEarthNet.uav[5] utilizationCountChargeState 16
scalar OsgEarthNet.uav[5] utilizationCountOverdrawnAfterMission 0
scalar OsgEarthNet.uav[5] utilizationCountIdleState 17
scalar OsgEarthNet.uav[5] utilizationFail 0
scalar OsgEarthNet.uav[5] simulationTime 259200
scalar OsgEarthNet.uav[6] utilizationSecMission 5402.5006103211
scalar OsgEarthNet.uav[6] utilizationSecMaintenance 3019.633368754
scalar OsgEarthNet.uav[6] utilizationSecCharge 30950
scalar OsgEarthNet.uav[6] utilizationSecIdle 219827.86502092
scalar OsgEarthNet.uav[6] utilizationEnergyMission 26324.172031403
scalar OsgEarthNet.uav[6] utilizationEnergyMaintenance 14003.046287537
scalar OsgEarthNet.uav[6] utilizationEnergyCharge 39492.950195312
scalar OsgEarthNet.uav[6] utilizationEnergyOverdrawMission 0
scalar OsgEarthNet.uav[6] utilizationEnergyOverdrawMaintenance 0
scalar OsgEarthNet.uav[6] utilizationCountMissions 9
scalar OsgEarthNet.uav[6] utilizationCountManeuversMission 166
scalar OsgEarthNet.uav[6] utilizationCountManeuversMaintenance 18
scalar OsgEarthNet.uav[6] utilizationCountChargeState 9
scalar OsgEarthNet.uav[6] utilizationCountOverdrawnAfterMission 0
scalar OsgEarthNet.uav[6] utilizationCountIdleState 10
scalar OsgEarthNet.uav[6] utilizationFail 0
scalar OsgEarthNet.uav[6] simulationTime 259200
scalar OsgEarthNet.uav[7] utilizationSecMission 8738.8026591191
scalar OsgEarthNet.uav[7] utilizationSecMaintenance 6126.9907920065
scalar OsgEarthNet.uav[7] utilizationSecCharge 58370
scalar OsgEarthNet.uav[7] utilizationSecIdle 185964.20554887
scalar OsgEarthNet.uav[7] utilizationEnergyMission 44193.180831909
scalar OsgEarthNet.uav[7] utilizationEnergyMaintenance 29463.17552948
scalar OsgEarthNet.uav[7] utilizationEnergyCharge 72695.875244141
scalar OsgEarthNet.uav[7] utilizationEnergyOverdrawMission 0
scalar OsgEarthNet.uav[7] utilizationEnergyOverdrawMaintenance 0
scalar OsgEarthNet.uav[7] utilizationCountMissions 18
scalar OsgEarthNet.uav[7] utilizationCountManeuversMission 310
scalar OsgEarthNet.uav[7] utilizationCountManeuversMaintenance 36
scalar OsgEarthNet.uav[7] utilizationCountChargeState 18
scalar OsgEarthNet.uav[7] utilizationCountOverdrawnAfterMission 0
scalar OsgEarthNet.uav[7] utilizationCountIdleState 19
scalar OsgEarthNet.uav[7] utilizationFail 0
scalar OsgEarthNet.uav[7] simulationTime 259200
scalar OsgEarthNet.uav[8] utilizationSecMission 41313.967813475
scalar OsgEarthNet.uav[8] utilizationSecMaintenance 19195.71976639
scalar OsgEarthNet.uav[8] utilizationSecCharge 195060.85307205
scalar OsgEarthNet.uav[8] utilizationSecIdle 3629.4583480894
scalar OsgEarthNet.uav[8] utilizationEnergyMission 197107.96572113
scalar OsgEarthNet.uav[8] utilizationEnergyMaintenance 89270.175445557
scalar OsgEarthNet.uav[8] utilizationEnergyCharge 283773.92199707
scalar OsgEarthNet.uav[8] utilizationEnergyOverdrawMission 0
scalar OsgEarthNet.uav[8] utilizationEnergyOverdrawMaintenance 0
scalar OsgEarthNet.uav[8] utilizationCountMissions 63
scalar OsgEarthNet.uav[8] utilizationCountManeuversMission 1227
scalar OsgEarthNet.uav[8] utilizationCountManeuversMaintenance 126
scalar OsgEarthNet.uav[8] utilizationCountChargeState 63
scalar OsgEarthNet.uav[8] utilizationCountOverdrawnAfterMission 0
scalar OsgEarthNet.uav[8] utilizationCountIdleState 6
scalar OsgEarthNet.uav[8] utilizationFail 0
scalar OsgEarthNet.uav[8] simulationTime 259200
scalar OsgEarthNet.uav[9] utilizationSecMission 8014.0089542322
scalar OsgEarthNet.uav[9] utilizationSecMaintenance 4519.847888333
scalar OsgEarthNet.uav[9] utilizationSecCharge 46160
scalar OsgEarthNet.uav[9] utilizationSecIdle 200506.14215743
scalar OsgEarthNet.uav[9] utilizationEnergyMission 38574.917667389
scalar OsgEarthNet.uav[9] utilizationEnergyMaintenance 21408.901485443
scalar OsgEarthNet.uav[9] utilizationEnergyCharge 59705.041992188
scalar OsgEarthNet.uav[9] utilizationEnergyOverdrawMission 0
scalar OsgEarthNet.uav[9] utilizationEnergyOverdrawMaintenance 0
scalar OsgEarthNet.uav[9] utilizationCountMissions 13
scalar OsgEarthNet.uav[9] utilizationCountManeuversMission 240
scalar OsgEarthNet.uav[9] utilizationCountManeuversMaintenance 26
scalar OsgEarthNet.uav[9] utilizationCountChargeState 13
scalar OsgEarthNet.uav[9] utilizationCountOverdrawnAfterMission 0
scalar OsgEarthNet.uav[9] utilizationCountIdleState 14
scalar OsgEarthNet.uav[9] utilizationFail 0
scalar OsgEarthNet.uav[9] simulationTime 259200
scalar OsgEarthNet.uav[10] utilizationSecMission 6483.7509154817
scalar OsgEarthNet.uav[10] utilizationSecMaintenance 3298.0320917186
scalar OsgEarthNet.uav[10] utilizationSecCharge 36040
scalar OsgEarthNet.uav[10] utilizationSecIdle 213378.2159928
scalar OsgEarthNet.uav[10] utilizationEnergyMission 30997.746776581
scalar OsgEarthNet.uav[10] utilizationEnergyMaintenance 15425.815299988
scalar OsgEarthNet.uav[10] utilizationEnergyCharge 46733.924316406
scalar OsgEarthNet.uav[10] utilizationEnergyOverdrawMission 0
scalar OsgEarthNet.uav[10] utilizationEnergyOverdrawMaintenance 0
scalar OsgEarthNet.uav[10] utilizationCountMissions 10
scalar OsgEarthNet.uav[10] utilizationCountManeuversMission 168
scalar OsgEarthNet.uav[10] utilizationCountManeuversMaintenance 20
scalar OsgEarthNet.uav[10] utilizationCountChargeState 10
scalar OsgEarthNet.uav[10] utilizationCountOverdrawnAfterMission 0
scalar OsgEarthNet.uav[10] utilizationCountIdleState 11
scalar OsgEarthNet.uav[10] utilizationFail 0
scalar OsgEarthNet.uav[10] simulationTime 259200
scalar OsgEarthNet.uav[11] utilizationSecMission 9155.1527572436
scalar OsgEarthNet.uav[11] utilizationSecMaintenance 6312.9208626586
scalar OsgEarthNet.uav[11] utilizationSecCharge 59900
scalar OsgEarthNet.uav[11] utilizationSecIdle 183831.9253801
scalar OsgEarthNet.uav[11] utilizationEnergyMission 44279.562099457
scalar OsgEarthNet.uav[11] utilizationEnergyMaintenance 29565.989242554
scalar OsgEarthNet.uav[11] utilizationEnergyCharge 73799.062744141
scalar OsgEarthNet.uav[11] utilizationEnergyOverdrawMission 0
scalar OsgEarthNet.uav[11] utilizationEnergyOverdrawMaintenance 0
scalar OsgEarthNet.uav[11] utilizationCountMissions 19
scalar OsgEarthNet.uav[11] utilizationCountManeuversMission 301
scalar OsgEarthNet.uav[11] utilizationCountManeuversMaintenance 38
scalar OsgEarthNet.uav[11] utilizationCountChargeState 19
scalar OsgEarthNet.uav[11] utilizationCountOverdrawnAfterMission 0
scalar OsgEarthNet.uav[11] utilizationCountIdleState 20
scalar OsgEarthNet.uav[11] utilizationFail 0
scalar OsgEarthNet.uav[11] simulationTime 259200
scalar OsgEarthNet.uav[12] utilizationSecMission 42394.421924144
scalar OsgEarthNet.uav[12] utilizationSecMaintenance 18063.578824524
scalar OsgEarthNet.uav[12] utilizationSecCharge 197929.99725133
scalar OsgEarthNet.uav[12] utilizationSecIdle 812.001
scalar OsgEarthNet.uav[12] utilizationEnergyMission 208365.96033096
scalar OsgEarthNet.uav[12] utilizationEnergyMaintenance 84211.634174347
scalar OsgEarthNet.uav[12] utilizationEnergyCharge 289541.02539062
scalar OsgEarthNet.uav[12] utilizationEnergyOverdrawMission 0
scalar OsgEarthNet.uav[12] utilizationEnergyOverdrawMaintenance 0
scalar OsgEarthNet.uav[12] utilizationCountMissions 63
scalar OsgEarthNet.uav[12] utilizationCountManeuversMission 1340
scalar OsgEarthNet.uav[12] utilizationCountManeuversMaintenance 126
scalar OsgEarthNet.uav[12] utilizationCountChargeState 63
scalar OsgEarthNet.uav[12] utilizationCountOverdrawnAfterMission 0
scalar OsgEarthNet.uav[12] utilizationCountIdleState 5
scalar OsgEarthNet.uav[12] utilizationFail 0
scalar OsgEarthNet.uav[12] simulationTime 259200
scalar OsgEarthNet.uav[13] utilizationSecMission 42552.449514346
scalar OsgEarthNet.uav[13] utilizationSecMaintenance 18478.112076715
scalar OsgEarthNet.uav[13] utilizationSecCharge 197497.43740894
scalar OsgEarthNet.uav[13] utilizationSecIdle 672
scalar OsgEarthNet.uav[13] utilizationEnergyMission 203464.04079437
scalar OsgEarthNet.uav[13] utilizationEnergyMaintenance 83805.829879761
scalar OsgEarthNet.uav[13] utilizationEnergyCharge 286366.06344604
scalar OsgEarthNet.uav[13] utilizationEnergyOverdrawMission 0
scalar OsgEarthNet.uav[13] utilizationEnergyOverdrawMaintenance 0
scalar OsgEarthNet.uav[13] utilizationCountMissions 64
scalar OsgEarthNet.uav[13] utilizationCountManeuversMission 1293
scalar OsgEarthNet.uav[13] utilizationCountManeuversMaintenance 127
scalar OsgEarthNet.uav[13] utilizationCountChargeState 64
scalar OsgEarthNet.uav[13] utilizationCountOverdrawnAfterMission 0
scalar OsgEarthNet.uav[13] utilizationCountIdleState 5
scalar OsgEarthNet.uav[13] utilizationFail 0
scalar OsgEarthNet.uav[13] simulationTime 259200
scalar OsgEarthNet.uav[14] utilizationSecMission 16194.243887009
scalar OsgEarthNet.uav[14] utilizationSecMaintenance 11060.924112704
scalar OsgEarthNet.uav[14] utilizationSecCharge 104500
scalar OsgEarthNet.uav[14] utilizationSecIdle 127444.83100029
scalar OsgEarthNet.uav[14] utilizationEnergyMission 80567.645557404
scalar OsgEarthNet.uav[14] utilizationEnergyMaintenance 52513.087116241
scalar OsgEarthNet.uav[14] utilizationEnergyCharge 132614.50854492
scalar OsgEarthNet.uav[14] utilizationEnergyOverdrawMission 0
scalar OsgEarthNet.uav[14] utilizationEnergyOverdrawMaintenance 0
scalar OsgEarthNet.uav[14] utilizationCountMissions 31
scalar OsgEarthNet.uav[14] utilizationCountManeuversMission 624
scalar OsgEarthNet.uav[14] utilizationCountManeuversMaintenance 62
scalar OsgEarthNet.uav[14] utilizationCountChargeState 31
scalar OsgEarthNet.uav[14] utilizationCountOverdrawnAfterMission 0
scalar OsgEarthNet.uav[14] utilizationCountIdleState 32
scalar OsgEarthNet.uav[14] utilizationFail 0
scalar OsgEarthNet.uav[14] simulationTime 259200
scalar OsgEarthNet.uav[15] utilizationSecMission 42373.905678004
scalar OsgEarthNet.uav[15] utilizationSecMaintenance 17735.229935178
scalar OsgEarthNet.uav[15] utilizationSecCharge 195185.11469412
scalar OsgEarthNet.uav[15] utilizationSecIdle 3905.7486927025
scalar OsgEarthNet.uav[15] utilizationEnergyMission 206008.39003754
scalar OsgEarthNet.uav[15] utilizationEnergyMaintenance 79801.036182404
scalar OsgEarthNet.uav[15] utilizationEnergyCharge 281206.76501465
scalar OsgEarthNet.uav[15] utilizationEnergyOverdrawMission 0
scalar OsgEarthNet.uav[15] utilizationEnergyOverdrawMaintenance 0
scalar OsgEarthNet.uav[15] utilizationCountMissions 62
scalar OsgEarthNet.uav[15] utilizationCountManeuversMission 1267
scalar OsgEarthNet.uav[15] utilizationCountManeuversMaintenance 124
scalar OsgEarthNet.uav[15] utilizationCountChargeState 62
scalar OsgEarthNet.uav[15] utilizationCountOverdrawnAfterMission 0
scalar OsgEarthNet.uav[15] utilizationCountIdleState 7
scalar OsgEarthNet.uav[15] utilizationFail 0
scalar OsgEarthNet.uav[15] simulationTime 259200
scalar OsgEarthNet.uav[16] utilizationSecMission 6061.8754577408
scalar OsgEarthNet.uav[16] utilizationSecMaintenance 4256.1096611357
scalar OsgEarthNet.uav[16] utilizationSecCharge 38200
scalar OsgEarthNet.uav[16] utilizationSecIdle 210682.01388112
scalar OsgEarthNet.uav[16] utilizationEnergyMission 29992.920310974
scalar OsgEarthNet.uav[16] utilizationEnergyMaintenance 20244.444839477
scalar OsgEarthNet.uav[16] utilizationEnergyCharge 49077.35546875
scalar OsgEarthNet.uav[16] utilizationEnergyOverdrawMission 0
scalar OsgEarthNet.uav[16] utilizationEnergyOverdrawMaintenance 0
scalar OsgEarthNet.uav[16] utilizationCountMissions 11
scalar OsgEarthNet.uav[16] utilizationCountManeuversMission 225
scalar OsgEarthNet.uav[16] utilizationCountManeuversMaintenance 22
scalar OsgEarthNet.uav[16] utilizationCountChargeState 11
scalar OsgEarthNet.uav[16] utilizationCountOverdrawnAfterMission 0
scalar OsgEarthNet.uav[16] utilizationCountIdleState 12
scalar OsgEarthNet.uav[16] utilizationFail 0
scalar OsgEarthNet.uav[16] simulationTime 259200
scalar OsgEarthNet.uav[17] utilizationSecMission 18197.398518375
scalar OsgEarthNet.uav[17] utilizationSecMaintenance 12592.927790608
scalar OsgEarthNet.uav[17] utilizationSecCharge 118597.67269102
scalar OsgEarthNet.uav[17] utilizationSecIdle 109812
scalar OsgEarthNet.uav[17] utilizationEnergyMission 89103.537754059
scalar OsgEarthNet.uav[17] utilizationEnergyMaintenance 59788.035110474
scalar OsgEarthNet.uav[17] utilizationEnergyCharge 149973.06713867
scalar OsgEarthNet.uav[17] utilizationEnergyOverdrawMission 0
scalar OsgEarthNet.uav[17] utilizationEnergyOverdrawMaintenance 0
scalar OsgEarthNet.uav[17] utilizationCountMissions 36
scalar OsgEarthNet.uav[17] utilizationCountManeuversMission 679
scalar OsgEarthNet.uav[17] utilizationCountManeuversMaintenance 72
scalar OsgEarthNet.uav[17] utilizationCountChargeState 36
scalar OsgEarthNet.uav[17] utilizationCountOverdrawnAfterMission 0
scalar OsgEarthNet.uav[17] utilizationCountIdleState 36
scalar OsgEarthNet.uav[17] utilizationFail 0
scalar OsgEarthNet.uav[17] simulationTime 259200
scalar OsgEarthNet.uav[18] utilizationSecMission 21652.17767589
scalar OsgEarthNet.uav[18] utilizationSecMaintenance 12552.04498062
scalar OsgEarthNet.uav[18] utilizationSecCharge 127990
scalar OsgEarthNet.uav[18] utilizationSecIdle 97005.776343491
scalar OsgEarthNet.uav[18] utilizationEnergyMission 104380.00847626
scalar OsgEarthNet.uav[18] utilizationEnergyMaintenance 59215.648406982
scalar OsgEarthNet.uav[18] utilizationEnergyCharge 164859.93579102
scalar OsgEarthNet.uav[18] utilizationEnergyOverdrawMission 0
scalar OsgEarthNet.uav[18] utilizationEnergyOverdrawMaintenance 0
scalar OsgEarthNet.uav[18] utilizationCountMissions 39
scalar OsgEarthNet.uav[18] utilizationCountManeuversMission 687
scalar OsgEarthNet.uav[18] utilizationCountManeuversMaintenance 78
scalar OsgEarthNet.uav[18] utilizationCountChargeState 39
scalar OsgEarthNet.uav[18] utilizationCountOverdrawnAfterMission 0
scalar OsgEarthNet.uav[18] utilizationCountIdleState 32
scalar OsgEarthNet.uav[18] utilizationFail 0
scalar OsgEarthNet.uav[18] simulationTime 259200
scalar OsgEarthNet.uav[19] utilizationSecMission 8005.0012206423
scalar OsgEarthNet.uav[19] utilizationSecMaintenance 3509.6698680533
scalar OsgEarthNet.uav[19] utilizationSecCharge 41980
scalar OsgEarthNet.uav[19] utilizationSecIdle 205705.3279113
scalar OsgEarthNet.uav[19] utilizationEnergyMission 37325.926261902
scalar OsgEarthNet.uav[19] utilizationEnergyMaintenance 16355.083511352
scalar OsgEarthNet.uav[19] utilizationEnergyCharge 54085.45703125
scalar OsgEarthNet.uav[19] utilizationEnergyOverdrawMission 0
scalar OsgEarthNet.uav[19] utilizationEnergyOverdrawMaintenance 0
scalar OsgEarthNet.uav[19] utilizationCountMissions 12
scalar OsgEarthNet.uav[19] utilizationCountManeuversMission 192
scalar OsgEarthNet.uav[19] utilizationCountManeuversMaintenance 24
scalar OsgEarthNet.uav[19] utilizationCountChargeState 12
scalar OsgEarthNet.uav[19] utilizationCountOverdrawnAfterMission 0
scalar OsgEarthNet.uav[19] utilizationCountIdleState 13
scalar OsgEarthNet.uav[19] utilizationFail 0
scalar OsgEarthNet.uav[19] simulationTime 259200
scalar OsgEarthNet.uav[20] utilizationSecMission 6462.5006103211
scalar OsgEarthNet.uav[20] utilizationSecMaintenance 4079.200145849
scalar OsgEarthNet.uav[20] utilizationSecCharge 39090
scalar OsgEarthNet.uav[20] utilizationSecIdle 209568.29824383
scalar OsgEarthNet.uav[20] utilizationEnergyMission 30956.415981293
scalar OsgEarthNet.uav[20] utilizationEnergyMaintenance 19398.670322418
scalar OsgEarthNet.uav[20] utilizationEnergyCharge 50491.038574219
scalar OsgEarthNet.uav[20] utilizationEnergyOverdrawMission 0
scalar OsgEarthNet.uav[20] utilizationEnergyOverdrawMaintenance 0
scalar OsgEarthNet.uav[20] utilizationCountMissions 11
scalar OsgEarthNet.uav[20] utilizationCountManeuversMission 219
scalar OsgEarthNet.uav[20] utilizationCountManeuversMaintenance 22
scalar OsgEarthNet.uav[20] utilizationCountChargeState 11
scalar OsgEarthNet.uav[20] utilizationCountOverdrawnAfterMission 0
scalar OsgEarthNet.uav[20] utilizationCountIdleState 12
scalar OsgEarthNet.uav[20] utilizationFail 0
scalar OsgEarthNet.uav[20] simulationTime 259200
scalar OsgEarthNet.uav[21] utilizationSecMission 14541.255220114
scalar OsgEarthNet.uav[21] utilizationSecMaintenance 10496.475117229
scalar OsgEarthNet.uav[21] utilizationSecCharge 99280
scalar OsgEarthNet.uav[21] utilizationSecIdle 134882.26866266
scalar OsgEarthNet.uav[21] utilizationEnergyMission 71635.836414337
scalar OsgEarthNet.uav[21] utilizationEnergyMaintenance 50168.398212433
scalar OsgEarthNet.uav[21] utilizationEnergyCharge 122941.7421875
scalar OsgEarthNet.uav[21] utilizationEnergyOverdrawMission 0
scalar OsgEarthNet.uav[21] utilizationEnergyOverdrawMaintenance 0
scalar OsgEarthNet.uav[21] utilizationCountMissions 31
scalar OsgEarthNet.uav[21] utilizationCountManeuversMission 503
scalar OsgEarthNet.uav[21] utilizationCountManeuversMaintenance 62
scalar OsgEarthNet.uav[21] utilizationCountChargeState 31
scalar OsgEarthNet.uav[21] utilizationCountOverdrawnAfterMission 0
scalar OsgEarthNet.uav[21] utilizationCountIdleState 32
scalar OsgEarthNet.uav[21] utilizationFail 0
scalar OsgEarthNet.uav[21] simulationTime 259200
scalar OsgEarthNet.uav[22] utilizationSecMission 43054.356976522
scalar OsgEarthNet.uav[22] utilizationSecMaintenance 16871.963019029
scalar OsgEarthNet.uav[22] utilizationSecCharge 198691.67900445
scalar OsgEarthNet.uav[22] utilizationSecIdle 582
scalar OsgEarthNet.uav[22] utilizationEnergyMission 207027.20519539
scalar OsgEarthNet.uav[22] utilizationEnergyMaintenance 77774.465583801
scalar OsgEarthNet.uav[22] utilizationEnergyCharge 284493.78027344
scalar OsgEarthNet.uav[22] utilizationEnergyOverdrawMission 0
scalar OsgEarthNet.uav[22] utilizationEnergyOverdrawMaintenance 0
scalar OsgEarthNet.uav[22] utilizationCountMissions 62
scalar OsgEarthNet.uav[22] utilizationCountManeuversMission 1213
scalar OsgEarthNet.uav[22] utilizationCountManeuversMaintenance 123
scalar OsgEarthNet.uav[22] utilizationCountChargeState 62
scalar OsgEarthNet.uav[22] utilizationCountOverdrawnAfterMission 0
scalar OsgEarthNet.uav[22] utilizationCountIdleState 7
scalar OsgEarthNet.uav[22] utilizationFail 0
scalar OsgEarthNet.uav[22] simulationTime 259200
scalar OsgEarthNet.uav[23] utilizationSecMission 7983.1257629014
scalar OsgEarthNet.uav[23] utilizationSecMaintenance 5264.6484521962
scalar OsgEarthNet.uav[23] utilizationSecCharge 48960
scalar OsgEarthNet.uav[23] utilizationSecIdle 196992.2247849
scalar OsgEarthNet.uav[23] utilizationEnergyMission 38991.016292572
scalar OsgEarthNet.uav[23] utilizationEnergyMaintenance 24741.50270462
scalar OsgEarthNet.uav[23] utilizationEnergyCharge 63027.611328125
scalar OsgEarthNet.uav[23] utilizationEnergyOverdrawMission 0
scalar OsgEarthNet.uav[23] utilizationEnergyOverdrawMaintenance 0
scalar OsgEarthNet.uav[23] utilizationCountMissions 14
scalar OsgEarthNet.uav[23] utilizationCountManeuversMission 269
scalar OsgEarthNet.uav[23] utilizationCountManeuversMaintenance 28
scalar OsgEarthNet.uav[23] utilizationCountChargeState 14
scalar OsgEarthNet.uav[23] utilizationCountOverdrawnAfterMission 0
scalar OsgEarthNet.uav[23] utilizationCountIdleState 15
scalar OsgEarthNet.uav[23] utilizationFail 0
scalar OsgEarthNet.uav[23] simulationTime 259200
scalar OsgEarthNet.uav[24] utilizationSecMission 16966.448812749
scalar OsgEarthNet.uav[24] utilizationSecMaintenance 11538.471987173
scalar OsgEarthNet.uav[24] utilizationSecCharge 110723.07420008
scalar OsgEarthNet.uav[24] utilizationSecIdle 119972.004
scalar OsgEarthNet.uav[24] utilizationEnergyMission 83148.26424408
scalar OsgEarthNet.uav[24] utilizationEnergyMaintenance 54440.385471344
scalar OsgEarthNet.uav[24] utilizationEnergyCharge 136825.86523438
scalar OsgEarthNet.uav[24] utilizationEnergyOverdrawMission 0
scalar OsgEarthNet.uav[24] utilizationEnergyOverdrawMaintenance 0
scalar OsgEarthNet.uav[24] utilizationCountMissions 35
scalar OsgEarthNet.uav[24] utilizationCountManeuversMission 528
scalar OsgEarthNet.uav[24] utilizationCountManeuversMaintenance 70
scalar OsgEarthNet.uav[24] utilizationCountChargeState 35
scalar OsgEarthNet.uav[24] utilizationCountOverdrawnAfterMission 0
scalar OsgEarthNet.uav[24] utilizationCountIdleState 35
scalar OsgEarthNet.uav[24] utilizationFail 0
scalar OsgEarthNet.uav[24] simulationTime 259200
scalar OsgEarthNet.uav[25] utilizationSecMission 40894.449121084
scalar OsgEarthNet.uav[25] utilizationSecMaintenance 18702.08883614
scalar OsgEarthNet.uav[25] utilizationSecCharge 195860
scalar OsgEarthNet.uav[25] utilizationSecIdle 3743.4610427756
scalar OsgEarthNet.uav[25] utilizationEnergyMission 200705.6018933
scalar OsgEarthNet.uav[25] utilizationEnergyMaintenance 84861.425708771
scalar OsgEarthNet.uav[25] utilizationEnergyCharge 283026.54248047
scalar OsgEarthNet.uav[25] utilizationEnergyOverdrawMission 0
scalar OsgEarthNet.uav[25] utilizationEnergyOverdrawMaintenance 0
scalar OsgEarthNet.uav[25] utilizationCountMissions 62
scalar OsgEarthNet.uav[25] utilizationCountManeuversMission 1244
scalar OsgEarthNet.uav[25] utilizationCountManeuversMaintenance 125
scalar OsgEarthNet.uav[25] utilizationCountChargeState 62
scalar OsgEarthNet.uav[25] utilizationCountOverdrawnAfterMission 0
scalar OsgEarthNet.uav[25] utilizationCountIdleState 5
scalar OsgEarthNet.uav[25] utilizationFail 0
scalar OsgEarthNet.uav[25] simulationTime 259200
scalar OsgEarthNet.uav[26] utilizationSecMission 9614.7431818917
scalar OsgEarthNet.uav[26] utilizationSecMaintenance 5245.101391033
scalar OsgEarthNet.uav[26] utilizationSecCharge 55510
scalar OsgEarthNet.uav[26] utilizationSecIdle 188830.15442708
scalar OsgEarthNet.uav[26] utilizationEnergyMission 46222.725975037
scalar OsgEarthNet.uav[26] utilizationEnergyMaintenance 24468.914215088
scalar OsgEarthNet.uav[26] utilizationEnergyCharge 71244.22265625
scalar OsgEarthNet.uav[26] utilizationEnergyOverdrawMission 0
scalar OsgEarthNet.uav[26] utilizationEnergyOverdrawMaintenance 0
scalar OsgEarthNet.uav[26] utilizationCountMissions 16
scalar OsgEarthNet.uav[26] utilizationCountManeuversMission 277
scalar OsgEarthNet.uav[26] utilizationCountManeuversMaintenance 32
scalar OsgEarthNet.uav[26] utilizationCountChargeState 16
scalar OsgEarthNet.uav[26] utilizationCountOverdrawnAfterMission 0
scalar OsgEarthNet.uav[26] utilizationCountIdleState 17
scalar OsgEarthNet.uav[26] utilizationFail 0
scalar OsgEarthNet.uav[26] simulationTime 259200
scalar OsgEarthNet.uav[27] utilizationSecMission 17343.294181383
scalar OsgEarthNet.uav[27] utilizationSecMaintenance 11598.127552407
scalar OsgEarthNet.uav[27] utilizationSecCharge 111120
scalar OsgEarthNet.uav[27] utilizationSecIdle 119138.57726621
scalar OsgEarthNet.uav[27] utilizationEnergyMission 84767.850902557
scalar OsgEarthNet.uav[27] utilizationEnergyMaintenance 55541.789890289
scalar OsgEarthNet.uav[27] utilizationEnergyCharge 138974.26831055
scalar OsgEarthNet.uav[27] utilizationEnergyOverdrawMission 0
scalar OsgEarthNet.uav[27] utilizationEnergyOverdrawMaintenance 0
scalar OsgEarthNet.uav[27] utilizationCountMissions 34
scalar OsgEarthNet.uav[27] utilizationCountManeuversMission 592
scalar OsgEarthNet.uav[27] utilizationCountManeuversMaintenance 68
scalar OsgEarthNet.uav[27] utilizationCountChargeState 34
scalar OsgEarthNet.uav[27] utilizationCountOverdrawnAfterMission 0
scalar OsgEarthNet.uav[27] utilizationCountIdleState 35
scalar OsgEarthNet.uav[27] utilizationFail 0
scalar OsgEarthNet.uav[27] simulationTime 259200
scalar OsgEarthNet.uav[28] utilizationSecMission 42243.751697572
scalar OsgEarthNet.uav[28] utilizationSecMaintenance 17551.611467027
scalar OsgEarthNet.uav[28] utilizationSecCharge 195364.59328799
scalar OsgEarthNet.uav[28] utilizationSecIdle 4040.0425474148
scalar OsgEarthNet.uav[28] utilizationEnergyMission 200915.14490891
scalar OsgEarthNet.uav[28] utilizationEnergyMaintenance 80623.828727722
scalar OsgEarthNet.uav[28] utilizationEnergyCharge 283362.80932617
scalar OsgEarthNet.uav[28] utilizationEnergyOverdrawMission 0
scalar OsgEarthNet.uav[28] utilizationEnergyOverdrawMaintenance 0
scalar OsgEarthNet.uav[28] utilizationCountMissions 62
scalar OsgEarthNet.uav[28] utilizationCountManeuversMission 1257
scalar OsgEarthNet.uav[28] utilizationCountManeuversMaintenance 124
scalar OsgEarthNet.uav[28] utilizationCountChargeState 62
scalar OsgEarthNet.uav[28] utilizationCountOverdrawnAfterMission 0
scalar OsgEarthNet.uav[28] utilizationCountIdleState 4
scalar OsgEarthNet.uav[28] utilizationFail 0
scalar OsgEarthNet.uav[28] simulationTime 259200
scalar OsgEarthNet.uav[29] utilizationSecMission 8905.0012206423
scalar OsgEarthNet.uav[29] utilizationSecMaintenance 4317.1459375758
scalar OsgEarthNet.uav[29] utilizationSecCharge 48570
scalar OsgEarthNet.uav[29] utilizationSecIdle 197407.85184178
scalar OsgEarthNet.uav[29] utilizationEnergyMission 42705.023563385
scalar OsgEarthNet.uav[29] utilizationEnergyMaintenance 20256.500984192
scalar OsgEarthNet.uav[29] utilizationEnergyCharge 62299.973632812
scalar OsgEarthNet.uav[29] utilizationEnergyOverdrawMission 0
scalar OsgEarthNet.uav[29] utilizationEnergyOverdrawMaintenance 0
scalar OsgEarthNet.uav[29] utilizationCountMissions 14
scalar OsgEarthNet.uav[29] utilizationCountManeuversMission 237
scalar OsgEarthNet.uav[29] utilizationCountManeuversMaintenance 28
scalar OsgEarthNet.uav[29] utilizationCountChargeState 14
scalar OsgEarthNet.uav[29] utilizationCountOverdrawnAfterMission 0
scalar OsgEarthNet.uav[29] utilizationCountIdleState 15
scalar OsgEarthNet.uav[29] utilizationFail 0
scalar OsgEarthNet.uav[29] simulationTime 259200
scalar OsgEarthNet.uav[30] utilizationSecMission 7802.5006103211
scalar OsgEarthNet.uav[30] utilizationSecMaintenance 5334.128004429
scalar OsgEarthNet.uav[30] utilizationSecCharge 49110
scalar OsgEarthNet.uav[30] utilizationSecIdle 196953.37038525
scalar OsgEarthNet.uav[30] utilizationEnergyMission 39676.413948059
scalar OsgEarthNet.uav[30] utilizationEnergyMaintenance 25266.667823791
scalar OsgEarthNet.uav[30] utilizationEnergyCharge 63482.782226562
scalar OsgEarthNet.uav[30] utilizationEnergyOverdrawMission 0
scalar OsgEarthNet.uav[30] utilizationEnergyOverdrawMaintenance 0
scalar OsgEarthNet.uav[30] utilizationCountMissions 14
scalar OsgEarthNet.uav[30] utilizationCountManeuversMission 286
scalar OsgEarthNet.uav[30] utilizationCountManeuversMaintenance 28
scalar OsgEarthNet.uav[30] utilizationCountChargeState 14
scalar OsgEarthNet.uav[30] utilizationCountOverdrawnAfterMission 0
scalar OsgEarthNet.uav[30] utilizationCountIdleState 15
scalar OsgEarthNet.uav[30] utilizationFail 0
scalar OsgEarthNet.uav[30] simulationTime 259200
scalar OsgEarthNet.uav[31] utilizationSecMission 16435.566356969
scalar OsgEarthNet.uav[31] utilizationSecMaintenance 12371.947549409
scalar OsgEarthNet.uav[31] utilizationSecCharge 114180
scalar OsgEarthNet.uav[31] utilizationSecIdle 116212.48509362
scalar OsgEarthNet.uav[31] utilizationEnergyMission 82252.539985657
scalar OsgEarthNet.uav[31] utilizationEnergyMaintenance 58329.200332642
scalar OsgEarthNet.uav[31] utilizationEnergyCharge 140380.55859375
scalar OsgEarthNet.uav[31] utilizationEnergyOverdrawMission 0
scalar OsgEarthNet.uav[31] utilizationEnergyOverdrawMaintenance 0
scalar OsgEarthNet.uav[31] utilizationCountMissions 36
scalar OsgEarthNet.uav[31] utilizationCountManeuversMission 619
scalar OsgEarthNet.uav[31] utilizationCountManeuversMaintenance 72
scalar OsgEarthNet.uav[31] utilizationCountChargeState 36
scalar OsgEarthNet.uav[31] utilizationCountOverdrawnAfterMission 0
scalar OsgEarthNet.uav[31] utilizationCountIdleState 37
scalar OsgEarthNet.uav[31] utilizationFail 0
scalar OsgEarthNet.uav[31] simulationTime 259200
scalar OsgEarthNet.uav[32] utilizationSecMission 41129.537278365
scalar OsgEarthNet.uav[32] utilizationSecMaintenance 18260.373687851
scalar OsgEarthNet.uav[32] utilizationSecCharge 196438.08303378
scalar OsgEarthNet.uav[32] utilizationSecIdle 3372.005
scalar OsgEarthNet.uav[32] utilizationEnergyMission 199763.71249008
scalar OsgEarthNet.uav[32] utilizationEnergyMaintenance 85112.899707794
scalar OsgEarthNet.uav[32] utilizationEnergyCharge 283709.81152344
scalar OsgEarthNet.uav[32] utilizationEnergyOverdrawMission 0
scalar OsgEarthNet.uav[32] utilizationEnergyOverdrawMaintenance 0
scalar OsgEarthNet.uav[32] utilizationCountMissions 62
scalar OsgEarthNet.uav[32] utilizationCountManeuversMission 1273
scalar OsgEarthNet.uav[32] utilizationCountManeuversMaintenance 124
scalar OsgEarthNet.uav[32] utilizationCountChargeState 62
scalar OsgEarthNet.uav[32] utilizationCountOverdrawnAfterMission 0
scalar OsgEarthNet.uav[32] utilizationCountIdleState 3
scalar OsgEarthNet.uav[32] utilizationFail 0
scalar OsgEarthNet.uav[32] simulationTime 259200
scalar OsgEarthNet.uav[33] utilizationSecMission 6322.5006103211
scalar OsgEarthNet.uav[33] utilizationSecMaintenance 3991.8528860877
scalar OsgEarthNet.uav[33] utilizationSecCharge 38630
scalar OsgEarthNet.uav[33] utilizationSecIdle 210255.64550359
scalar OsgEarthNet.uav[33] utilizationEnergyMission 30787.488285065
scalar OsgEarthNet.uav[33] utilizationEnergyMaintenance 19066.964237213
scalar OsgEarthNet.uav[33] utilizationEnergyCharge 49748.214355469
scalar OsgEarthNet.uav[33] utilizationEnergyOverdrawMission 0
scalar OsgEarthNet.uav[33] utilizationEnergyOverdrawMaintenance 0
scalar OsgEarthNet.uav[33] utilizationCountMissions 11
scalar OsgEarthNet.uav[33] utilizationCountManeuversMission 212
scalar OsgEarthNet.uav[33] utilizationCountManeuversMaintenance 22
scalar OsgEarthNet.uav[33] utilizationCountChargeState 11
scalar OsgEarthNet.uav[33] utilizationCountOverdrawnAfterMission 0
scalar OsgEarthNet.uav[33] utilizationCountIdleState 12
scalar OsgEarthNet.uav[33] utilizationFail 0
scalar OsgEarthNet.uav[33] simulationTime 259200
scalar OsgEarthNet.uav[34] utilizationSecMission 18143.21847594
scalar OsgEarthNet.uav[34] utilizationSecMaintenance 12084.77852406
scalar OsgEarthNet.uav[34] utilizationSecCharge 115990
scalar OsgEarthNet.uav[34] utilizationSecIdle 112982.002
scalar OsgEarthNet.uav[34] utilizationEnergyMission 88625.344190276
scalar OsgEarthNet.uav[34] utilizationEnergyMaintenance 57764.288711548
scalar OsgEarthNet.uav[34] utilizationEnergyCharge 144064.02148438
scalar OsgEarthNet.uav[34] utilizationEnergyOverdrawMission 0
scalar OsgEarthNet.uav[34] utilizationEnergyOverdrawMaintenance 0
scalar OsgEarthNet.uav[34] utilizationCountMissions 36
scalar OsgEarthNet.uav[34] utilizationCountManeuversMission 573
scalar OsgEarthNet.uav[34] utilizationCountManeuversMaintenance 73
scalar OsgEarthNet.uav[34] utilizationCountChargeState 36
scalar OsgEarthNet.uav[34] utilizationCountOverdrawnAfterMission 0
scalar OsgEarthNet.uav[34] utilizationCountIdleState 37
scalar OsgEarthNet.uav[34] utilizationFail 0
scalar OsgEarthNet.uav[34] simulationTime 259200
scalar OsgEarthNet.uav[35] utilizationSecMission 42364.652100958
scalar OsgEarthNet.uav[35] utilizationSecMaintenance 18090.711878537
scalar OsgEarthNet.uav[35] utilizationSecCharge 196592.6330205
scalar OsgEarthNet.uav[35] utilizationSecIdle 2152.002
scalar OsgEarthNet.uav[35] utilizationEnergyMission 203650.07069397
scalar OsgEarthNet.uav[35] utilizationEnergyMaintenance 83513.0662117
scalar OsgEarthNet.uav[35] utilizationEnergyCharge 286060.41064453
scalar OsgEarthNet.uav[35] utilizationEnergyOverdrawMission 0
scalar OsgEarthNet.uav[35] utilizationEnergyOverdrawMaintenance 0
scalar OsgEarthNet.uav[35] utilizationCountMissions 63
scalar OsgEarthNet.uav[35] utilizationCountManeuversMission 1364
scalar OsgEarthNet.uav[35] utilizationCountManeuversMaintenance 126
scalar OsgEarthNet.uav[35] utilizationCountChargeState 63
scalar OsgEarthNet.uav[35] utilizationCountOverdrawnAfterMission 0
scalar OsgEarthNet.uav[35] utilizationCountIdleState 6
scalar OsgEarthNet.uav[35] utilizationFail 0
scalar OsgEarthNet.uav[35] simulationTime 259200
scalar OsgEarthNet.uav[36] utilizationSecMission 9704.376068062
scalar OsgEarthNet.uav[36] utilizationSecMaintenance 5466.2549079885
scalar OsgEarthNet.uav[36] utilizationSecCharge 55670
scalar OsgEarthNet.uav[36] utilizationSecIdle 188359.36802395
scalar OsgEarthNet.uav[36] utilizationEnergyMission 46451.51385498
scalar OsgEarthNet.uav[36] utilizationEnergyMaintenance 25341.894104004
scalar OsgEarthNet.uav[36] utilizationEnergyCharge 71440.40625
scalar OsgEarthNet.uav[36] utilizationEnergyOverdrawMission 0
scalar OsgEarthNet.uav[36] utilizationEnergyOverdrawMaintenance 0
scalar OsgEarthNet.uav[36] utilizationCountMissions 16
scalar OsgEarthNet.uav[36] utilizationCountManeuversMission 303
scalar OsgEarthNet.uav[36] utilizationCountManeuversMaintenance 32
scalar OsgEarthNet.uav[36] utilizationCountChargeState 16
scalar OsgEarthNet.uav[36] utilizationCountOverdrawnAfterMission 0
scalar OsgEarthNet.uav[36] utilizationCountIdleState 17
scalar OsgEarthNet.uav[36] utilizationFail 0
scalar OsgEarthNet.uav[36] simulationTime 259200
scalar OsgEarthNet.uav[37] utilizationSecMission 18493.046546128
scalar OsgEarthNet.uav[37] utilizationSecMaintenance 12442.337490232
scalar OsgEarthNet.uav[37] utilizationSecCharge 119490
scalar OsgEarthNet.uav[37] utilizationSecIdle 108774.61496364
scalar OsgEarthNet.uav[37] utilizationEnergyMission 89048.403594971
scalar OsgEarthNet.uav[37] utilizationEnergyMaintenance 59307.86523056
scalar OsgEarthNet.uav[37] utilizationEnergyCharge 148204.47851562
scalar OsgEarthNet.uav[37] utilizationEnergyOverdrawMission 0
scalar OsgEarthNet.uav[37] utilizationEnergyOverdrawMaintenance 0
scalar OsgEarthNet.uav[37] utilizationCountMissions 37
scalar OsgEarthNet.uav[37] utilizationCountManeuversMission 612
scalar OsgEarthNet.uav[37] utilizationCountManeuversMaintenance 74
scalar OsgEarthNet.uav[37] utilizationCountChargeState 37
scalar OsgEarthNet.uav[37] utilizationCountOverdrawnAfterMission 0
scalar OsgEarthNet.uav[37] utilizationCountIdleState 38
scalar OsgEarthNet.uav[37] utilizationFail 0
scalar OsgEarthNet.uav[37] simulationTime 259200
scalar OsgEarthNet.uav[38] utilizationSecMission 42355.115447265
scalar OsgEarthNet.uav[38] utilizationSecMaintenance 17765.25247207
scalar OsgEarthNet.uav[38] utilizationSecCharge 196350
scalar OsgEarthNet.uav[38] utilizationSecIdle 2729.6310806652
scalar OsgEarthNet.uav[38] utilizationEnergyMission 206171.25177199
scalar OsgEarthNet.uav[38] utilizationEnergyMaintenance 82718.811790466
scalar OsgEarthNet.uav[38] utilizationEnergyCharge 285139.50439453
scalar OsgEarthNet.uav[38] utilizationEnergyOverdrawMission 0
scalar OsgEarthNet.uav[38] utilizationEnergyOverdrawMaintenance 0
scalar OsgEarthNet.uav[38] utilizationCountMissions 62
scalar OsgEarthNet.uav[38] utilizationCountManeuversMission 1259
scalar OsgEarthNet.uav[38] utilizationCountManeuversMaintenance 125
scalar OsgEarthNet.uav[38] utilizationCountChargeState 62
scalar OsgEarthNet.uav[38] utilizationCountOverdrawnAfterMission 0
scalar OsgEarthNet.uav[38] utilizationCountIdleState 7
scalar OsgEarthNet.uav[38] utilizationFail 0
scalar OsgEarthNet.uav[38] simulationTime 259200
scalar OsgEarthNet.uav[39] utilizationSecMission 8754.7431818917
scalar OsgEarthNet.uav[39] utilizationSecMaintenance 4612.3399032408
scalar OsgEarthNet.uav[39] utilizationSecCharge 49390
scalar OsgEarthNet.uav[39] utilizationSecIdle 196442.91591487
scalar OsgEarthNet.uav[39] utilizationEnergyMission 42217.010643005
scalar OsgEarthNet.uav[39] utilizationEnergyMaintenance 21902.634010315
scalar OsgEarthNet.uav[39] utilizationEnergyCharge 63791.776855469
scalar OsgEarthNet.uav[39] utilizationEnergyOverdrawMission 0
scalar OsgEarthNet.uav[39] utilizationEnergyOverdrawMaintenance 0
scalar OsgEarthNet.uav[39] utilizationCountMissions 14
scalar OsgEarthNet.uav[39] utilizationCountManeuversMission 234
scalar OsgEarthNet.uav[39] utilizationCountManeuversMaintenance 28
scalar OsgEarthNet.uav[39] utilizationCountChargeState 14
scalar OsgEarthNet.uav[39] utilizationCountOverdrawnAfterMission 0
scalar OsgEarthNet.uav[39] utilizationCountIdleState 15
scalar OsgEarthNet.uav[39] utilizationFail 0
scalar OsgEarthNet.uav[39] simulationTime 259200
scalar OsgEarthNet.uav[40] utilizationSecMission 8133.383801652
scalar OsgEarthNet.uav[40] utilizationSecMaintenance 5221.5251318959
scalar OsgEarthNet.uav[40] utilizationSecCharge 49230
scalar OsgEarthNet.uav[40] utilizationSecIdle 196615.09006645
scalar OsgEarthNet.uav[40] utilizationEnergyMission 38980.221874237
scalar OsgEarthNet.uav[40] utilizationEnergyMaintenance 24489.031929016
scalar OsgEarthNet.uav[40] utilizationEnergyCharge 63537.494628906
scalar OsgEarthNet.uav[40] utilizationEnergyOverdrawMission 0
scalar OsgEarthNet.uav[40] utilizationEnergyOverdrawMaintenance 0
scalar OsgEarthNet.uav[40] utilizationCountMissions 14
scalar OsgEarthNet.uav[40] utilizationCountManeuversMission 272
scalar OsgEarthNet.uav[40] utilizationCountManeuversMaintenance 28
scalar OsgEarthNet.uav[40] utilizationCountChargeState 14
scalar OsgEarthNet.uav[40] utilizationCountOverdrawnAfterMission 0
scalar OsgEarthNet.uav[40] utilizationCountIdleState 15
scalar OsgEarthNet.uav[40] utilizationFail 0
scalar OsgEarthNet.uav[40] simulationTime 259200
scalar OsgEarthNet.uav[41] utilizationSecMission 17237.812118101
scalar OsgEarthNet.uav[41] utilizationSecMaintenance 12716.662902489
scalar OsgEarthNet.uav[41] utilizationSecCharge 116022.79951295
scalar OsgEarthNet.uav[41] utilizationSecIdle 113222.72446646
scalar OsgEarthNet.uav[41] utilizationEnergyMission 83833.72082901
scalar OsgEarthNet.uav[41] utilizationEnergyMaintenance 60598.87556839
scalar OsgEarthNet.uav[41] utilizationEnergyCharge 142393.51147461
scalar OsgEarthNet.uav[41] utilizationEnergyOverdrawMission 0
scalar OsgEarthNet.uav[41] utilizationEnergyOverdrawMaintenance 0
scalar OsgEarthNet.uav[41] utilizationCountMissions 38
scalar OsgEarthNet.uav[41] utilizationCountManeuversMission 585
scalar OsgEarthNet.uav[41] utilizationCountManeuversMaintenance 76
scalar OsgEarthNet.uav[41] utilizationCountChargeState 38
scalar OsgEarthNet.uav[41] utilizationCountOverdrawnAfterMission 0
scalar OsgEarthNet.uav[41] utilizationCountIdleState 38
scalar OsgEarthNet.uav[41] utilizationFail 0
scalar OsgEarthNet.uav[41] simulationTime 259200
scalar OsgEarthNet.uav[42] utilizationSecMission 41928.916261592
scalar OsgEarthNet.uav[42] utilizationSecMaintenance 17690.487901204
scalar OsgEarthNet.uav[42] utilizationSecCharge 195480.67769466
scalar OsgEarthNet.uav[42] utilizationSecIdle 4099.9171425466
scalar OsgEarthNet.uav[42] utilizationEnergyMission 202572.7088089
scalar OsgEarthNet.uav[42] utilizationEnergyMaintenance 80902.586433411
scalar OsgEarthNet.uav[42] utilizationEnergyCharge 283845.17626953
scalar OsgEarthNet.uav[42] utilizationEnergyOverdrawMission 0
scalar OsgEarthNet.uav[42] utilizationEnergyOverdrawMaintenance 0
scalar OsgEarthNet.uav[42] utilizationCountMissions 62
scalar OsgEarthNet.uav[42] utilizationCountManeuversMission 1281
scalar OsgEarthNet.uav[42] utilizationCountManeuversMaintenance 124
scalar OsgEarthNet.uav[42] utilizationCountChargeState 62
scalar OsgEarthNet.uav[42] utilizationCountOverdrawnAfterMission 0
scalar OsgEarthNet.uav[42] utilizationCountIdleState 7
scalar OsgEarthNet.uav[42] utilizationFail 0
scalar OsgEarthNet.uav[42] simulationTime 259200
scalar OsgEarthNet.uav[43] utilizationSecMission 10105.517298143
scalar OsgEarthNet.uav[43] utilizationSecMaintenance 5330.5913562399
scalar OsgEarthNet.uav[43] utilizationSecCharge 56580
scalar OsgEarthNet.uav[43] utilizationSecIdle 187183.89034562
scalar OsgEarthNet.uav[43] utilizationEnergyMission 48485.26071167
scalar OsgEarthNet.uav[43] utilizationEnergyMaintenance 25541.794445038
scalar OsgEarthNet.uav[43] utilizationEnergyCharge 73337.493164062
scalar OsgEarthNet.uav[43] utilizationEnergyOverdrawMission 0
scalar OsgEarthNet.uav[43] utilizationEnergyOverdrawMaintenance 0
scalar OsgEarthNet.uav[43] utilizationCountMissions 16
scalar OsgEarthNet.uav[43] utilizationCountManeuversMission 288
scalar OsgEarthNet.uav[43] utilizationCountManeuversMaintenance 32
scalar OsgEarthNet.uav[43] utilizationCountChargeState 16
scalar OsgEarthNet.uav[43] utilizationCountOverdrawnAfterMission 0
scalar OsgEarthNet.uav[43] utilizationCountIdleState 17
scalar OsgEarthNet.uav[43] utilizationFail 0
scalar OsgEarthNet.uav[43] simulationTime 259200
scalar OsgEarthNet.uav[44] utilizationSecMission 15458.30738861
scalar OsgEarthNet.uav[44] utilizationSecMaintenance 11404.217005916
scalar OsgEarthNet.uav[44] utilizationSecCharge 105980
scalar OsgEarthNet.uav[44] utilizationSecIdle 126357.47460547
scalar OsgEarthNet.uav[44] utilizationEnergyMission 77465.856842041
scalar OsgEarthNet.uav[44] utilizationEnergyMaintenance 54360.630332947
scalar OsgEarthNet.uav[44] utilizationEnergyCharge 131333.078125
scalar OsgEarthNet.uav[44] utilizationEnergyOverdrawMission 0
scalar OsgEarthNet.uav[44] utilizationEnergyOverdrawMaintenance 0
scalar OsgEarthNet.uav[44] utilizationCountMissions 33
scalar OsgEarthNet.uav[44] utilizationCountManeuversMission 571
scalar OsgEarthNet.uav[44] utilizationCountManeuversMaintenance 66
scalar OsgEarthNet.uav[44] utilizationCountChargeState 33
scalar OsgEarthNet.uav[44] utilizationCountOverdrawnAfterMission 0
scalar OsgEarthNet.uav[44] utilizationCountIdleState 34
scalar OsgEarthNet.uav[44] utilizationFail 0
scalar OsgEarthNet.uav[44] simulationTime 259200
scalar OsgEarthNet.uav[45] utilizationSecMission 42648.878343506
scalar OsgEarthNet.uav[45] utilizationSecMaintenance 17582.138104135
scalar OsgEarthNet.uav[45] utilizationSecCharge 195736.97855236
scalar OsgEarthNet.uav[45] utilizationSecIdle 3232.004
scalar OsgEarthNet.uav[45] utilizationEnergyMission 205768.4016571
scalar OsgEarthNet.uav[45] utilizationEnergyMaintenance 81540.830169678
scalar OsgEarthNet.uav[45] utilizationEnergyCharge 285497.60998535
scalar OsgEarthNet.uav[45] utilizationEnergyOverdrawMission 0
scalar OsgEarthNet.uav[45] utilizationEnergyOverdrawMaintenance 0
scalar OsgEarthNet.uav[45] utilizationCountMissions 63
scalar OsgEarthNet.uav[45] utilizationCountManeuversMission 1303
scalar OsgEarthNet.uav[45] utilizationCountManeuversMaintenance 126
scalar OsgEarthNet.uav[45] utilizationCountChargeState 63
scalar OsgEarthNet.uav[45] utilizationCountOverdrawnAfterMission 0
scalar OsgEarthNet.uav[45] utilizationCountIdleState 6
scalar OsgEarthNet.uav[45] utilizationFail 0
scalar OsgEarthNet.uav[45] simulationTime 259200
scalar OsgEarthNet.uav[46] utilizationSecMission 42584.712001436
scalar OsgEarthNet.uav[46] utilizationSecMaintenance 17619.265387365
scalar OsgEarthNet.uav[46] utilizationSecCharge 197100
scalar OsgEarthNet.uav[46] utilizationSecIdle 1896.0216111988
scalar OsgEarthNet.uav[46] utilizationEnergyMission 204286.34308075
scalar OsgEarthNet.uav[46] utilizationEnergyMaintenance 80428.202960968
scalar OsgEarthNet.uav[46] utilizationEnergyCharge 284455.03955078
scalar OsgEarthNet.uav[46] utilizationEnergyOverdrawMission 0
scalar OsgEarthNet.uav[46] utilizationEnergyOverdrawMaintenance 0
scalar OsgEarthNet.uav[46] utilizationCountMissions 62
scalar OsgEarthNet.uav[46] utilizationCountManeuversMission 1292
scalar OsgEarthNet.uav[46] utilizationCountManeuversMaintenance 125
scalar OsgEarthNet.uav[46] utilizationCountChargeState 62
scalar OsgEarthNet.uav[46] utilizationCountOverdrawnAfterMission 0
scalar OsgEarthNet.uav[46] utilizationCountIdleState 9
scalar OsgEarthNet.uav[46] utilizationFail 0
scalar OsgEarthNet.uav[46] simulationTime 259200
scalar OsgEarthNet.uav[47] utilizationSecMission 18294.162216225
scalar OsgEarthNet.uav[47] utilizationSecMaintenance 13277.884420149
scalar OsgEarthNet.uav[47] utilizationSecCharge 124370
scalar OsgEarthNet.uav[47] utilizationSecIdle 103257.95236363
scalar OsgEarthNet.uav[47] utilizationEnergyMission 89674.410270691
scalar OsgEarthNet.uav[47] utilizationEnergyMaintenance 63101.956481934
scalar OsgEarthNet.uav[47] utilizationEnergyCharge 151822.04467773
scalar OsgEarthNet.uav[47] utilizationEnergyOverdrawMission 0
scalar OsgEarthNet.uav[47] utilizationEnergyOverdrawMaintenance 0
scalar OsgEarthNet.uav[47] utilizationCountMissions 40
scalar OsgEarthNet.uav[47] utilizationCountManeuversMission 608
scalar OsgEarthNet.uav[47] utilizationCountManeuversMaintenance 80
scalar OsgEarthNet.uav[47] utilizationCountChargeState 40
scalar OsgEarthNet.uav[47] utilizationCountOverdrawnAfterMission 0
scalar OsgEarthNet.uav[47] utilizationCountIdleState 41
scalar OsgEarthNet.uav[47] utilizationFail 0
scalar OsgEarthNet.uav[47] simulationTime 259200
scalar OsgEarthNet.uav[48] utilizationSecMission 41859.503686863
scalar OsgEarthNet.uav[48] utilizationSecMaintenance 18522.781980576
scalar OsgEarthNet.uav[48] utilizationSecCharge 198685.71333256
scalar OsgEarthNet.uav[48] utilizationSecIdle 132
scalar OsgEarthNet.uav[48] utilizationEnergyMission 201718.86908722
scalar OsgEarthNet.uav[48] utilizationEnergyMaintenance 84700.271865845
scalar OsgEarthNet.uav[48] utilizationEnergyCharge 287988.91748047
scalar OsgEarthNet.uav[48] utilizationEnergyOverdrawMission 0
scalar OsgEarthNet.uav[48] utilizationEnergyOverdrawMaintenance 0
scalar OsgEarthNet.uav[48] utilizationCountMissions 63
scalar OsgEarthNet.uav[48] utilizationCountManeuversMission 1333
scalar OsgEarthNet.uav[48] utilizationCountManeuversMaintenance 126
scalar OsgEarthNet.uav[48] utilizationCountChargeState 63
scalar OsgEarthNet.uav[48] utilizationCountOverdrawnAfterMission 0
scalar OsgEarthNet.uav[48] utilizationCountIdleState 3
scalar OsgEarthNet.uav[48] utilizationFail 0
scalar OsgEarthNet.uav[48] simulationTime 259200
scalar OsgEarthNet.uav[49] utilizationSecMission 12125.001220642
scalar OsgEarthNet.uav[49] utilizationSecMaintenance 7536.5554097003
scalar OsgEarthNet.uav[49] utilizationSecCharge 73410
scalar OsgEarthNet.uav[49] utilizationSecIdle 166128.44236966
scalar OsgEarthNet.uav[49] utilizationEnergyMission 58625.440952301
scalar OsgEarthNet.uav[49] utilizationEnergyMaintenance 35183.708797455
scalar OsgEarthNet.uav[49] utilizationEnergyCharge 94591.370605469
scalar OsgEarthNet.uav[49] utilizationEnergyOverdrawMission 0
scalar OsgEarthNet.uav[49] utilizationEnergyOverdrawMaintenance 0
scalar OsgEarthNet.uav[49] utilizationCountMissions 21
scalar OsgEarthNet.uav[49] utilizationCountManeuversMission 398
scalar OsgEarthNet.uav[49] utilizationCountManeuversMaintenance 42
scalar OsgEarthNet.uav[49] utilizationCountChargeState 21
scalar OsgEarthNet.uav[49] utilizationCountOverdrawnAfterMission 0
scalar OsgEarthNet.uav[49] utilizationCountIdleState 22
scalar OsgEarthNet.uav[49] utilizationFail 0
scalar OsgEarthNet.uav[49] simulationTime 259200
scalar OsgEarthNet.uav[50] utilizationSecMission 16730.323555005
scalar OsgEarthNet.uav[50] utilizationSecMaintenance 9116.7965352448
scalar OsgEarthNet.uav[50] utilizationSecCharge 94450
scalar OsgEarthNet.uav[50] utilizationSecIdle 138902.87890975
scalar OsgEarthNet.uav[50] utilizationEnergyMission 79313.973091125
scalar OsgEarthNet.uav[50] utilizationEnergyMaintenance 43288.13702774
scalar OsgEarthNet.uav[50] utilizationEnergyCharge 121441.51367188
scalar OsgEarthNet.uav[50] utilizationEnergyOverdrawMission 0
scalar OsgEarthNet.uav[50] utilizationEnergyOverdrawMaintenance 0
scalar OsgEarthNet.uav[50] utilizationCountMissions 27
scalar OsgEarthNet.uav[50] utilizationCountManeuversMission 474
scalar OsgEarthNet.uav[50] utilizationCountManeuversMaintenance 54
scalar OsgEarthNet.uav[50] utilizationCountChargeState 27
scalar OsgEarthNet.uav[50] utilizationCountOverdrawnAfterMission 0
scalar OsgEarthNet.uav[50] utilizationCountIdleState 28
scalar OsgEarthNet.uav[50] utilizationFail 0
scalar OsgEarthNet.uav[50] simulationTime 259200
scalar OsgEarthNet.uav[51] utilizationSecMission 16859.080763243
scalar OsgEarthNet.uav[51] utilizationSecMaintenance 11441.496512985
scalar OsgEarthNet.uav[51] utilizationSecCharge 105240
scalar OsgEarthNet.uav[51] utilizationSecIdle 125659.42172377
scalar OsgEarthNet.uav[51] utilizationEnergyMission 81719.168319702
scalar OsgEarthNet.uav[51] utilizationEnergyMaintenance 54586.352607727
scalar OsgEarthNet.uav[51] utilizationEnergyCharge 135571.56542969
scalar OsgEarthNet.uav[51] utilizationEnergyOverdrawMission 0
scalar OsgEarthNet.uav[51] utilizationEnergyOverdrawMaintenance 0
scalar OsgEarthNet.uav[51] utilizationCountMissions 30
scalar OsgEarthNet.uav[51] utilizationCountManeuversMission 596
scalar OsgEarthNet.uav[51] utilizationCountManeuversMaintenance 59
scalar OsgEarthNet.uav[51] utilizationCountChargeState 30
scalar OsgEarthNet.uav[51] utilizationCountOverdrawnAfterMission 0
scalar OsgEarthNet.uav[51] utilizationCountIdleState 31
scalar OsgEarthNet.uav[51] utilizationFail 0
scalar OsgEarthNet.uav[51] simulationTime 259200
scalar OsgEarthNet.uav[52] utilizationSecMission 43476.18678865
scalar OsgEarthNet.uav[52] utilizationSecMaintenance 17454.386864059
scalar OsgEarthNet.uav[52] utilizationSecCharge 196430
scalar OsgEarthNet.uav[52] utilizationSecIdle 1839.4253472904
scalar OsgEarthNet.uav[52] utilizationEnergyMission 207629.93523788
scalar OsgEarthNet.uav[52] utilizationEnergyMaintenance 80845.983845639
scalar OsgEarthNet.uav[52] utilizationEnergyCharge 284231.40722656
scalar OsgEarthNet.uav[52] utilizationEnergyOverdrawMission 0
scalar OsgEarthNet.uav[52] utilizationEnergyOverdrawMaintenance 0
scalar OsgEarthNet.uav[52] utilizationCountMissions 63
scalar OsgEarthNet.uav[52] utilizationCountManeuversMission 1130
scalar OsgEarthNet.uav[52] utilizationCountManeuversMaintenance 126
scalar OsgEarthNet.uav[52] utilizationCountChargeState 62
scalar OsgEarthNet.uav[52] utilizationCountOverdrawnAfterMission 0
scalar OsgEarthNet.uav[52] utilizationCountIdleState 7
scalar OsgEarthNet.uav[52] utilizationFail 0
scalar OsgEarthNet.uav[52] simulationTime 259200
scalar OsgEarthNet.uav[53] utilizationSecMission 13614.227104391
scalar OsgEarthNet.uav[53] utilizationSecMaintenance 9250.8036102267
scalar OsgEarthNet.uav[53] utilizationSecCharge 86422.962285383
scalar OsgEarthNet.uav[53] utilizationSecIdle 149912.006
scalar OsgEarthNet.uav[53] utilizationEnergyMission 66730.098007202
scalar OsgEarthNet.uav[53] utilizationEnergyMaintenance 44233.707408905
scalar OsgEarthNet.uav[53] utilizationEnergyCharge 111355.43505859
scalar OsgEarthNet.uav[53] utilizationEnergyOverdrawMission 0
scalar OsgEarthNet.uav[53] utilizationEnergyOverdrawMaintenance 0
scalar OsgEarthNet.uav[53] utilizationCountMissions 25
scalar OsgEarthNet.uav[53] utilizationCountManeuversMission 486
scalar OsgEarthNet.uav[53] utilizationCountManeuversMaintenance 50
scalar OsgEarthNet.uav[53] utilizationCountChargeState 25
scalar OsgEarthNet.uav[53] utilizationCountOverdrawnAfterMission 0
scalar OsgEarthNet.uav[53] utilizationCountIdleState 25
scalar OsgEarthNet.uav[53] utilizationFail 0
scalar OsgEarthNet.uav[53] simulationTime 259200
scalar OsgEarthNet.uav[54] utilizationSecMission 20439.57702966
scalar OsgEarthNet.uav[54] utilizationSecMaintenance 11886.637514921
scalar OsgEarthNet.uav[54] utilizationSecCharge 120402.72666023
scalar OsgEarthNet.uav[54] utilizationSecIdle 106471.05779519
scalar OsgEarthNet.uav[54] utilizationEnergyMission 97315.61504364
scalar OsgEarthNet.uav[54] utilizationEnergyMaintenance 56256.981220245
scalar OsgEarthNet.uav[54] utilizationEnergyCharge 150351.96765137
scalar OsgEarthNet.uav[54] utilizationEnergyOverdrawMission 0
scalar OsgEarthNet.uav[54] utilizationEnergyOverdrawMaintenance 0
scalar OsgEarthNet.uav[54] utilizationCountMissions 38
scalar OsgEarthNet.uav[54] utilizationCountManeuversMission 510
scalar OsgEarthNet.uav[54] utilizationCountManeuversMaintenance 76
scalar OsgEarthNet.uav[54] utilizationCountChargeState 38
scalar OsgEarthNet.uav[54] utilizationCountOverdrawnAfterMission 0
scalar OsgEarthNet.uav[54] utilizationCountIdleState 38
scalar OsgEarthNet.uav[54] utilizationFail 0
scalar OsgEarthNet.uav[54] simulationTime 259200
scalar OsgEarthNet.uav[55] utilizationSecMission 41293.11178314
scalar OsgEarthNet.uav[55] utilizationSecMaintenance 18588.394634834
scalar OsgEarthNet.uav[55] utilizationSecCharge 196693.03692862
scalar OsgEarthNet.uav[55] utilizationSecIdle 2625.4556534032
scalar OsgEarthNet.uav[55] utilizationEnergyMission 200547.1571312
scalar OsgEarthNet.uav[55] utilizationEnergyMaintenance 85814.579620361
scalar OsgEarthNet.uav[55] utilizationEnergyCharge 286490.65917969
scalar OsgEarthNet.uav[55] utilizationEnergyOverdrawMission 0
scalar OsgEarthNet.uav[55] utilizationEnergyOverdrawMaintenance 0
scalar OsgEarthNet.uav[55] utilizationCountMissions 63
scalar OsgEarthNet.uav[55] utilizationCountManeuversMission 1291
scalar OsgEarthNet.uav[55] utilizationCountManeuversMaintenance 126
scalar OsgEarthNet.uav[55] utilizationCountChargeState 63
scalar OsgEarthNet.uav[55] utilizationCountOverdrawnAfterMission 0
scalar OsgEarthNet.uav[55] utilizationCountIdleState 4
scalar OsgEarthNet.uav[55] utilizationFail 0
scalar OsgEarthNet.uav[55] simulationTime 259200
scalar OsgEarthNet.uav[56] utilizationSecMission 12343.750915482
scalar OsgEarthNet.uav[56] utilizationSecMaintenance 8939.9098968262
scalar OsgEarthNet.uav[56] utilizationSecCharge 77973.263133789
scalar OsgEarthNet.uav[56] utilizationSecIdle 159943.0750539
scalar OsgEarthNet.uav[56] utilizationEnergyMission 61337.525974274
scalar OsgEarthNet.uav[56] utilizationEnergyMaintenance 42238.61384964
scalar OsgEarthNet.uav[56] utilizationEnergyCharge 100876.4074707
scalar OsgEarthNet.uav[56] utilizationEnergyOverdrawMission 0
scalar OsgEarthNet.uav[56] utilizationEnergyOverdrawMaintenance 0
scalar OsgEarthNet.uav[56] utilizationCountMissions 23
scalar OsgEarthNet.uav[56] utilizationCountManeuversMission 461
scalar OsgEarthNet.uav[56] utilizationCountManeuversMaintenance 46
scalar OsgEarthNet.uav[56] utilizationCountChargeState 23
scalar OsgEarthNet.uav[56] utilizationCountOverdrawnAfterMission 0
scalar OsgEarthNet.uav[56] utilizationCountIdleState 23
scalar OsgEarthNet.uav[56] utilizationFail 0
scalar OsgEarthNet.uav[56] simulationTime 259200
scalar OsgEarthNet.uav[57] utilizationSecMission 24578.024615606
scalar OsgEarthNet.uav[57] utilizationSecMaintenance 14044.704668136
scalar OsgEarthNet.uav[57] utilizationSecCharge 136868.91611338
scalar OsgEarthNet.uav[57] utilizationSecIdle 83708.353602879
scalar OsgEarthNet.uav[57] utilizationEnergyMission 118480.60897446
scalar OsgEarthNet.uav[57] utilizationEnergyMaintenance 66312.569747925
scalar OsgEarthNet.uav[57] utilizationEnergyCharge 180610.39941406
scalar OsgEarthNet.uav[57] utilizationEnergyOverdrawMission 0
scalar OsgEarthNet.uav[57] utilizationEnergyOverdrawMaintenance 0
scalar OsgEarthNet.uav[57] utilizationCountMissions 43
scalar OsgEarthNet.uav[57] utilizationCountManeuversMission 747
scalar OsgEarthNet.uav[57] utilizationCountManeuversMaintenance 86
scalar OsgEarthNet.uav[57] utilizationCountChargeState 43
scalar OsgEarthNet.uav[57] utilizationCountOverdrawnAfterMission 0
scalar OsgEarthNet.uav[57] utilizationCountIdleState 27
scalar OsgEarthNet.uav[57] utilizationFail 0
scalar OsgEarthNet.uav[57] simulationTime 259200
scalar OsgEarthNet.uav[58] utilizationSecMission 43729.881218576
scalar OsgEarthNet.uav[58] utilizationSecMaintenance 16482.598203324
scalar OsgEarthNet.uav[58] utilizationSecCharge 197195.5175781
scalar OsgEarthNet.uav[58] utilizationSecIdle 1792.002
scalar OsgEarthNet.uav[58] utilizationEnergyMission 208629.81525421
scalar OsgEarthNet.uav[58] utilizationEnergyMaintenance 74853.254528046
scalar OsgEarthNet.uav[58] utilizationEnergyCharge 282651.06982422
scalar OsgEarthNet.uav[58] utilizationEnergyOverdrawMission 0
scalar OsgEarthNet.uav[58] utilizationEnergyOverdrawMaintenance 0
scalar OsgEarthNet.uav[58] utilizationCountMissions 61
scalar OsgEarthNet.uav[58] utilizationCountManeuversMission 1188
scalar OsgEarthNet.uav[58] utilizationCountManeuversMaintenance 122
scalar OsgEarthNet.uav[58] utilizationCountChargeState 61
scalar OsgEarthNet.uav[58] utilizationCountOverdrawnAfterMission 0
scalar OsgEarthNet.uav[58] utilizationCountIdleState 10
scalar OsgEarthNet.uav[58] utilizationFail 0
scalar OsgEarthNet.uav[58] simulationTime 259200
scalar OsgEarthNet.uav[59] utilizationSecMission 17822.218044603
scalar OsgEarthNet.uav[59] utilizationSecMaintenance 12105.779955397
scalar OsgEarthNet.uav[59] utilizationSecCharge 112270
scalar OsgEarthNet.uav[59] utilizationSecIdle 117002.001
scalar OsgEarthNet.uav[59] utilizationEnergyMission 88757.725679911
scalar OsgEarthNet.uav[59] utilizationEnergyMaintenance 57742.306732178
scalar OsgEarthNet.uav[59] utilizationEnergyCharge 144800.10058594
scalar OsgEarthNet.uav[59] utilizationEnergyOverdrawMission 0
scalar OsgEarthNet.uav[59] utilizationEnergyOverdrawMaintenance 0
scalar OsgEarthNet.uav[59] utilizationCountMissions 32
scalar OsgEarthNet.uav[59] utilizationCountManeuversMission 622
scalar OsgEarthNet.uav[59] utilizationCountManeuversMaintenance 65
scalar OsgEarthNet.uav[59] utilizationCountChargeState 32
scalar OsgEarthNet.uav[59] utilizationCountOverdrawnAfterMission 0
scalar OsgEarthNet.uav[59] utilizationCountIdleState 33
scalar OsgEarthNet.uav[59] utilizationFail 0
scalar OsgEarthNet.uav[59] simulationTime 259200
scalar OsgEarthNet.uav[60] utilizationSecMission 17326.876678383
scalar OsgEarthNet.uav[60] utilizationSecMaintenance 10800.684339
scalar OsgEarthNet.uav[60] utilizationSecCharge 105060
scalar OsgEarthNet.uav[60] utilizationSecIdle 126012.43798262
scalar OsgEarthNet.uav[60] utilizationEnergyMission 85212.719673157
scalar OsgEarthNet.uav[60] utilizationEnergyMaintenance 51866.999824524
scalar OsgEarthNet.uav[60] utilizationEnergyCharge 135588.45898438
scalar OsgEarthNet.uav[60] utilizationEnergyOverdrawMission 0
scalar OsgEarthNet.uav[60] utilizationEnergyOverdrawMaintenance 0
scalar OsgEarthNet.uav[60] utilizationCountMissions 30
scalar OsgEarthNet.uav[60] utilizationCountManeuversMission 580
scalar OsgEarthNet.uav[60] utilizationCountManeuversMaintenance 60
scalar OsgEarthNet.uav[60] utilizationCountChargeState 30
scalar OsgEarthNet.uav[60] utilizationCountOverdrawnAfterMission 0
scalar OsgEarthNet.uav[60] utilizationCountIdleState 31
scalar OsgEarthNet.uav[60] utilizationFail 0
scalar OsgEarthNet.uav[60] simulationTime 259200
scalar OsgEarthNet.uav[61] utilizationSecMission 18293.541816637
scalar OsgEarthNet.uav[61] utilizationSecMaintenance 12316.453352093
scalar OsgEarthNet.uav[61] utilizationSecCharge 118060
scalar OsgEarthNet.uav[61] utilizationSecIdle 110530.00383127
scalar OsgEarthNet.uav[61] utilizationEnergyMission 91986.401012421
scalar OsgEarthNet.uav[61] utilizationEnergyMaintenance 58470.428073883
scalar OsgEarthNet.uav[61] utilizationEnergyCharge 149679.89355469
scalar OsgEarthNet.uav[61] utilizationEnergyOverdrawMission 0
scalar OsgEarthNet.uav[61] utilizationEnergyOverdrawMaintenance 0
scalar OsgEarthNet.uav[61] utilizationCountMissions 35
scalar OsgEarthNet.uav[61] utilizationCountManeuversMission 677
scalar OsgEarthNet.uav[61] utilizationCountManeuversMaintenance 70
scalar OsgEarthNet.uav[61] utilizationCountChargeState 35
scalar OsgEarthNet.uav[61] utilizationCountOverdrawnAfterMission 0
scalar OsgEarthNet.uav[61] utilizationCountIdleState 36
scalar OsgEarthNet.uav[61] utilizationFail 0
scalar OsgEarthNet.uav[61] simulationTime 259200
scalar OsgEarthNet.uav[62] utilizationSecMission 42358.819735848
scalar OsgEarthNet.uav[62] utilizationSecMaintenance 17972.431553481
scalar OsgEarthNet.uav[62] utilizationSecCharge 196286.74471067
scalar OsgEarthNet.uav[62] utilizationSecIdle 2582.003
scalar OsgEarthNet.uav[62] utilizationEnergyMission 204765.3051796
scalar OsgEarthNet.uav[62] utilizationEnergyMaintenance 81756.449192047
scalar OsgEarthNet.uav[62] utilizationEnergyCharge 283013.4069519
scalar OsgEarthNet.uav[62] utilizationEnergyOverdrawMission 0
scalar OsgEarthNet.uav[62] utilizationEnergyOverdrawMaintenance 0
scalar OsgEarthNet.uav[62] utilizationCountMissions 63
scalar OsgEarthNet.uav[62] utilizationCountManeuversMission 1268
scalar OsgEarthNet.uav[62] utilizationCountManeuversMaintenance 126
scalar OsgEarthNet.uav[62] utilizationCountChargeState 63
scalar OsgEarthNet.uav[62] utilizationCountOverdrawnAfterMission 0
scalar OsgEarthNet.uav[62] utilizationCountIdleState 8
scalar OsgEarthNet.uav[62] utilizationFail 0
scalar OsgEarthNet.uav[62] simulationTime 259200
scalar OsgEarthNet.uav[63] utilizationSecMission 15806.876678383
scalar OsgEarthNet.uav[63] utilizationSecMaintenance 9720.4911243578
scalar OsgEarthNet.uav[63] utilizationSecCharge 91870.622197259
scalar OsgEarthNet.uav[63] utilizationSecIdle 141802.009
scalar OsgEarthNet.uav[63] utilizationEnergyMission 76512.439617157
scalar OsgEarthNet.uav[63] utilizationEnergyMaintenance 46105.59784317
scalar OsgEarthNet.uav[63] utilizationEnergyCharge 118816.81286621
scalar OsgEarthNet.uav[63] utilizationEnergyOverdrawMission 0
scalar OsgEarthNet.uav[63] utilizationEnergyOverdrawMaintenance 0
scalar OsgEarthNet.uav[63] utilizationCountMissions 27
scalar OsgEarthNet.uav[63] utilizationCountManeuversMission 504
scalar OsgEarthNet.uav[63] utilizationCountManeuversMaintenance 54
scalar OsgEarthNet.uav[63] utilizationCountChargeState 27
scalar OsgEarthNet.uav[63] utilizationCountOverdrawnAfterMission 0
scalar OsgEarthNet.uav[63] utilizationCountIdleState 27
scalar OsgEarthNet.uav[63] utilizationFail 0
scalar OsgEarthNet.uav[63] simulationTime 259200
scalar OsgEarthNet.uav[64] utilizationSecMission 17391.849205247
scalar OsgEarthNet.uav[64] utilizationSecMaintenance 11460.921958354
scalar OsgEarthNet.uav[64] utilizationSecCharge 112219.91175457
scalar OsgEarthNet.uav[64] utilizationSecIdle 118127.31608183
scalar OsgEarthNet.uav[64] utilizationEnergyMission 81725.942523956
scalar OsgEarthNet.uav[64] utilizationEnergyMaintenance 54969.64099884
scalar OsgEarthNet.uav[64] utilizationEnergyCharge 137102.26464844
scalar OsgEarthNet.uav[64] utilizationEnergyOverdrawMission 0
scalar OsgEarthNet.uav[64] utilizationEnergyOverdrawMaintenance 0
scalar OsgEarthNet.uav[64] utilizationCountMissions 37
scalar OsgEarthNet.uav[64] utilizationCountManeuversMission 430
scalar OsgEarthNet.uav[64] utilizationCountManeuversMaintenance 74
scalar OsgEarthNet.uav[64] utilizationCountChargeState 37
scalar OsgEarthNet.uav[64] utilizationCountOverdrawnAfterMission 0
scalar OsgEarthNet.uav[64] utilizationCountIdleState 37
scalar OsgEarthNet.uav[64] utilizationFail 0
scalar OsgEarthNet.uav[64] simulationTime 259200
scalar OsgEarthNet.uav[65] utilizationSecMission 42104.362757597
scalar OsgEarthNet.uav[65] utilizationSecMaintenance 18829.05699798
scalar OsgEarthNet.uav[65] utilizationSecCharge 197564.57824442
scalar OsgEarthNet.uav[65] utilizationSecIdle 702.001
scalar OsgEarthNet.uav[65] utilizationEnergyMission 202189.51410675
[...]
scalar OsgEarthNet.uav[180] utilizationSecIdle 259199.999
scalar OsgEarthNet.uav[180] utilizationEnergyMission 0
scalar OsgEarthNet.uav[180] utilizationEnergyMaintenance 0
scalar OsgEarthNet.uav[180] utilizationEnergyCharge 0
scalar OsgEarthNet.uav[180] utilizationEnergyOverdrawMission 0
scalar OsgEarthNet.uav[180] utilizationEnergyOverdrawMaintenance 0
scalar OsgEarthNet.uav[180] utilizationCountMissions 0
scalar OsgEarthNet.uav[180] utilizationCountManeuversMission 0
scalar OsgEarthNet.uav[180] utilizationCountManeuversMaintenance 0
scalar OsgEarthNet.uav[180] utilizationCountChargeState 0
scalar OsgEarthNet.uav[180] utilizationCountOverdrawnAfterMission 0
scalar OsgEarthNet.uav[180] utilizationCountIdleState 1
scalar OsgEarthNet.uav[180] utilizationFail 0
scalar OsgEarthNet.uav[180] simulationTime 259200
scalar OsgEarthNet.uav[181] utilizationSecMission 0
scalar OsgEarthNet.uav[181] utilizationSecMaintenance 0
scalar OsgEarthNet.uav[181] utilizationSecCharge 0
scalar OsgEarthNet.uav[181] utilizationSecIdle 259199.999
scalar OsgEarthNet.uav[181] utilizationEnergyMission 0
scalar OsgEarthNet.uav[181] utilizationEnergyMaintenance 0
scalar OsgEarthNet.uav[181] utilizationEnergyCharge 0
scalar OsgEarthNet.uav[181] utilizationEnergyOverdrawMission 0
scalar OsgEarthNet.uav[181] utilizationEnergyOverdrawMaintenance 0
scalar OsgEarthNet.uav[181] utilizationCountMissions 0
scalar OsgEarthNet.uav[181] utilizationCountManeuversMission 0
scalar OsgEarthNet.uav[181] utilizationCountManeuversMaintenance 0
scalar OsgEarthNet.uav[181] utilizationCountChargeState 0
scalar OsgEarthNet.uav[181] utilizationCountOverdrawnAfterMission 0
scalar OsgEarthNet.uav[181] utilizationCountIdleState 1
scalar OsgEarthNet.uav[181] utilizationFail 0
scalar OsgEarthNet.uav[181] simulationTime 259200
scalar OsgEarthNet.uav[182] utilizationSecMission 0
scalar OsgEarthNet.uav[182] utilizationSecMaintenance 0
scalar OsgEarthNet.uav[182] utilizationSecCharge 0
scalar OsgEarthNet.uav[182] utilizationSecIdle 259199.999
scalar OsgEarthNet.uav[182] utilizationEnergyMission 0
scalar OsgEarthNet.uav[182] utilizationEnergyMaintenance 0
scalar OsgEarthNet.uav[182] utilizationEnergyCharge 0
scalar OsgEarthNet.uav[182] utilizationEnergyOverdrawMission 0
scalar OsgEarthNet.uav[182] utilizationEnergyOverdrawMaintenance 0
scalar OsgEarthNet.uav[182] utilizationCountMissions 0
scalar OsgEarthNet.uav[182] utilizationCountManeuversMission 0
scalar OsgEarthNet.uav[182] utilizationCountManeuversMaintenance 0
scalar OsgEarthNet.uav[182] utilizationCountChargeState 0
scalar OsgEarthNet.uav[182] utilizationCountOverdrawnAfterMission 0
scalar OsgEarthNet.uav[182] utilizationCountIdleState 1
scalar OsgEarthNet.uav[182] utilizationFail 0
scalar OsgEarthNet.uav[182] simulationTime 259200
scalar OsgEarthNet.uav[183] utilizationSecMission 0
scalar OsgEarthNet.uav[183] utilizationSecMaintenance 0
scalar OsgEarthNet.uav[183] utilizationSecCharge 0
scalar OsgEarthNet.uav[183] utilizationSecIdle 259199.999
scalar OsgEarthNet.uav[183] utilizationEnergyMission 0
scalar OsgEarthNet.uav[183] utilizationEnergyMaintenance 0
scalar OsgEarthNet.uav[183] utilizationEnergyCharge 0
scalar OsgEarthNet.uav[183] utilizationEnergyOverdrawMission 0
scalar OsgEarthNet.uav[183] utilizationEnergyOverdrawMaintenance 0
scalar OsgEarthNet.uav[183] utilizationCountMissions 0
scalar OsgEarthNet.uav[183] utilizationCountManeuversMission 0
scalar OsgEarthNet.uav[183] utilizationCountManeuversMaintenance 0
scalar OsgEarthNet.uav[183] utilizationCountChargeState 0
scalar OsgEarthNet.uav[183] utilizationCountOverdrawnAfterMission 0
scalar OsgEarthNet.uav[183] utilizationCountIdleState 1
scalar OsgEarthNet.uav[183] utilizationFail 0
scalar OsgEarthNet.uav[183] simulationTime 259200
scalar OsgEarthNet.uav[184] utilizationSecMission 0
scalar OsgEarthNet.uav[184] utilizationSecMaintenance 0
scalar OsgEarthNet.uav[184] utilizationSecCharge 0
scalar OsgEarthNet.uav[184] utilizationSecIdle 259199.999
scalar OsgEarthNet.uav[184] utilizationEnergyMission 0
scalar OsgEarthNet.uav[184] utilizationEnergyMaintenance 0
scalar OsgEarthNet.uav[184] utilizationEnergyCharge 0
scalar OsgEarthNet.uav[184] utilizationEnergyOverdrawMission 0
scalar OsgEarthNet.uav[184] utilizationEnergyOverdrawMaintenance 0
scalar OsgEarthNet.uav[184] utilizationCountMissions 0
scalar OsgEarthNet.uav[184] utilizationCountManeuversMission 0
scalar OsgEarthNet.uav[184] utilizationCountManeuversMaintenance 0
scalar OsgEarthNet.uav[184] utilizationCountChargeState 0
scalar OsgEarthNet.uav[184] utilizationCountOverdrawnAfterMission 0
scalar OsgEarthNet.uav[184] utilizationCountIdleState 1
scalar OsgEarthNet.uav[184] utilizationFail 0
scalar OsgEarthNet.uav[184] simulationTime 259200
scalar OsgEarthNet.uav[185] utilizationSecMission 0
scalar OsgEarthNet.uav[185] utilizationSecMaintenance 0
scalar OsgEarthNet.uav[185] utilizationSecCharge 0
scalar OsgEarthNet.uav[185] utilizationSecIdle 259199.999
scalar OsgEarthNet.uav[185] utilizationEnergyMission 0
scalar OsgEarthNet.uav[185] utilizationEnergyMaintenance 0
scalar OsgEarthNet.uav[185] utilizationEnergyCharge 0
scalar OsgEarthNet.uav[185] utilizationEnergyOverdrawMission 0
scalar OsgEarthNet.uav[185] utilizationEnergyOverdrawMaintenance 0
scalar OsgEarthNet.uav[185] utilizationCountMissions 0
scalar OsgEarthNet.uav[185] utilizationCountManeuversMission 0
scalar OsgEarthNet.uav[185] utilizationCountManeuversMaintenance 0
scalar OsgEarthNet.uav[185] utilizationCountChargeState 0
scalar OsgEarthNet.uav[185] utilizationCountOverdrawnAfterMission 0
scalar OsgEarthNet.uav[185] utilizationCountIdleState 1
scalar OsgEarthNet.uav[185] utilizationFail 0
scalar OsgEarthNet.uav[185] simulationTime 259200
scalar OsgEarthNet.uav[186] utilizationSecMission 0
scalar OsgEarthNet.uav[186] utilizationSecMaintenance 0
scalar OsgEarthNet.uav[186] utilizationSecCharge 0
scalar OsgEarthNet.uav[186] utilizationSecIdle 259199.999
scalar OsgEarthNet.uav[186] utilizationEnergyMission 0
scalar OsgEarthNet.uav[186] utilizationEnergyMaintenance 0
scalar OsgEarthNet.uav[186] utilizationEnergyCharge 0
scalar OsgEarthNet.uav[186] utilizationEnergyOverdrawMission 0
scalar OsgEarthNet.uav[186] utilizationEnergyOverdrawMaintenance 0
scalar OsgEarthNet.uav[186] utilizationCountMissions 0
scalar OsgEarthNet.uav[186] utilizationCountManeuversMission 0
scalar OsgEarthNet.uav[186] utilizationCountManeuversMaintenance 0
scalar OsgEarthNet.uav[186] utilizationCountChargeState 0
scalar OsgEarthNet.uav[186] utilizationCountOverdrawnAfterMission 0
scalar OsgEarthNet.uav[186] utilizationCountIdleState 1
scalar OsgEarthNet.uav[186] utilizationFail 0
scalar OsgEarthNet.uav[186] simulationTime 259200
scalar OsgEarthNet.uav[187] utilizationSecMission 0
scalar OsgEarthNet.uav[187] utilizationSecMaintenance 0
scalar OsgEarthNet.uav[187] utilizationSecCharge 0
scalar OsgEarthNet.uav[187] utilizationSecIdle 259199.999
scalar OsgEarthNet.uav[187] utilizationEnergyMission 0
scalar OsgEarthNet.uav[187] utilizationEnergyMaintenance 0
scalar OsgEarthNet.uav[187] utilizationEnergyCharge 0
scalar OsgEarthNet.uav[187] utilizationEnergyOverdrawMission 0
scalar OsgEarthNet.uav[187] utilizationEnergyOverdrawMaintenance 0
scalar OsgEarthNet.uav[187] utilizationCountMissions 0
scalar OsgEarthNet.uav[187] utilizationCountManeuversMission 0
scalar OsgEarthNet.uav[187] utilizationCountManeuversMaintenance 0
scalar OsgEarthNet.uav[187] utilizationCountChargeState 0
scalar OsgEarthNet.uav[187] utilizationCountOverdrawnAfterMission 0
scalar OsgEarthNet.uav[187] utilizationCountIdleState 1
scalar OsgEarthNet.uav[187] utilizationFail 0
scalar OsgEarthNet.uav[187] simulationTime 259200
scalar OsgEarthNet.uav[188] utilizationSecMission 0
scalar OsgEarthNet.uav[188] utilizationSecMaintenance 0
scalar OsgEarthNet.uav[188] utilizationSecCharge 0
scalar OsgEarthNet.uav[188] utilizationSecIdle 259199.999
scalar OsgEarthNet.uav[188] utilizationEnergyMission 0
scalar OsgEarthNet.uav[188] utilizationEnergyMaintenance 0
scalar OsgEarthNet.uav[188] utilizationEnergyCharge 0
scalar OsgEarthNet.uav[188] utilizationEnergyOverdrawMission 0
scalar OsgEarthNet.uav[188] utilizationEnergyOverdrawMaintenance 0
scalar OsgEarthNet.uav[188] utilizationCountMissions 0
scalar OsgEarthNet.uav[188] utilizationCountManeuversMission 0
scalar OsgEarthNet.uav[188] utilizationCountManeuversMaintenance 0
scalar OsgEarthNet.uav[188] utilizationCountChargeState 0
scalar OsgEarthNet.uav[188] utilizationCountOverdrawnAfterMission 0
scalar OsgEarthNet.uav[188] utilizationCountIdleState 1
scalar OsgEarthNet.uav[188] utilizationFail 0
scalar OsgEarthNet.uav[188] simulationTime 259200
scalar OsgEarthNet.uav[189] utilizationSecMission 0
scalar OsgEarthNet.uav[189] utilizationSecMaintenance 0
scalar OsgEarthNet.uav[189] utilizationSecCharge 0
scalar OsgEarthNet.uav[189] utilizationSecIdle 259199.999
scalar OsgEarthNet.uav[189] utilizationEnergyMission 0
scalar OsgEarthNet.uav[189] utilizationEnergyMaintenance 0
scalar OsgEarthNet.uav[189] utilizationEnergyCharge 0
scalar OsgEarthNet.uav[189] utilizationEnergyOverdrawMission 0
scalar OsgEarthNet.uav[189] utilizationEnergyOverdrawMaintenance 0
scalar OsgEarthNet.uav[189] utilizationCountMissions 0
scalar OsgEarthNet.uav[189] utilizationCountManeuversMission 0
scalar OsgEarthNet.uav[189] utilizationCountManeuversMaintenance 0
scalar OsgEarthNet.uav[189] utilizationCountChargeState 0
scalar OsgEarthNet.uav[189] utilizationCountOverdrawnAfterMission 0
scalar OsgEarthNet.uav[189] utilizationCountIdleState 1
scalar OsgEarthNet.uav[189] utilizationFail 0
scalar OsgEarthNet.uav[189] simulationTime 259200
scalar OsgEarthNet.uav[190] utilizationSecMission 0
scalar OsgEarthNet.uav[190] utilizationSecMaintenance 0
scalar OsgEarthNet.uav[190] utilizationSecCharge 0
scalar OsgEarthNet.uav[190] utilizationSecIdle 259199.999
scalar OsgEarthNet.uav[190] utilizationEnergyMission 0
scalar OsgEarthNet.uav[190] utilizationEnergyMaintenance 0
scalar OsgEarthNet.uav[190] utilizationEnergyCharge 0
scalar OsgEarthNet.uav[190] utilizationEnergyOverdrawMission 0
scalar OsgEarthNet.uav[190] utilizationEnergyOverdrawMaintenance 0
scalar OsgEarthNet.uav[190] utilizationCountMissions 0
scalar OsgEarthNet.uav[190] utilizationCountManeuversMission 0
scalar OsgEarthNet.uav[190] utilizationCountManeuversMaintenance 0
scalar OsgEarthNet.uav[190] utilizationCountChargeState 0
scalar OsgEarthNet.uav[190] utilizationCountOverdrawnAfterMission 0
scalar OsgEarthNet.uav[190] utilizationCountIdleState 1
scalar OsgEarthNet.uav[190] utilizationFail 0
scalar OsgEarthNet.uav[190] simulationTime 259200
scalar OsgEarthNet.uav[191] utilizationSecMission 0
scalar OsgEarthNet.uav[191] utilizationSecMaintenance 0
scalar OsgEarthNet.uav[191] utilizationSecCharge 0
scalar OsgEarthNet.uav[191] utilizationSecIdle 259199.999
scalar OsgEarthNet.uav[191] utilizationEnergyMission 0
scalar OsgEarthNet.uav[191] utilizationEnergyMaintenance 0
scalar OsgEarthNet.uav[191] utilizationEnergyCharge 0
scalar OsgEarthNet.uav[191] utilizationEnergyOverdrawMission 0
scalar OsgEarthNet.uav[191] utilizationEnergyOverdrawMaintenance 0
scalar OsgEarthNet.uav[191] utilizationCountMissions 0
scalar OsgEarthNet.uav[191] utilizationCountManeuversMission 0
scalar OsgEarthNet.uav[191] utilizationCountManeuversMaintenance 0
scalar OsgEarthNet.uav[191] utilizationCountChargeState 0
scalar OsgEarthNet.uav[191] utilizationCountOverdrawnAfterMission 0
scalar OsgEarthNet.uav[191] utilizationCountIdleState 1
scalar OsgEarthNet.uav[191] utilizationFail 0
scalar OsgEarthNet.uav[191] simulationTime 259200
scalar OsgEarthNet.uav[192] utilizationSecMission 0
scalar OsgEarthNet.uav[192] utilizationSecMaintenance 0
scalar OsgEarthNet.uav[192] utilizationSecCharge 0
scalar OsgEarthNet.uav[192] utilizationSecIdle 259199.999
scalar OsgEarthNet.uav[192] utilizationEnergyMission 0
scalar OsgEarthNet.uav[192] utilizationEnergyMaintenance 0
scalar OsgEarthNet.uav[192] utilizationEnergyCharge 0
scalar OsgEarthNet.uav[192] utilizationEnergyOverdrawMission 0
scalar OsgEarthNet.uav[192] utilizationEnergyOverdrawMaintenance 0
scalar OsgEarthNet.uav[192] utilizationCountMissions 0
scalar OsgEarthNet.uav[192] utilizationCountManeuversMission 0
scalar OsgEarthNet.uav[192] utilizationCountManeuversMaintenance 0
scalar OsgEarthNet.uav[192] utilizationCountChargeState 0
scalar OsgEarthNet.uav[192] utilizationCountOverdrawnAfterMission 0
scalar OsgEarthNet.uav[192] utilizationCountIdleState 1
scalar OsgEarthNet.uav[192] utilizationFail 0
scalar OsgEarthNet.uav[192] simulationTime 259200
scalar OsgEarthNet.uav[193] utilizationSecMission 0
scalar OsgEarthNet.uav[193] utilizationSecMaintenance 0
scalar OsgEarthNet.uav[193] utilizationSecCharge 0
scalar OsgEarthNet.uav[193] utilizationSecIdle 259199.999
scalar OsgEarthNet.uav[193] utilizationEnergyMission 0
scalar OsgEarthNet.uav[193] utilizationEnergyMaintenance 0
scalar OsgEarthNet.uav[193] utilizationEnergyCharge 0
scalar OsgEarthNet.uav[193] utilizationEnergyOverdrawMission 0
scalar OsgEarthNet.uav[193] utilizationEnergyOverdrawMaintenance 0
scalar OsgEarthNet.uav[193] utilizationCountMissions 0
scalar OsgEarthNet.uav[193] utilizationCountManeuversMission 0
scalar OsgEarthNet.uav[193] utilizationCountManeuversMaintenance 0
scalar OsgEarthNet.uav[193] utilizationCountChargeState 0
scalar OsgEarthNet.uav[193] utilizationCountOverdrawnAfterMission 0
scalar OsgEarthNet.uav[193] utilizationCountIdleState 1
scalar OsgEarthNet.uav[193] utilizationFail 0
scalar OsgEarthNet.uav[193] simulationTime 259200
scalar OsgEarthNet.uav[194] utilizationSecMission 0
scalar OsgEarthNet.uav[194] utilizationSecMaintenance 0
scalar OsgEarthNet.uav[194] utilizationSecCharge 0
scalar OsgEarthNet.uav[194] utilizationSecIdle 259199.999
scalar OsgEarthNet.uav[194] utilizationEnergyMission 0
scalar OsgEarthNet.uav[194] utilizationEnergyMaintenance 0
scalar OsgEarthNet.uav[194] utilizationEnergyCharge 0
scalar OsgEarthNet.uav[194] utilizationEnergyOverdrawMission 0
scalar OsgEarthNet.uav[194] utilizationEnergyOverdrawMaintenance 0
scalar OsgEarthNet.uav[194] utilizationCountMissions 0
scalar OsgEarthNet.uav[194] utilizationCountManeuversMission 0
scalar OsgEarthNet.uav[194] utilizationCountManeuversMaintenance 0
scalar OsgEarthNet.uav[194] utilizationCountChargeState 0
scalar OsgEarthNet.uav[194] utilizationCountOverdrawnAfterMission 0
scalar OsgEarthNet.uav[194] utilizationCountIdleState 1
scalar OsgEarthNet.uav[194] utilizationFail 0
scalar OsgEarthNet.uav[194] simulationTime 259200
scalar OsgEarthNet.uav[195] utilizationSecMission 0
scalar OsgEarthNet.uav[195] utilizationSecMaintenance 0
scalar OsgEarthNet.uav[195] utilizationSecCharge 0
scalar OsgEarthNet.uav[195] utilizationSecIdle 259199.999
scalar OsgEarthNet.uav[195] utilizationEnergyMission 0
scalar OsgEarthNet.uav[195] utilizationEnergyMaintenance 0
scalar OsgEarthNet.uav[195] utilizationEnergyCharge 0
scalar OsgEarthNet.uav[195] utilizationEnergyOverdrawMission 0
scalar OsgEarthNet.uav[195] utilizationEnergyOverdrawMaintenance 0
scalar OsgEarthNet.uav[195] utilizationCountMissions 0
scalar OsgEarthNet.uav[195] utilizationCountManeuversMission 0
scalar OsgEarthNet.uav[195] utilizationCountManeuversMaintenance 0
scalar OsgEarthNet.uav[195] utilizationCountChargeState 0
scalar OsgEarthNet.uav[195] utilizationCountOverdrawnAfterMission 0
scalar OsgEarthNet.uav[195] utilizationCountIdleState 1
scalar OsgEarthNet.uav[195] utilizationFail 0
scalar OsgEarthNet.uav[195] simulationTime 259200
scalar OsgEarthNet.uav[196] utilizationSecMission 0
scalar OsgEarthNet.uav[196] utilizationSecMaintenance 0
scalar OsgEarthNet.uav[196] utilizationSecCharge 0
scalar OsgEarthNet.uav[196] utilizationSecIdle 259199.999
scalar OsgEarthNet.uav[196] utilizationEnergyMission 0
scalar OsgEarthNet.uav[196] utilizationEnergyMaintenance 0
scalar OsgEarthNet.uav[196] utilizationEnergyCharge 0
scalar OsgEarthNet.uav[196] utilizationEnergyOverdrawMission 0
scalar OsgEarthNet.uav[196] utilizationEnergyOverdrawMaintenance 0
scalar OsgEarthNet.uav[196] utilizationCountMissions 0
scalar OsgEarthNet.uav[196] utilizationCountManeuversMission 0
scalar OsgEarthNet.uav[196] utilizationCountManeuversMaintenance 0
scalar OsgEarthNet.uav[196] utilizationCountChargeState 0
scalar OsgEarthNet.uav[196] utilizationCountOverdrawnAfterMission 0
scalar OsgEarthNet.uav[196] utilizationCountIdleState 1
scalar OsgEarthNet.uav[196] utilizationFail 0
scalar OsgEarthNet.uav[196] simulationTime 259200
scalar OsgEarthNet.uav[197] utilizationSecMission 0
scalar OsgEarthNet.uav[197] utilizationSecMaintenance 0
scalar OsgEarthNet.uav[197] utilizationSecCharge 0
scalar OsgEarthNet.uav[197] utilizationSecIdle 259199.999
scalar OsgEarthNet.uav[197] utilizationEnergyMission 0
scalar OsgEarthNet.uav[197] utilizationEnergyMaintenance 0
scalar OsgEarthNet.uav[197] utilizationEnergyCharge 0
scalar OsgEarthNet.uav[197] utilizationEnergyOverdrawMission 0
scalar OsgEarthNet.uav[197] utilizationEnergyOverdrawMaintenance 0
scalar OsgEarthNet.uav[197] utilizationCountMissions 0
scalar OsgEarthNet.uav[197] utilizationCountManeuversMission 0
scalar OsgEarthNet.uav[197] utilizationCountManeuversMaintenance 0
scalar OsgEarthNet.uav[197] utilizationCountChargeState 0
scalar OsgEarthNet.uav[197] utilizationCountOverdrawnAfterMission 0
scalar OsgEarthNet.uav[197] utilizationCountIdleState 1
scalar OsgEarthNet.uav[197] utilizationFail 0
scalar OsgEarthNet.uav[197] simulationTime 259200
scalar OsgEarthNet.uav[198] utilizationSecMission 0
scalar OsgEarthNet.uav[198] utilizationSecMaintenance 0
scalar OsgEarthNet.uav[198] utilizationSecCharge 0
scalar OsgEarthNet.uav[198] utilizationSecIdle 259199.999
scalar OsgEarthNet.uav[198] utilizationEnergyMission 0
scalar OsgEarthNet.uav[198] utilizationEnergyMaintenance 0
scalar OsgEarthNet.uav[198] utilizationEnergyCharge 0
scalar OsgEarthNet.uav[198] utilizationEnergyOverdrawMission 0
scalar OsgEarthNet.uav[198] utilizationEnergyOverdrawMaintenance 0
scalar OsgEarthNet.uav[198] utilizationCountMissions 0
scalar OsgEarthNet.uav[198] utilizationCountManeuversMission 0
scalar OsgEarthNet.uav[198] utilizationCountManeuversMaintenance 0
scalar OsgEarthNet.uav[198] utilizationCountChargeState 0
scalar OsgEarthNet.uav[198] utilizationCountOverdrawnAfterMission 0
scalar OsgEarthNet.uav[198] utilizationCountIdleState 1
scalar OsgEarthNet.uav[198] utilizationFail 0
scalar OsgEarthNet.uav[198] simulationTime 259200
scalar OsgEarthNet.uav[199] utilizationSecMission 0
scalar OsgEarthNet.uav[199] utilizationSecMaintenance 0
scalar OsgEarthNet.uav[199] utilizationSecCharge 0
scalar OsgEarthNet.uav[199] utilizationSecIdle 259199.999
scalar OsgEarthNet.uav[199] utilizationEnergyMission 0
scalar OsgEarthNet.uav[199] utilizationEnergyMaintenance 0
scalar OsgEarthNet.uav[199] utilizationEnergyCharge 0
scalar OsgEarthNet.uav[199] utilizationEnergyOverdrawMission 0
scalar OsgEarthNet.uav[199] utilizationEnergyOverdrawMaintenance 0
scalar OsgEarthNet.uav[199] utilizationCountMissions 0
scalar OsgEarthNet.uav[199] utilizationCountManeuversMission 0
scalar OsgEarthNet.uav[199] utilizationCountManeuversMaintenance 0
scalar OsgEarthNet.uav[199] utilizationCountChargeState 0
scalar OsgEarthNet.uav[199] utilizationCountOverdrawnAfterMission 0
scalar OsgEarthNet.uav[199] utilizationCountIdleState 1
scalar OsgEarthNet.uav[199] utilizationFail 0
scalar OsgEarthNet.uav[199] simulationTime 259200
scalar OsgEarthNet.cs[0] usedPower 3979911.9248403
scalar OsgEarthNet.cs[0] chargedPower 3979911.9248403
scalar OsgEarthNet.cs[0] chargedMobileNodes 874
scalar OsgEarthNet.cs[0] reservations 887
scalar OsgEarthNet.cs[1] usedPower 4152319.4517308
scalar OsgEarthNet.cs[1] chargedPower 4152319.4517308
scalar OsgEarthNet.cs[1] chargedMobileNodes 1038
scalar OsgEarthNet.cs[1] reservations 1051
scalar OsgEarthNet.cs[2] usedPower 8669677.9744811
scalar OsgEarthNet.cs[2] chargedPower 8669677.9744811
scalar OsgEarthNet.cs[2] chargedMobileNodes 158
scalar OsgEarthNet.cs[2] reservations 1905

