version 2
run Szenario_Hotel_Gabelbach-39-20180722-01:23:43-20980
attr configname Szenario_Hotel_Gabelbach
attr datetime 20180722-01:23:43
attr experiment Szenario_Hotel_Gabelbach
attr inifile omnetpp.ini
attr iterationvars "$replM=2, $biWeight=0.35, $replSearchM=1, $numUAVs=200"
attr iterationvarsf replM=2,biWeight=0.35,replSearchM=1,numUAVs=200-
attr measurement "$replM=2, $biWeight=0.35, $replSearchM=1, $numUAVs=200"
attr network OsgEarthNet
attr processid 20980
attr repetition 15
attr replication #15
attr resultdir results
attr runnumber 39
attr seedset 39
itervar biWeight 0.35
itervar numUAVs 200
itervar replM 2
itervar replSearchM 1
param *.osgEarthScene.scene "\"Szenario_Hotel_Gabelbach.earth\""
param *.playgroundLatitude 50.6830269
param *.playgroundLongitude 10.8538055
param *.playgroundWidth 3500m
param *.playgroundHeight 3500m
param *.cs[0].posX 3537m
param *.cs[0].posY 965m
param *.cs[0].posZ 538m
param *.cs[1].posX 312m
param *.cs[1].posY 1262m
param *.cs[1].posZ 539m
param *.cs[2].posX 2185m
param *.cs[2].posY 3026m
param *.cs[2].posZ 777m
param *.cs[3].posX 10m
param *.cs[3].posY 2200m
param *.cs[3].posZ 560m
param *.cs[4].posX 750m
param *.cs[4].posY 200m
param *.cs[4].posZ 540m
param *.cs[5].posX 2450m
param *.cs[5].posY 180m
param *.cs[5].posZ 524m
param *.cs[6].posX 3140m
param *.cs[6].posY 1790m
param *.cs[6].posZ 606m
param *.numCSs 3
param *.uav[*].replacementMethod 2
param *.uav[*].weightedSumWeight 0.35
param *.missionControl.replacementSearchMethod 1
param *.numUAVs 200
param *.*.timeStep 10s
param *.uav[*].commandPreviewCommandCount 20
param *.missionControl.missionFiles "\"missions\\\\Szenario_WB_Hotel_Gabelbach_Mission_Hotel.waypoints,missions\\\\Szenario_WB_Hotel_Gabelbach_Mission_Kickelhahn.waypoints,missions\\\\Szenario_WB_Hotel_Gabelbach_Mission_Ilmenau_Sportplatz.waypoints,missions\\\\Szenario_WB_Hotel_Gabelbach_Mission_Manebach_Mitte.waypoints,missions\\\\Szenario_WB_Hotel_Gabelbach_Mission_Manebach_Sued.waypoints,missions\\\\Szenario_WB_Hotel_Gabelbach_Hover_HoheSchlaufe.waypoints,missions\\\\Szenario_WB_Hotel_Gabelbach_Hover_Kickelhahn.waypoints,missions\\\\Szenario_WB_Hotel_Gabelbach_Hover_Gabelbachskopf.waypoints,missions\\\\Szenario_WB_Hotel_Gabelbach_Hover_Dachskopf.waypoints\""
param *.uav[0].startX 3537m
param *.uav[0].startY 965m
param *.uav[0].startZ 539m
param *.uav[1].startX 312m
param *.uav[1].startY 1262m
param *.uav[1].startZ 540m
param *.uav[2].startX 2185m
param *.uav[2].startY 3026m
param *.uav[2].startZ 778m
param *.uav[3].startX 3537m
param *.uav[3].startY 965m
param *.uav[3].startZ 539m
param *.uav[4].startX 312m
param *.uav[4].startY 1262m
param *.uav[4].startZ 540m
param *.uav[5].startX 2185m
param *.uav[5].startY 3026m
param *.uav[5].startZ 778m
param *.uav[6].startX 3537m
param *.uav[6].startY 965m
param *.uav[6].startZ 539m
param *.uav[7].startX 312m
param *.uav[7].startY 1262m
param *.uav[7].startZ 540m
param *.uav[8].startX 2185m
param *.uav[8].startY 3026m
param *.uav[8].startZ 778m
param *.uav[9].startX 3537m
param *.uav[9].startY 965m
param *.uav[9].startZ 539m
param *.uav[10].startX 3537m
param *.uav[10].startY 965m
param *.uav[10].startZ 539m
param *.uav[11].startX 312m
param *.uav[11].startY 1262m
param *.uav[11].startZ 540m
param *.uav[12].startX 2185m
param *.uav[12].startY 3026m
param *.uav[12].startZ 778m
param *.uav[13].startX 3537m
param *.uav[13].startY 965m
param *.uav[13].startZ 539m
param *.uav[14].startX 312m
param *.uav[14].startY 1262m
param *.uav[14].startZ 540m
param *.uav[15].startX 2185m
param *.uav[15].startY 3026m
param *.uav[15].startZ 778m
param *.uav[16].startX 3537m
param *.uav[16].startY 965m
param *.uav[16].startZ 539m
param *.uav[17].startX 312m
param *.uav[17].startY 1262m
param *.uav[17].startZ 540m
param *.uav[18].startX 2185m
param *.uav[18].startY 3026m
param *.uav[18].startZ 778m
param *.uav[19].startX 3537m
param *.uav[19].startY 965m
param *.uav[19].startZ 539m
param *.uav[20].startX 3537m
param *.uav[20].startY 965m
param *.uav[20].startZ 539m
param *.uav[21].startX 312m
param *.uav[21].startY 1262m
param *.uav[21].startZ 540m
param *.uav[22].startX 2185m
param *.uav[22].startY 3026m
param *.uav[22].startZ 778m
param *.uav[23].startX 3537m
param *.uav[23].startY 965m
param *.uav[23].startZ 539m
param *.uav[24].startX 312m
param *.uav[24].startY 1262m
param *.uav[24].startZ 540m
param *.uav[25].startX 2185m
param *.uav[25].startY 3026m
param *.uav[25].startZ 778m
param *.uav[26].startX 3537m
param *.uav[26].startY 965m
param *.uav[26].startZ 539m
param *.uav[27].startX 312m
param *.uav[27].startY 1262m
param *.uav[27].startZ 540m
param *.uav[28].startX 2185m
param *.uav[28].startY 3026m
param *.uav[28].startZ 778m
param *.uav[29].startX 3537m
param *.uav[29].startY 965m
param *.uav[29].startZ 539m
param *.uav[30].startX 3537m
param *.uav[30].startY 965m
param *.uav[30].startZ 539m
param *.uav[31].startX 312m
param *.uav[31].startY 1262m
param *.uav[31].startZ 540m
param *.uav[32].startX 2185m
param *.uav[32].startY 3026m
param *.uav[32].startZ 778m
param *.uav[33].startX 3537m
param *.uav[33].startY 965m
param *.uav[33].startZ 539m
param *.uav[34].startX 312m
param *.uav[34].startY 1262m
param *.uav[34].startZ 540m
param *.uav[35].startX 2185m
param *.uav[35].startY 3026m
param *.uav[35].startZ 778m
param *.uav[36].startX 3537m
param *.uav[36].startY 965m
param *.uav[36].startZ 539m
param *.uav[37].startX 312m
param *.uav[37].startY 1262m
param *.uav[37].startZ 540m
param *.uav[38].startX 2185m
param *.uav[38].startY 3026m
param *.uav[38].startZ 778m
param *.uav[39].startX 3537m
param *.uav[39].startY 965m
param *.uav[39].startZ 539m
param *.uav[40].startX 3537m
param *.uav[40].startY 965m
param *.uav[40].startZ 539m
param *.uav[41].startX 312m
param *.uav[41].startY 1262m
param *.uav[41].startZ 540m
param *.uav[42].startX 2185m
param *.uav[42].startY 3026m
param *.uav[42].startZ 778m
param *.uav[43].startX 3537m
param *.uav[43].startY 965m
param *.uav[43].startZ 539m
param *.uav[44].startX 312m
param *.uav[44].startY 1262m
param *.uav[44].startZ 540m
param *.uav[45].startX 2185m
param *.uav[45].startY 3026m
param *.uav[45].startZ 778m
param *.uav[46].startX 3537m
param *.uav[46].startY 965m
param *.uav[46].startZ 539m
param *.uav[47].startX 312m
param *.uav[47].startY 1262m
param *.uav[47].startZ 540m
param *.uav[48].startX 2185m
param *.uav[48].startY 3026m
param *.uav[48].startZ 778m
param *.uav[49].startX 3537m
param *.uav[49].startY 965m
param *.uav[49].startZ 539m
param *.uav[50].startX 3537m
param *.uav[50].startY 965m
param *.uav[50].startZ 539m
param *.uav[51].startX 312m
param *.uav[51].startY 1262m
param *.uav[51].startZ 540m
param *.uav[52].startX 2185m
param *.uav[52].startY 3026m
param *.uav[52].startZ 778m
param *.uav[53].startX 3537m
param *.uav[53].startY 965m
param *.uav[53].startZ 539m
param *.uav[54].startX 312m
param *.uav[54].startY 1262m
param *.uav[54].startZ 540m
param *.uav[55].startX 2185m
param *.uav[55].startY 3026m
param *.uav[55].startZ 778m
param *.uav[56].startX 3537m
param *.uav[56].startY 965m
param *.uav[56].startZ 539m
param *.uav[57].startX 312m
param *.uav[57].startY 1262m
param *.uav[57].startZ 540m
param *.uav[58].startX 2185m
param *.uav[58].startY 3026m
param *.uav[58].startZ 778m
param *.uav[59].startX 3537m
param *.uav[59].startY 965m
param *.uav[59].startZ 539m
param *.uav[60].startX 3537m
param *.uav[60].startY 965m
param *.uav[60].startZ 539m
param *.uav[61].startX 312m
param *.uav[61].startY 1262m
param *.uav[61].startZ 540m
param *.uav[62].startX 2185m
param *.uav[62].startY 3026m
param *.uav[62].startZ 778m
param *.uav[63].startX 3537m
param *.uav[63].startY 965m
param *.uav[63].startZ 539m
param *.uav[64].startX 312m
param *.uav[64].startY 1262m
param *.uav[64].startZ 540m
param *.uav[65].startX 2185m
param *.uav[65].startY 3026m
param *.uav[65].startZ 778m
param *.uav[66].startX 3537m
param *.uav[66].startY 965m
param *.uav[66].startZ 539m
param *.uav[67].startX 312m
param *.uav[67].startY 1262m
param *.uav[67].startZ 540m
param *.uav[68].startX 2185m
param *.uav[68].startY 3026m
param *.uav[68].startZ 778m
param *.uav[69].startX 3537m
param *.uav[69].startY 965m
param *.uav[69].startZ 539m
param *.uav[70].startX 3537m
param *.uav[70].startY 965m
param *.uav[70].startZ 539m
param *.uav[71].startX 312m
param *.uav[71].startY 1262m
param *.uav[71].startZ 540m
param *.uav[72].startX 2185m
param *.uav[72].startY 3026m
param *.uav[72].startZ 778m
param *.uav[73].startX 3537m
param *.uav[73].startY 965m
param *.uav[73].startZ 539m
param *.uav[74].startX 312m
param *.uav[74].startY 1262m
param *.uav[74].startZ 540m
param *.uav[75].startX 2185m
param *.uav[75].startY 3026m
param *.uav[75].startZ 778m
param *.uav[76].startX 3537m
param *.uav[76].startY 965m
param *.uav[76].startZ 539m
param *.uav[77].startX 312m
param *.uav[77].startY 1262m
param *.uav[77].startZ 540m
param *.uav[78].startX 2185m
param *.uav[78].startY 3026m
param *.uav[78].startZ 778m
param *.uav[79].startX 3537m
param *.uav[79].startY 965m
param *.uav[79].startZ 539m
param *.uav[80].startX 3537m
param *.uav[80].startY 965m
param *.uav[80].startZ 539m
param *.uav[81].startX 312m
param *.uav[81].startY 1262m
param *.uav[81].startZ 540m
param *.uav[82].startX 2185m
param *.uav[82].startY 3026m
param *.uav[82].startZ 778m
param *.uav[83].startX 3537m
param *.uav[83].startY 965m
param *.uav[83].startZ 539m
param *.uav[84].startX 312m
param *.uav[84].startY 1262m
param *.uav[84].startZ 540m
param *.uav[85].startX 2185m
param *.uav[85].startY 3026m
param *.uav[85].startZ 778m
param *.uav[86].startX 3537m
param *.uav[86].startY 965m
param *.uav[86].startZ 539m
param *.uav[87].startX 312m
param *.uav[87].startY 1262m
param *.uav[87].startZ 540m
param *.uav[88].startX 2185m
param *.uav[88].startY 3026m
param *.uav[88].startZ 778m
param *.uav[89].startX 3537m
param *.uav[89].startY 965m
param *.uav[89].startZ 539m
param *.uav[90].startX 3537m
param *.uav[90].startY 965m
param *.uav[90].startZ 539m
param *.uav[91].startX 312m
param *.uav[91].startY 1262m
param *.uav[91].startZ 540m
param *.uav[92].startX 2185m
param *.uav[92].startY 3026m
param *.uav[92].startZ 778m
param *.uav[93].startX 3537m
param *.uav[93].startY 965m
param *.uav[93].startZ 539m
param *.uav[94].startX 312m
param *.uav[94].startY 1262m
param *.uav[94].startZ 540m
param *.uav[95].startX 2185m
param *.uav[95].startY 3026m
param *.uav[95].startZ 778m
param *.uav[96].startX 3537m
param *.uav[96].startY 965m
param *.uav[96].startZ 539m
param *.uav[97].startX 312m
param *.uav[97].startY 1262m
param *.uav[97].startZ 540m
param *.uav[98].startX 2185m
param *.uav[98].startY 3026m
param *.uav[98].startZ 778m
param *.uav[99].startX 3537m
param *.uav[99].startY 965m
param *.uav[99].startZ 539m
param *.osgEarthScene.scene "\"boston.earth\""
param *.playgroundLatitude 42.3558
param *.playgroundLongitude -71.0677
param *.playgroundWidth 400m
param *.playgroundHeight 200m
param *.channelController.connectionColor "\"#0000FF40\""
param *.channelController.showConnections false
param *.uav[*].modelURL "\"quadrocopter.small.obj.15.scale.0,0,90.rot\""
param *.uav[*].labelColor "\"#FF7C00CC\""
param *.uav[*].label2Color "\"#FF7C00EE\""
param *.uav[*].batteryCapacity 5200mAh
param *.uav[*].batteryRemaining uav[index].batteryCapacity
param *.uav[*].predictionQuantile 0.95
param *.uav[*].replacementMethod 2
param *.uav[*].weightedSumWeight 0.5
param *.cs[*].modelURL "\"chargingstation_v1.osgt.2.scale.0,0,0.rot.0,0,-15e-1.trans\""
param *.cs[*].spotsWaiting 999
param *.cs[*].spotsCharging 999
param *.cs[*].chargeEffectivenessPercentage 100
param *.cs[*].nonLinearPhaseStartPercentage 85
param *.cs[*].chargeCurrent 6.0A
param *.cs[*].prioritizeFastCharge true
param *.missionControl.replacementSearchMethod 0
param *.*.timeStep 9s

scalar OsgEarthNet.uav[0] utilizationSecMission 420
scalar OsgEarthNet.uav[0] utilizationSecMaintenance 447.1303002674
scalar OsgEarthNet.uav[0] utilizationSecCharge 3510
scalar OsgEarthNet.uav[0] utilizationSecIdle 254822.86869973
scalar OsgEarthNet.uav[0] utilizationEnergyMission 1935.1641464233
scalar OsgEarthNet.uav[0] utilizationEnergyMaintenance 2198.34998703
scalar OsgEarthNet.uav[0] utilizationEnergyCharge 4469.2841796875
scalar OsgEarthNet.uav[0] utilizationEnergyOverdrawMission 0
scalar OsgEarthNet.uav[0] utilizationEnergyOverdrawMaintenance 0
scalar OsgEarthNet.uav[0] utilizationCountMissions 1
scalar OsgEarthNet.uav[0] utilizationCountManeuversMission 21
scalar OsgEarthNet.uav[0] utilizationCountManeuversMaintenance 2
scalar OsgEarthNet.uav[0] utilizationCountChargeState 1
scalar OsgEarthNet.uav[0] utilizationCountOverdrawnAfterMission 0
scalar OsgEarthNet.uav[0] utilizationCountIdleState 2
scalar OsgEarthNet.uav[0] utilizationFail 0
scalar OsgEarthNet.uav[0] simulationTime 259200
scalar OsgEarthNet.uav[1] utilizationSecMission 2159.2979296281
scalar OsgEarthNet.uav[1] utilizationSecMaintenance 1255.2524300798
scalar OsgEarthNet.uav[1] utilizationSecCharge 12840
scalar OsgEarthNet.uav[1] utilizationSecIdle 242945.44864029
scalar OsgEarthNet.uav[1] utilizationEnergyMission 10349.293678284
scalar OsgEarthNet.uav[1] utilizationEnergyMaintenance 5876.3027801514
scalar OsgEarthNet.uav[1] utilizationEnergyCharge 15958.271728516
scalar OsgEarthNet.uav[1] utilizationEnergyOverdrawMission 0
scalar OsgEarthNet.uav[1] utilizationEnergyOverdrawMaintenance 0
scalar OsgEarthNet.uav[1] utilizationCountMissions 4
scalar OsgEarthNet.uav[1] utilizationCountManeuversMission 56
scalar OsgEarthNet.uav[1] utilizationCountManeuversMaintenance 8
scalar OsgEarthNet.uav[1] utilizationCountChargeState 4
scalar OsgEarthNet.uav[1] utilizationCountOverdrawnAfterMission 0
scalar OsgEarthNet.uav[1] utilizationCountIdleState 5
scalar OsgEarthNet.uav[1] utilizationFail 0
scalar OsgEarthNet.uav[1] simulationTime 259200
scalar OsgEarthNet.uav[2] utilizationSecMission 41491.571019081
scalar OsgEarthNet.uav[2] utilizationSecMaintenance 16982.196419613
scalar OsgEarthNet.uav[2] utilizationSecCharge 196181.52080925
scalar OsgEarthNet.uav[2] utilizationSecIdle 4544.7107520526
scalar OsgEarthNet.uav[2] utilizationEnergyMission 199038.64725876
scalar OsgEarthNet.uav[2] utilizationEnergyMaintenance 79747.906967163
scalar OsgEarthNet.uav[2] utilizationEnergyCharge 278321.89355469
scalar OsgEarthNet.uav[2] utilizationEnergyOverdrawMission 0
scalar OsgEarthNet.uav[2] utilizationEnergyOverdrawMaintenance 0
scalar OsgEarthNet.uav[2] utilizationCountMissions 60
scalar OsgEarthNet.uav[2] utilizationCountManeuversMission 1110
scalar OsgEarthNet.uav[2] utilizationCountManeuversMaintenance 120
scalar OsgEarthNet.uav[2] utilizationCountChargeState 60
scalar OsgEarthNet.uav[2] utilizationCountOverdrawnAfterMission 0
scalar OsgEarthNet.uav[2] utilizationCountIdleState 10
scalar OsgEarthNet.uav[2] utilizationFail 0
scalar OsgEarthNet.uav[2] simulationTime 259200
scalar OsgEarthNet.uav[3] utilizationSecMission 760.62515258028
scalar OsgEarthNet.uav[3] utilizationSecMaintenance 202.91610409653
scalar OsgEarthNet.uav[3] utilizationSecCharge 3540
scalar OsgEarthNet.uav[3] utilizationSecIdle 254696.45774332
scalar OsgEarthNet.uav[3] utilizationEnergyMission 3620.7675323486
scalar OsgEarthNet.uav[3] utilizationEnergyMaintenance 946.48949432373
scalar OsgEarthNet.uav[3] utilizationEnergyCharge 4567.2548828125
scalar OsgEarthNet.uav[3] utilizationEnergyOverdrawMission 0
scalar OsgEarthNet.uav[3] utilizationEnergyOverdrawMaintenance 0
scalar OsgEarthNet.uav[3] utilizationCountMissions 1
scalar OsgEarthNet.uav[3] utilizationCountManeuversMission 12
scalar OsgEarthNet.uav[3] utilizationCountManeuversMaintenance 2
scalar OsgEarthNet.uav[3] utilizationCountChargeState 1
scalar OsgEarthNet.uav[3] utilizationCountOverdrawnAfterMission 0
scalar OsgEarthNet.uav[3] utilizationCountIdleState 2
scalar OsgEarthNet.uav[3] utilizationFail 0
scalar OsgEarthNet.uav[3] simulationTime 259200
scalar OsgEarthNet.uav[4] utilizationSecMission 16513.985064376
scalar OsgEarthNet.uav[4] utilizationSecMaintenance 11574.590094558
scalar OsgEarthNet.uav[4] utilizationSecCharge 107850
scalar OsgEarthNet.uav[4] utilizationSecIdle 123261.42384107
scalar OsgEarthNet.uav[4] utilizationEnergyMission 81483.46648407
scalar OsgEarthNet.uav[4] utilizationEnergyMaintenance 54811.852561951
scalar OsgEarthNet.uav[4] utilizationEnergyCharge 134996.89038086
scalar OsgEarthNet.uav[4] utilizationEnergyOverdrawMission 0
scalar OsgEarthNet.uav[4] utilizationEnergyOverdrawMaintenance 0
scalar OsgEarthNet.uav[4] utilizationCountMissions 33
scalar OsgEarthNet.uav[4] utilizationCountManeuversMission 584
scalar OsgEarthNet.uav[4] utilizationCountManeuversMaintenance 66
scalar OsgEarthNet.uav[4] utilizationCountChargeState 33
scalar OsgEarthNet.uav[4] utilizationCountOverdrawnAfterMission 0
scalar OsgEarthNet.uav[4] utilizationCountIdleState 34
scalar OsgEarthNet.uav[4] utilizationFail 0
scalar OsgEarthNet.uav[4] simulationTime 259200
scalar OsgEarthNet.uav[5] utilizationSecMission 41242.638772588
scalar OsgEarthNet.uav[5] utilizationSecMaintenance 17151.074656125
scalar OsgEarthNet.uav[5] utilizationSecCharge 196884.27857129
scalar OsgEarthNet.uav[5] utilizationSecIdle 3922.007
scalar OsgEarthNet.uav[5] utilizationEnergyMission 200135.74108505
scalar OsgEarthNet.uav[5] utilizationEnergyMaintenance 79321.10326767
scalar OsgEarthNet.uav[5] utilizationEnergyCharge 276879.74609375
scalar OsgEarthNet.uav[5] utilizationEnergyOverdrawMission 0
scalar OsgEarthNet.uav[5] utilizationEnergyOverdrawMaintenance 0
scalar OsgEarthNet.uav[5] utilizationCountMissions 60
scalar OsgEarthNet.uav[5] utilizationCountManeuversMission 1193
scalar OsgEarthNet.uav[5] utilizationCountManeuversMaintenance 120
scalar OsgEarthNet.uav[5] utilizationCountChargeState 60
scalar OsgEarthNet.uav[5] utilizationCountOverdrawnAfterMission 0
scalar OsgEarthNet.uav[5] utilizationCountIdleState 6
scalar OsgEarthNet.uav[5] utilizationFail 0
scalar OsgEarthNet.uav[5] simulationTime 259200
scalar OsgEarthNet.uav[6] utilizationSecMission 2640.6251525803
scalar OsgEarthNet.uav[6] utilizationSecMaintenance 1996.6078820808
scalar OsgEarthNet.uav[6] utilizationSecCharge 17610
scalar OsgEarthNet.uav[6] utilizationSecIdle 236952.76596534
scalar OsgEarthNet.uav[6] utilizationEnergyMission 13623.281036377
scalar OsgEarthNet.uav[6] utilizationEnergyMaintenance 9583.6147328312
scalar OsgEarthNet.uav[6] utilizationEnergyCharge 22829.195800781
scalar OsgEarthNet.uav[6] utilizationEnergyOverdrawMission 0
scalar OsgEarthNet.uav[6] utilizationEnergyOverdrawMaintenance 0
scalar OsgEarthNet.uav[6] utilizationCountMissions 5
scalar OsgEarthNet.uav[6] utilizationCountManeuversMission 106
scalar OsgEarthNet.uav[6] utilizationCountManeuversMaintenance 11
scalar OsgEarthNet.uav[6] utilizationCountChargeState 5
scalar OsgEarthNet.uav[6] utilizationCountOverdrawnAfterMission 0
scalar OsgEarthNet.uav[6] utilizationCountIdleState 6
scalar OsgEarthNet.uav[6] utilizationFail 0
scalar OsgEarthNet.uav[6] simulationTime 259200
scalar OsgEarthNet.uav[7] utilizationSecMission 9794.0370871462
scalar OsgEarthNet.uav[7] utilizationSecMaintenance 5872.471417446
scalar OsgEarthNet.uav[7] utilizationSecCharge 59260
scalar OsgEarthNet.uav[7] utilizationSecIdle 184273.49049541
scalar OsgEarthNet.uav[7] utilizationEnergyMission 47561.486183166
scalar OsgEarthNet.uav[7] utilizationEnergyMaintenance 28160.510826111
scalar OsgEarthNet.uav[7] utilizationEnergyCharge 76201.527587891
scalar OsgEarthNet.uav[7] utilizationEnergyOverdrawMission 0
scalar OsgEarthNet.uav[7] utilizationEnergyOverdrawMaintenance 0
scalar OsgEarthNet.uav[7] utilizationCountMissions 17
scalar OsgEarthNet.uav[7] utilizationCountManeuversMission 327
scalar OsgEarthNet.uav[7] utilizationCountManeuversMaintenance 34
scalar OsgEarthNet.uav[7] utilizationCountChargeState 17
scalar OsgEarthNet.uav[7] utilizationCountOverdrawnAfterMission 0
scalar OsgEarthNet.uav[7] utilizationCountIdleState 18
scalar OsgEarthNet.uav[7] utilizationFail 0
scalar OsgEarthNet.uav[7] simulationTime 259200
scalar OsgEarthNet.uav[8] utilizationSecMission 41685.291909578
scalar OsgEarthNet.uav[8] utilizationSecMaintenance 17376.414434153
scalar OsgEarthNet.uav[8] utilizationSecCharge 196466.28665627
scalar OsgEarthNet.uav[8] utilizationSecIdle 3672.006
scalar OsgEarthNet.uav[8] utilizationEnergyMission 200730.24620438
scalar OsgEarthNet.uav[8] utilizationEnergyMaintenance 79273.355236054
scalar OsgEarthNet.uav[8] utilizationEnergyCharge 277578.52539062
scalar OsgEarthNet.uav[8] utilizationEnergyOverdrawMission 0
scalar OsgEarthNet.uav[8] utilizationEnergyOverdrawMaintenance 0
scalar OsgEarthNet.uav[8] utilizationCountMissions 61
scalar OsgEarthNet.uav[8] utilizationCountManeuversMission 1167
scalar OsgEarthNet.uav[8] utilizationCountManeuversMaintenance 122
scalar OsgEarthNet.uav[8] utilizationCountChargeState 61
scalar OsgEarthNet.uav[8] utilizationCountOverdrawnAfterMission 0
scalar OsgEarthNet.uav[8] utilizationCountIdleState 11
scalar OsgEarthNet.uav[8] utilizationFail 0
scalar OsgEarthNet.uav[8] simulationTime 259200
scalar OsgEarthNet.uav[9] utilizationSecMission 42321.483584818
scalar OsgEarthNet.uav[9] utilizationSecMaintenance 17125.053604276
scalar OsgEarthNet.uav[9] utilizationSecCharge 199111.46181091
scalar OsgEarthNet.uav[9] utilizationSecIdle 642
scalar OsgEarthNet.uav[9] utilizationEnergyMission 202434.23945618
scalar OsgEarthNet.uav[9] utilizationEnergyMaintenance 77991.236476898
scalar OsgEarthNet.uav[9] utilizationEnergyCharge 280409.01171875
scalar OsgEarthNet.uav[9] utilizationEnergyOverdrawMission 0
scalar OsgEarthNet.uav[9] utilizationEnergyOverdrawMaintenance 0
scalar OsgEarthNet.uav[9] utilizationCountMissions 61
scalar OsgEarthNet.uav[9] utilizationCountManeuversMission 1127
scalar OsgEarthNet.uav[9] utilizationCountManeuversMaintenance 121
scalar OsgEarthNet.uav[9] utilizationCountChargeState 61
scalar OsgEarthNet.uav[9] utilizationCountOverdrawnAfterMission 0
scalar OsgEarthNet.uav[9] utilizationCountIdleState 12
scalar OsgEarthNet.uav[9] utilizationFail 0
scalar OsgEarthNet.uav[9] simulationTime 259200
scalar OsgEarthNet.uav[10] utilizationSecMission 3823.0886476705
scalar OsgEarthNet.uav[10] utilizationSecMaintenance 2164.9063523295
scalar OsgEarthNet.uav[10] utilizationSecCharge 21260
scalar OsgEarthNet.uav[10] utilizationSecIdle 231952.004
scalar OsgEarthNet.uav[10] utilizationEnergyMission 18531.696992605
scalar OsgEarthNet.uav[10] utilizationEnergyMaintenance 10476.292701721
scalar OsgEarthNet.uav[10] utilizationEnergyCharge 27605.069335938
scalar OsgEarthNet.uav[10] utilizationEnergyOverdrawMission 0
scalar OsgEarthNet.uav[10] utilizationEnergyOverdrawMaintenance 0
scalar OsgEarthNet.uav[10] utilizationCountMissions 6
scalar OsgEarthNet.uav[10] utilizationCountManeuversMission 107
scalar OsgEarthNet.uav[10] utilizationCountManeuversMaintenance 13
scalar OsgEarthNet.uav[10] utilizationCountChargeState 6
scalar OsgEarthNet.uav[10] utilizationCountOverdrawnAfterMission 0
scalar OsgEarthNet.uav[10] utilizationCountIdleState 7
scalar OsgEarthNet.uav[10] utilizationFail 0
scalar OsgEarthNet.uav[10] simulationTime 259200
scalar OsgEarthNet.uav[11] utilizationSecMission 14010.593985133
scalar OsgEarthNet.uav[11] utilizationSecMaintenance 9269.0245561661
scalar OsgEarthNet.uav[11] utilizationSecCharge 86458.378951978
scalar OsgEarthNet.uav[11] utilizationSecIdle 149462.00150672
scalar OsgEarthNet.uav[11] utilizationEnergyMission 68285.483371735
scalar OsgEarthNet.uav[11] utilizationEnergyMaintenance 44057.899032593
scalar OsgEarthNet.uav[11] utilizationEnergyCharge 108974.8104248
scalar OsgEarthNet.uav[11] utilizationEnergyOverdrawMission 0
scalar OsgEarthNet.uav[11] utilizationEnergyOverdrawMaintenance 0
scalar OsgEarthNet.uav[11] utilizationCountMissions 27
scalar OsgEarthNet.uav[11] utilizationCountManeuversMission 485
scalar OsgEarthNet.uav[11] utilizationCountManeuversMaintenance 54
scalar OsgEarthNet.uav[11] utilizationCountChargeState 27
scalar OsgEarthNet.uav[11] utilizationCountOverdrawnAfterMission 0
scalar OsgEarthNet.uav[11] utilizationCountIdleState 27
scalar OsgEarthNet.uav[11] utilizationFail 0
scalar OsgEarthNet.uav[11] simulationTime 259200
scalar OsgEarthNet.uav[12] utilizationSecMission 42260.598498227
scalar OsgEarthNet.uav[12] utilizationSecMaintenance 16552.884958994
scalar OsgEarthNet.uav[12] utilizationSecCharge 199054.51554278
scalar OsgEarthNet.uav[12] utilizationSecIdle 1332
scalar OsgEarthNet.uav[12] utilizationEnergyMission 203271.37301254
scalar OsgEarthNet.uav[12] utilizationEnergyMaintenance 76968.030258179
scalar OsgEarthNet.uav[12] utilizationEnergyCharge 279068.38916016
scalar OsgEarthNet.uav[12] utilizationEnergyOverdrawMission 0
scalar OsgEarthNet.uav[12] utilizationEnergyOverdrawMaintenance 0
scalar OsgEarthNet.uav[12] utilizationCountMissions 60
scalar OsgEarthNet.uav[12] utilizationCountManeuversMission 1181
scalar OsgEarthNet.uav[12] utilizationCountManeuversMaintenance 120
scalar OsgEarthNet.uav[12] utilizationCountChargeState 60
scalar OsgEarthNet.uav[12] utilizationCountOverdrawnAfterMission 0
scalar OsgEarthNet.uav[12] utilizationCountIdleState 14
scalar OsgEarthNet.uav[12] utilizationFail 0
scalar OsgEarthNet.uav[12] simulationTime 259200
scalar OsgEarthNet.uav[13] utilizationSecMission 860
scalar OsgEarthNet.uav[13] utilizationSecMaintenance 894.56202711707
scalar OsgEarthNet.uav[13] utilizationSecCharge 7240
scalar OsgEarthNet.uav[13] utilizationSecIdle 250205.43697288
scalar OsgEarthNet.uav[13] utilizationEnergyMission 4775.431930542
scalar OsgEarthNet.uav[13] utilizationEnergyMaintenance 4325.0584945679
scalar OsgEarthNet.uav[13] utilizationEnergyCharge 9374.7475585938
scalar OsgEarthNet.uav[13] utilizationEnergyOverdrawMission 0
scalar OsgEarthNet.uav[13] utilizationEnergyOverdrawMaintenance 0
scalar OsgEarthNet.uav[13] utilizationCountMissions 2
scalar OsgEarthNet.uav[13] utilizationCountManeuversMission 43
scalar OsgEarthNet.uav[13] utilizationCountManeuversMaintenance 4
scalar OsgEarthNet.uav[13] utilizationCountChargeState 2
scalar OsgEarthNet.uav[13] utilizationCountOverdrawnAfterMission 0
scalar OsgEarthNet.uav[13] utilizationCountIdleState 3
scalar OsgEarthNet.uav[13] utilizationFail 0
scalar OsgEarthNet.uav[13] simulationTime 259200
scalar OsgEarthNet.uav[14] utilizationSecMission 9901.9572904854
scalar OsgEarthNet.uav[14] utilizationSecMaintenance 7273.6048204153
scalar OsgEarthNet.uav[14] utilizationSecCharge 67820
scalar OsgEarthNet.uav[14] utilizationSecIdle 174204.4368891
scalar OsgEarthNet.uav[14] utilizationEnergyMission 47363.733348846
scalar OsgEarthNet.uav[14] utilizationEnergyMaintenance 34795.144001007
scalar OsgEarthNet.uav[14] utilizationEnergyCharge 82808.482177734
scalar OsgEarthNet.uav[14] utilizationEnergyOverdrawMission 0
scalar OsgEarthNet.uav[14] utilizationEnergyOverdrawMaintenance 0
scalar OsgEarthNet.uav[14] utilizationCountMissions 22
scalar OsgEarthNet.uav[14] utilizationCountManeuversMission 323
scalar OsgEarthNet.uav[14] utilizationCountManeuversMaintenance 44
scalar OsgEarthNet.uav[14] utilizationCountChargeState 22
scalar OsgEarthNet.uav[14] utilizationCountOverdrawnAfterMission 0
scalar OsgEarthNet.uav[14] utilizationCountIdleState 23
scalar OsgEarthNet.uav[14] utilizationFail 0
scalar OsgEarthNet.uav[14] simulationTime 259200
scalar OsgEarthNet.uav[15] utilizationSecMission 40237.053147511
scalar OsgEarthNet.uav[15] utilizationSecMaintenance 18885.37914261
scalar OsgEarthNet.uav[15] utilizationSecCharge 198180.11644585
scalar OsgEarthNet.uav[15] utilizationSecIdle 1897.4502640309
scalar OsgEarthNet.uav[15] utilizationEnergyMission 194992.92873764
scalar OsgEarthNet.uav[15] utilizationEnergyMaintenance 87445.91350174
scalar OsgEarthNet.uav[15] utilizationEnergyCharge 281788.21826172
scalar OsgEarthNet.uav[15] utilizationEnergyOverdrawMission 0
scalar OsgEarthNet.uav[15] utilizationEnergyOverdrawMaintenance 0
scalar OsgEarthNet.uav[15] utilizationCountMissions 62
scalar OsgEarthNet.uav[15] utilizationCountManeuversMission 1313
scalar OsgEarthNet.uav[15] utilizationCountManeuversMaintenance 124
scalar OsgEarthNet.uav[15] utilizationCountChargeState 62
scalar OsgEarthNet.uav[15] utilizationCountOverdrawnAfterMission 0
scalar OsgEarthNet.uav[15] utilizationCountIdleState 9
scalar OsgEarthNet.uav[15] utilizationFail 0
scalar OsgEarthNet.uav[15] simulationTime 259200
scalar OsgEarthNet.uav[16] utilizationSecMission 5552.8677241509
scalar OsgEarthNet.uav[16] utilizationSecMaintenance 2973.2144957366
scalar OsgEarthNet.uav[16] utilizationSecCharge 31850
scalar OsgEarthNet.uav[16] utilizationSecIdle 218823.91678011
scalar OsgEarthNet.uav[16] utilizationEnergyMission 26637.721961975
scalar OsgEarthNet.uav[16] utilizationEnergyMaintenance 14231.054161072
scalar OsgEarthNet.uav[16] utilizationEnergyCharge 41044.003417969
scalar OsgEarthNet.uav[16] utilizationEnergyOverdrawMission 0
scalar OsgEarthNet.uav[16] utilizationEnergyOverdrawMaintenance 0
scalar OsgEarthNet.uav[16] utilizationCountMissions 9
scalar OsgEarthNet.uav[16] utilizationCountManeuversMission 152
scalar OsgEarthNet.uav[16] utilizationCountManeuversMaintenance 18
scalar OsgEarthNet.uav[16] utilizationCountChargeState 9
scalar OsgEarthNet.uav[16] utilizationCountOverdrawnAfterMission 0
scalar OsgEarthNet.uav[16] utilizationCountIdleState 10
scalar OsgEarthNet.uav[16] utilizationFail 0
scalar OsgEarthNet.uav[16] simulationTime 259200
scalar OsgEarthNet.uav[17] utilizationSecMission 9408.5550238645
scalar OsgEarthNet.uav[17] utilizationSecMaintenance 6595.1285482674
scalar OsgEarthNet.uav[17] utilizationSecCharge 60847.961824989
scalar OsgEarthNet.uav[17] utilizationSecIdle 182348.35360288
scalar OsgEarthNet.uav[17] utilizationEnergyMission 45221.363109589
scalar OsgEarthNet.uav[17] utilizationEnergyMaintenance 30965.116085052
scalar OsgEarthNet.uav[17] utilizationEnergyCharge 75514.963867188
scalar OsgEarthNet.uav[17] utilizationEnergyOverdrawMission 0
scalar OsgEarthNet.uav[17] utilizationEnergyOverdrawMaintenance 0
scalar OsgEarthNet.uav[17] utilizationCountMissions 20
scalar OsgEarthNet.uav[17] utilizationCountManeuversMission 306
scalar OsgEarthNet.uav[17] utilizationCountManeuversMaintenance 40
scalar OsgEarthNet.uav[17] utilizationCountChargeState 20
scalar OsgEarthNet.uav[17] utilizationCountOverdrawnAfterMission 0
scalar OsgEarthNet.uav[17] utilizationCountIdleState 20
scalar OsgEarthNet.uav[17] utilizationFail 0
scalar OsgEarthNet.uav[17] simulationTime 259200
scalar OsgEarthNet.uav[18] utilizationSecMission 41237.792863471
scalar OsgEarthNet.uav[18] utilizationSecMaintenance 18200.230205661
scalar OsgEarthNet.uav[18] utilizationSecCharge 197009.97293087
scalar OsgEarthNet.uav[18] utilizationSecIdle 2752.003
scalar OsgEarthNet.uav[18] utilizationEnergyMission 195706.76779175
scalar OsgEarthNet.uav[18] utilizationEnergyMaintenance 84710.223838806
scalar OsgEarthNet.uav[18] utilizationEnergyCharge 281199.24212646
scalar OsgEarthNet.uav[18] utilizationEnergyOverdrawMission 0
scalar OsgEarthNet.uav[18] utilizationEnergyOverdrawMaintenance 0
scalar OsgEarthNet.uav[18] utilizationCountMissions 62
scalar OsgEarthNet.uav[18] utilizationCountManeuversMission 1286
scalar OsgEarthNet.uav[18] utilizationCountManeuversMaintenance 124
scalar OsgEarthNet.uav[18] utilizationCountChargeState 62
scalar OsgEarthNet.uav[18] utilizationCountOverdrawnAfterMission 0
scalar OsgEarthNet.uav[18] utilizationCountIdleState 8
scalar OsgEarthNet.uav[18] utilizationFail 0
scalar OsgEarthNet.uav[18] simulationTime 259200
scalar OsgEarthNet.uav[19] utilizationSecMission 3502.5006103211
scalar OsgEarthNet.uav[19] utilizationSecMaintenance 1307.242462782
scalar OsgEarthNet.uav[19] utilizationSecCharge 17530
scalar OsgEarthNet.uav[19] utilizationSecIdle 236860.2559269
scalar OsgEarthNet.uav[19] utilizationEnergyMission 16430.765632629
scalar OsgEarthNet.uav[19] utilizationEnergyMaintenance 6283.90807724
scalar OsgEarthNet.uav[19] utilizationEnergyCharge 22499.467773438
scalar OsgEarthNet.uav[19] utilizationEnergyOverdrawMission 0
scalar OsgEarthNet.uav[19] utilizationEnergyOverdrawMaintenance 0
scalar OsgEarthNet.uav[19] utilizationCountMissions 5
scalar OsgEarthNet.uav[19] utilizationCountManeuversMission 71
scalar OsgEarthNet.uav[19] utilizationCountManeuversMaintenance 10
scalar OsgEarthNet.uav[19] utilizationCountChargeState 5
scalar OsgEarthNet.uav[19] utilizationCountOverdrawnAfterMission 0
scalar OsgEarthNet.uav[19] utilizationCountIdleState 6
scalar OsgEarthNet.uav[19] utilizationFail 0
scalar OsgEarthNet.uav[19] simulationTime 259200
scalar OsgEarthNet.uav[20] utilizationSecMission 7001.2503051606
scalar OsgEarthNet.uav[20] utilizationSecMaintenance 5852.650358398
scalar OsgEarthNet.uav[20] utilizationSecCharge 49560
scalar OsgEarthNet.uav[20] utilizationSecIdle 196786.09833644
scalar OsgEarthNet.uav[20] utilizationEnergyMission 36366.754127502
scalar OsgEarthNet.uav[20] utilizationEnergyMaintenance 27450.477466583
scalar OsgEarthNet.uav[20] utilizationEnergyCharge 63992.248046875
scalar OsgEarthNet.uav[20] utilizationEnergyOverdrawMission 0
scalar OsgEarthNet.uav[20] utilizationEnergyOverdrawMaintenance 0
scalar OsgEarthNet.uav[20] utilizationCountMissions 14
scalar OsgEarthNet.uav[20] utilizationCountManeuversMission 298
scalar OsgEarthNet.uav[20] utilizationCountManeuversMaintenance 28
scalar OsgEarthNet.uav[20] utilizationCountChargeState 14
scalar OsgEarthNet.uav[20] utilizationCountOverdrawnAfterMission 0
scalar OsgEarthNet.uav[20] utilizationCountIdleState 15
scalar OsgEarthNet.uav[20] utilizationFail 0
scalar OsgEarthNet.uav[20] simulationTime 259200
scalar OsgEarthNet.uav[21] utilizationSecMission 11185.607192361
scalar OsgEarthNet.uav[21] utilizationSecMaintenance 8274.1383057101
scalar OsgEarthNet.uav[21] utilizationSecCharge 74638.247501929
scalar OsgEarthNet.uav[21] utilizationSecIdle 165102.006
scalar OsgEarthNet.uav[21] utilizationEnergyMission 54199.735652924
scalar OsgEarthNet.uav[21] utilizationEnergyMaintenance 39145.342895508
scalar OsgEarthNet.uav[21] utilizationEnergyCharge 93294.681884766
scalar OsgEarthNet.uav[21] utilizationEnergyOverdrawMission 0
scalar OsgEarthNet.uav[21] utilizationEnergyOverdrawMaintenance 0
scalar OsgEarthNet.uav[21] utilizationCountMissions 24
scalar OsgEarthNet.uav[21] utilizationCountManeuversMission 417
scalar OsgEarthNet.uav[21] utilizationCountManeuversMaintenance 48
scalar OsgEarthNet.uav[21] utilizationCountChargeState 24
scalar OsgEarthNet.uav[21] utilizationCountOverdrawnAfterMission 0
scalar OsgEarthNet.uav[21] utilizationCountIdleState 24
scalar OsgEarthNet.uav[21] utilizationFail 0
scalar OsgEarthNet.uav[21] simulationTime 259200
scalar OsgEarthNet.uav[22] utilizationSecMission 42362.161024308
scalar OsgEarthNet.uav[22] utilizationSecMaintenance 16880.700514146
scalar OsgEarthNet.uav[22] utilizationSecCharge 196004.79236051
scalar OsgEarthNet.uav[22] utilizationSecIdle 3952.3451010344
scalar OsgEarthNet.uav[22] utilizationEnergyMission 203292.42258835
scalar OsgEarthNet.uav[22] utilizationEnergyMaintenance 78074.873287201
scalar OsgEarthNet.uav[22] utilizationEnergyCharge 279391.45727539
scalar OsgEarthNet.uav[22] utilizationEnergyOverdrawMission 0
scalar OsgEarthNet.uav[22] utilizationEnergyOverdrawMaintenance 0
scalar OsgEarthNet.uav[22] utilizationCountMissions 61
scalar OsgEarthNet.uav[22] utilizationCountManeuversMission 1241
scalar OsgEarthNet.uav[22] utilizationCountManeuversMaintenance 122
scalar OsgEarthNet.uav[22] utilizationCountChargeState 61
scalar OsgEarthNet.uav[22] utilizationCountOverdrawnAfterMission 0
scalar OsgEarthNet.uav[22] utilizationCountIdleState 11
scalar OsgEarthNet.uav[22] utilizationFail 0
scalar OsgEarthNet.uav[22] simulationTime 259200
scalar OsgEarthNet.uav[23] utilizationSecMission 10592.758649072
scalar OsgEarthNet.uav[23] utilizationSecMaintenance 8160.3610097072
scalar OsgEarthNet.uav[23] utilizationSecCharge 70380
scalar OsgEarthNet.uav[23] utilizationSecIdle 170066.87934122
scalar OsgEarthNet.uav[23] utilizationEnergyMission 53108.877574921
scalar OsgEarthNet.uav[23] utilizationEnergyMaintenance 38728.823867798
scalar OsgEarthNet.uav[23] utilizationEnergyCharge 90601.6484375
scalar OsgEarthNet.uav[23] utilizationEnergyOverdrawMission 0
scalar OsgEarthNet.uav[23] utilizationEnergyOverdrawMaintenance 0
scalar OsgEarthNet.uav[23] utilizationCountMissions 20
scalar OsgEarthNet.uav[23] utilizationCountManeuversMission 421
scalar OsgEarthNet.uav[23] utilizationCountManeuversMaintenance 40
scalar OsgEarthNet.uav[23] utilizationCountChargeState 20
scalar OsgEarthNet.uav[23] utilizationCountOverdrawnAfterMission 0
scalar OsgEarthNet.uav[23] utilizationCountIdleState 21
scalar OsgEarthNet.uav[23] utilizationFail 0
scalar OsgEarthNet.uav[23] simulationTime 259200
scalar OsgEarthNet.uav[24] utilizationSecMission 11531.709655231
scalar OsgEarthNet.uav[24] utilizationSecMaintenance 8522.6200781534
scalar OsgEarthNet.uav[24] utilizationSecCharge 79890
scalar OsgEarthNet.uav[24] utilizationSecIdle 159255.66926662
scalar OsgEarthNet.uav[24] utilizationEnergyMission 56298.851753235
scalar OsgEarthNet.uav[24] utilizationEnergyMaintenance 40462.092777252
scalar OsgEarthNet.uav[24] utilizationEnergyCharge 97358.066650391
scalar OsgEarthNet.uav[24] utilizationEnergyOverdrawMission 0
scalar OsgEarthNet.uav[24] utilizationEnergyOverdrawMaintenance 0
scalar OsgEarthNet.uav[24] utilizationCountMissions 26
scalar OsgEarthNet.uav[24] utilizationCountManeuversMission 367
scalar OsgEarthNet.uav[24] utilizationCountManeuversMaintenance 52
scalar OsgEarthNet.uav[24] utilizationCountChargeState 26
scalar OsgEarthNet.uav[24] utilizationCountOverdrawnAfterMission 0
scalar OsgEarthNet.uav[24] utilizationCountIdleState 27
scalar OsgEarthNet.uav[24] utilizationFail 0
scalar OsgEarthNet.uav[24] simulationTime 259200
scalar OsgEarthNet.uav[25] utilizationSecMission 41646.725824169
scalar OsgEarthNet.uav[25] utilizationSecMaintenance 17542.415854011
scalar OsgEarthNet.uav[25] utilizationSecCharge 195420.14926459
scalar OsgEarthNet.uav[25] utilizationSecIdle 4590.7080572282
scalar OsgEarthNet.uav[25] utilizationEnergyMission 200380.04182816
scalar OsgEarthNet.uav[25] utilizationEnergyMaintenance 80393.663707733
scalar OsgEarthNet.uav[25] utilizationEnergyCharge 276598.52099609
scalar OsgEarthNet.uav[25] utilizationEnergyOverdrawMission 0
scalar OsgEarthNet.uav[25] utilizationEnergyOverdrawMaintenance 0
scalar OsgEarthNet.uav[25] utilizationCountMissions 61
scalar OsgEarthNet.uav[25] utilizationCountManeuversMission 1239
scalar OsgEarthNet.uav[25] utilizationCountManeuversMaintenance 122
scalar OsgEarthNet.uav[25] utilizationCountChargeState 61
scalar OsgEarthNet.uav[25] utilizationCountOverdrawnAfterMission 0
scalar OsgEarthNet.uav[25] utilizationCountIdleState 15
scalar OsgEarthNet.uav[25] utilizationFail 0
scalar OsgEarthNet.uav[25] simulationTime 259200
scalar OsgEarthNet.uav[26] utilizationSecMission 7282.7432164853
scalar OsgEarthNet.uav[26] utilizationSecMaintenance 4525.2507835147
scalar OsgEarthNet.uav[26] utilizationSecCharge 42280
scalar OsgEarthNet.uav[26] utilizationSecIdle 205112.005
scalar OsgEarthNet.uav[26] utilizationEnergyMission 34280.223069815
scalar OsgEarthNet.uav[26] utilizationEnergyMaintenance 21650.202896118
scalar OsgEarthNet.uav[26] utilizationEnergyCharge 54700.748535156
scalar OsgEarthNet.uav[26] utilizationEnergyOverdrawMission 0
scalar OsgEarthNet.uav[26] utilizationEnergyOverdrawMaintenance 0
scalar OsgEarthNet.uav[26] utilizationCountMissions 12
scalar OsgEarthNet.uav[26] utilizationCountManeuversMission 234
scalar OsgEarthNet.uav[26] utilizationCountManeuversMaintenance 25
scalar OsgEarthNet.uav[26] utilizationCountChargeState 12
scalar OsgEarthNet.uav[26] utilizationCountOverdrawnAfterMission 0
scalar OsgEarthNet.uav[26] utilizationCountIdleState 13
scalar OsgEarthNet.uav[26] utilizationFail 0
scalar OsgEarthNet.uav[26] simulationTime 259200
scalar OsgEarthNet.uav[27] utilizationSecMission 19206.225951863
scalar OsgEarthNet.uav[27] utilizationSecMaintenance 12591.49039522
scalar OsgEarthNet.uav[27] utilizationSecCharge 121990
scalar OsgEarthNet.uav[27] utilizationSecIdle 105412.28265292
scalar OsgEarthNet.uav[27] utilizationEnergyMission 93868.482711792
scalar OsgEarthNet.uav[27] utilizationEnergyMaintenance 59610.044734955
scalar OsgEarthNet.uav[27] utilizationEnergyCharge 153446.48803711
scalar OsgEarthNet.uav[27] utilizationEnergyOverdrawMission 0
scalar OsgEarthNet.uav[27] utilizationEnergyOverdrawMaintenance 0
scalar OsgEarthNet.uav[27] utilizationCountMissions 37
scalar OsgEarthNet.uav[27] utilizationCountManeuversMission 660
scalar OsgEarthNet.uav[27] utilizationCountManeuversMaintenance 73
scalar OsgEarthNet.uav[27] utilizationCountChargeState 37
scalar OsgEarthNet.uav[27] utilizationCountOverdrawnAfterMission 0
scalar OsgEarthNet.uav[27] utilizationCountIdleState 38
scalar OsgEarthNet.uav[27] utilizationFail 0
scalar OsgEarthNet.uav[27] simulationTime 259200
scalar OsgEarthNet.uav[28] utilizationSecMission 41469.592430395
scalar OsgEarthNet.uav[28] utilizationSecMaintenance 17765.779015422
scalar OsgEarthNet.uav[28] utilizationSecCharge 196452.62355418
scalar OsgEarthNet.uav[28] utilizationSecIdle 3512.004
scalar OsgEarthNet.uav[28] utilizationEnergyMission 199867.00007629
scalar OsgEarthNet.uav[28] utilizationEnergyMaintenance 81133.098079681
scalar OsgEarthNet.uav[28] utilizationEnergyCharge 279510.55517578
scalar OsgEarthNet.uav[28] utilizationEnergyOverdrawMission 0
scalar OsgEarthNet.uav[28] utilizationEnergyOverdrawMaintenance 0
scalar OsgEarthNet.uav[28] utilizationCountMissions 61
scalar OsgEarthNet.uav[28] utilizationCountManeuversMission 1203
scalar OsgEarthNet.uav[28] utilizationCountManeuversMaintenance 122
scalar OsgEarthNet.uav[28] utilizationCountChargeState 61
scalar OsgEarthNet.uav[28] utilizationCountOverdrawnAfterMission 0
scalar OsgEarthNet.uav[28] utilizationCountIdleState 10
scalar OsgEarthNet.uav[28] utilizationFail 0
scalar OsgEarthNet.uav[28] simulationTime 259200
scalar OsgEarthNet.uav[29] utilizationSecMission 9664.376068062
scalar OsgEarthNet.uav[29] utilizationSecMaintenance 5640.9895519265
scalar OsgEarthNet.uav[29] utilizationSecCharge 56190
scalar OsgEarthNet.uav[29] utilizationSecIdle 187704.63338001
scalar OsgEarthNet.uav[29] utilizationEnergyMission 47370.573852539
scalar OsgEarthNet.uav[29] utilizationEnergyMaintenance 26702.06451416
scalar OsgEarthNet.uav[29] utilizationEnergyCharge 72251.329589844
scalar OsgEarthNet.uav[29] utilizationEnergyOverdrawMission 0
scalar OsgEarthNet.uav[29] utilizationEnergyOverdrawMaintenance 0
scalar OsgEarthNet.uav[29] utilizationCountMissions 16
scalar OsgEarthNet.uav[29] utilizationCountManeuversMission 301
scalar OsgEarthNet.uav[29] utilizationCountManeuversMaintenance 32
scalar OsgEarthNet.uav[29] utilizationCountChargeState 16
scalar OsgEarthNet.uav[29] utilizationCountOverdrawnAfterMission 0
scalar OsgEarthNet.uav[29] utilizationCountIdleState 17
scalar OsgEarthNet.uav[29] utilizationFail 0
scalar OsgEarthNet.uav[29] simulationTime 259200
scalar OsgEarthNet.uav[30] utilizationSecMission 7863.7509154817
scalar OsgEarthNet.uav[30] utilizationSecMaintenance 4475.6038866642
scalar OsgEarthNet.uav[30] utilizationSecCharge 45890
scalar OsgEarthNet.uav[30] utilizationSecIdle 200970.64419785
scalar OsgEarthNet.uav[30] utilizationEnergyMission 37739.552566528
scalar OsgEarthNet.uav[30] utilizationEnergyMaintenance 21443.774024963
scalar OsgEarthNet.uav[30] utilizationEnergyCharge 59178.78125
scalar OsgEarthNet.uav[30] utilizationEnergyOverdrawMission 0
scalar OsgEarthNet.uav[30] utilizationEnergyOverdrawMaintenance 0
scalar OsgEarthNet.uav[30] utilizationCountMissions 13
scalar OsgEarthNet.uav[30] utilizationCountManeuversMission 237
scalar OsgEarthNet.uav[30] utilizationCountManeuversMaintenance 26
scalar OsgEarthNet.uav[30] utilizationCountChargeState 13
scalar OsgEarthNet.uav[30] utilizationCountOverdrawnAfterMission 0
scalar OsgEarthNet.uav[30] utilizationCountIdleState 14
scalar OsgEarthNet.uav[30] utilizationFail 0
scalar OsgEarthNet.uav[30] simulationTime 259200
scalar OsgEarthNet.uav[31] utilizationSecMission 18689.891914762
scalar OsgEarthNet.uav[31] utilizationSecMaintenance 12492.285220258
scalar OsgEarthNet.uav[31] utilizationSecCharge 119940
scalar OsgEarthNet.uav[31] utilizationSecIdle 108077.82186498
scalar OsgEarthNet.uav[31] utilizationEnergyMission 94417.867191315
scalar OsgEarthNet.uav[31] utilizationEnergyMaintenance 58578.687637329
scalar OsgEarthNet.uav[31] utilizationEnergyCharge 151395.93945312
scalar OsgEarthNet.uav[31] utilizationEnergyOverdrawMission 0
scalar OsgEarthNet.uav[31] utilizationEnergyOverdrawMaintenance 0
scalar OsgEarthNet.uav[31] utilizationCountMissions 36
scalar OsgEarthNet.uav[31] utilizationCountManeuversMission 667
scalar OsgEarthNet.uav[31] utilizationCountManeuversMaintenance 72
scalar OsgEarthNet.uav[31] utilizationCountChargeState 36
scalar OsgEarthNet.uav[31] utilizationCountOverdrawnAfterMission 0
scalar OsgEarthNet.uav[31] utilizationCountIdleState 37
scalar OsgEarthNet.uav[31] utilizationFail 0
scalar OsgEarthNet.uav[31] simulationTime 259200
scalar OsgEarthNet.uav[32] utilizationSecMission 40807.405086433
scalar OsgEarthNet.uav[32] utilizationSecMaintenance 18406.603711319
scalar OsgEarthNet.uav[32] utilizationSecCharge 196393.98520225
scalar OsgEarthNet.uav[32] utilizationSecIdle 3592.005
scalar OsgEarthNet.uav[32] utilizationEnergyMission 198266.75301361
scalar OsgEarthNet.uav[32] utilizationEnergyMaintenance 83889.530174255
scalar OsgEarthNet.uav[32] utilizationEnergyCharge 279951.15454102
scalar OsgEarthNet.uav[32] utilizationEnergyOverdrawMission 0
scalar OsgEarthNet.uav[32] utilizationEnergyOverdrawMaintenance 0
scalar OsgEarthNet.uav[32] utilizationCountMissions 62
scalar OsgEarthNet.uav[32] utilizationCountManeuversMission 1326
scalar OsgEarthNet.uav[32] utilizationCountManeuversMaintenance 124
scalar OsgEarthNet.uav[32] utilizationCountChargeState 62
scalar OsgEarthNet.uav[32] utilizationCountOverdrawnAfterMission 0
scalar OsgEarthNet.uav[32] utilizationCountIdleState 8
scalar OsgEarthNet.uav[32] utilizationFail 0
scalar OsgEarthNet.uav[32] simulationTime 259200
scalar OsgEarthNet.uav[33] utilizationSecMission 15125.626373223
scalar OsgEarthNet.uav[33] utilizationSecMaintenance 9879.5128699082
scalar OsgEarthNet.uav[33] utilizationSecCharge 94290
scalar OsgEarthNet.uav[33] utilizationSecIdle 139904.85975687
scalar OsgEarthNet.uav[33] utilizationEnergyMission 73501.879402161
scalar OsgEarthNet.uav[33] utilizationEnergyMaintenance 46930.430789947
scalar OsgEarthNet.uav[33] utilizationEnergyCharge 121292.18457031
scalar OsgEarthNet.uav[33] utilizationEnergyOverdrawMission 0
scalar OsgEarthNet.uav[33] utilizationEnergyOverdrawMaintenance 0
scalar OsgEarthNet.uav[33] utilizationCountMissions 27
scalar OsgEarthNet.uav[33] utilizationCountManeuversMission 522
scalar OsgEarthNet.uav[33] utilizationCountManeuversMaintenance 54
scalar OsgEarthNet.uav[33] utilizationCountChargeState 27
scalar OsgEarthNet.uav[33] utilizationCountOverdrawnAfterMission 0
scalar OsgEarthNet.uav[33] utilizationCountIdleState 28
scalar OsgEarthNet.uav[33] utilizationFail 0
scalar OsgEarthNet.uav[33] simulationTime 259200
scalar OsgEarthNet.uav[34] utilizationSecMission 16757.191718513
scalar OsgEarthNet.uav[34] utilizationSecMaintenance 11359.645779964
scalar OsgEarthNet.uav[34] utilizationSecCharge 108240
scalar OsgEarthNet.uav[34] utilizationSecIdle 122843.16150152
scalar OsgEarthNet.uav[34] utilizationEnergyMission 83743.939041138
scalar OsgEarthNet.uav[34] utilizationEnergyMaintenance 53991.209087372
scalar OsgEarthNet.uav[34] utilizationEnergyCharge 137559.79980469
scalar OsgEarthNet.uav[34] utilizationEnergyOverdrawMission 0
scalar OsgEarthNet.uav[34] utilizationEnergyOverdrawMaintenance 0
scalar OsgEarthNet.uav[34] utilizationCountMissions 32
scalar OsgEarthNet.uav[34] utilizationCountManeuversMission 630
scalar OsgEarthNet.uav[34] utilizationCountManeuversMaintenance 64
scalar OsgEarthNet.uav[34] utilizationCountChargeState 32
scalar OsgEarthNet.uav[34] utilizationCountOverdrawnAfterMission 0
scalar OsgEarthNet.uav[34] utilizationCountIdleState 33
scalar OsgEarthNet.uav[34] utilizationFail 0
scalar OsgEarthNet.uav[34] simulationTime 259200
scalar OsgEarthNet.uav[35] utilizationSecMission 41618.156343615
scalar OsgEarthNet.uav[35] utilizationSecMaintenance 18856.739943427
scalar OsgEarthNet.uav[35] utilizationSecCharge 197225.88309904
scalar OsgEarthNet.uav[35] utilizationSecIdle 1499.2196139157
scalar OsgEarthNet.uav[35] utilizationEnergyMission 200206.53223038
scalar OsgEarthNet.uav[35] utilizationEnergyMaintenance 85978.497566223
scalar OsgEarthNet.uav[35] utilizationEnergyCharge 283497.75732422
scalar OsgEarthNet.uav[35] utilizationEnergyOverdrawMission 0
scalar OsgEarthNet.uav[35] utilizationEnergyOverdrawMaintenance 0
scalar OsgEarthNet.uav[35] utilizationCountMissions 62
scalar OsgEarthNet.uav[35] utilizationCountManeuversMission 1267
scalar OsgEarthNet.uav[35] utilizationCountManeuversMaintenance 124
scalar OsgEarthNet.uav[35] utilizationCountChargeState 62
scalar OsgEarthNet.uav[35] utilizationCountOverdrawnAfterMission 0
scalar OsgEarthNet.uav[35] utilizationCountIdleState 9
scalar OsgEarthNet.uav[35] utilizationFail 0
scalar OsgEarthNet.uav[35] simulationTime 259200
scalar OsgEarthNet.uav[36] utilizationSecMission 16969.377288704
scalar OsgEarthNet.uav[36] utilizationSecMaintenance 9140.3456673498
scalar OsgEarthNet.uav[36] utilizationSecCharge 92713.064364968
scalar OsgEarthNet.uav[36] utilizationSecIdle 140377.21167898
scalar OsgEarthNet.uav[36] utilizationEnergyMission 80757.286964417
scalar OsgEarthNet.uav[36] utilizationEnergyMaintenance 43660.542423248
scalar OsgEarthNet.uav[36] utilizationEnergyCharge 120285.76513672
scalar OsgEarthNet.uav[36] utilizationEnergyOverdrawMission 0
scalar OsgEarthNet.uav[36] utilizationEnergyOverdrawMaintenance 0
scalar OsgEarthNet.uav[36] utilizationCountMissions 27
scalar OsgEarthNet.uav[36] utilizationCountManeuversMission 458
scalar OsgEarthNet.uav[36] utilizationCountManeuversMaintenance 54
scalar OsgEarthNet.uav[36] utilizationCountChargeState 27
scalar OsgEarthNet.uav[36] utilizationCountOverdrawnAfterMission 0
scalar OsgEarthNet.uav[36] utilizationCountIdleState 27
scalar OsgEarthNet.uav[36] utilizationFail 0
scalar OsgEarthNet.uav[36] simulationTime 259200
scalar OsgEarthNet.uav[37] utilizationSecMission 14792.618525466
scalar OsgEarthNet.uav[37] utilizationSecMaintenance 11674.666032545
scalar OsgEarthNet.uav[37] utilizationSecCharge 105040
scalar OsgEarthNet.uav[37] utilizationSecIdle 127692.71444199
scalar OsgEarthNet.uav[37] utilizationEnergyMission 72295.372997284
scalar OsgEarthNet.uav[37] utilizationEnergyMaintenance 55186.147006989
scalar OsgEarthNet.uav[37] utilizationEnergyCharge 128406.12329102
scalar OsgEarthNet.uav[37] utilizationEnergyOverdrawMission 0
scalar OsgEarthNet.uav[37] utilizationEnergyOverdrawMaintenance 0
scalar OsgEarthNet.uav[37] utilizationCountMissions 34
scalar OsgEarthNet.uav[37] utilizationCountManeuversMission 559
scalar OsgEarthNet.uav[37] utilizationCountManeuversMaintenance 68
scalar OsgEarthNet.uav[37] utilizationCountChargeState 34
scalar OsgEarthNet.uav[37] utilizationCountOverdrawnAfterMission 0
scalar OsgEarthNet.uav[37] utilizationCountIdleState 35
scalar OsgEarthNet.uav[37] utilizationFail 0
scalar OsgEarthNet.uav[37] simulationTime 259200
scalar OsgEarthNet.uav[38] utilizationSecMission 41522.726659887
scalar OsgEarthNet.uav[38] utilizationSecMaintenance 18262.703364565
scalar OsgEarthNet.uav[38] utilizationSecCharge 197003.11601683
scalar OsgEarthNet.uav[38] utilizationSecIdle 2411.4529587171
scalar OsgEarthNet.uav[38] utilizationEnergyMission 200315.70227432
scalar OsgEarthNet.uav[38] utilizationEnergyMaintenance 83660.964038849
scalar OsgEarthNet.uav[38] utilizationEnergyCharge 280260.0435791
scalar OsgEarthNet.uav[38] utilizationEnergyOverdrawMission 0
scalar OsgEarthNet.uav[38] utilizationEnergyOverdrawMaintenance 0
scalar OsgEarthNet.uav[38] utilizationCountMissions 62
scalar OsgEarthNet.uav[38] utilizationCountManeuversMission 1297
scalar OsgEarthNet.uav[38] utilizationCountManeuversMaintenance 124
scalar OsgEarthNet.uav[38] utilizationCountChargeState 62
scalar OsgEarthNet.uav[38] utilizationCountOverdrawnAfterMission 0
scalar OsgEarthNet.uav[38] utilizationCountIdleState 11
scalar OsgEarthNet.uav[38] utilizationFail 0
scalar OsgEarthNet.uav[38] simulationTime 259200
scalar OsgEarthNet.uav[39] utilizationSecMission 17857.759869714
scalar OsgEarthNet.uav[39] utilizationSecMaintenance 11048.145871347
scalar OsgEarthNet.uav[39] utilizationSecCharge 105696.87457996
scalar OsgEarthNet.uav[39] utilizationSecIdle 124597.21867898
scalar OsgEarthNet.uav[39] utilizationEnergyMission 87228.309146881
scalar OsgEarthNet.uav[39] utilizationEnergyMaintenance 52573.466388702
scalar OsgEarthNet.uav[39] utilizationEnergyCharge 136032.88238525
scalar OsgEarthNet.uav[39] utilizationEnergyOverdrawMission 0
scalar OsgEarthNet.uav[39] utilizationEnergyOverdrawMaintenance 0
scalar OsgEarthNet.uav[39] utilizationCountMissions 31
scalar OsgEarthNet.uav[39] utilizationCountManeuversMission 576
scalar OsgEarthNet.uav[39] utilizationCountManeuversMaintenance 62
scalar OsgEarthNet.uav[39] utilizationCountChargeState 31
scalar OsgEarthNet.uav[39] utilizationCountOverdrawnAfterMission 0
scalar OsgEarthNet.uav[39] utilizationCountIdleState 31
scalar OsgEarthNet.uav[39] utilizationFail 0
scalar OsgEarthNet.uav[39] simulationTime 259200
scalar OsgEarthNet.uav[40] utilizationSecMission 15407.501830963
scalar OsgEarthNet.uav[40] utilizationSecMaintenance 9106.1812027639
scalar OsgEarthNet.uav[40] utilizationSecCharge 91880
scalar OsgEarthNet.uav[40] utilizationSecIdle 142806.31596627
scalar OsgEarthNet.uav[40] utilizationEnergyMission 75147.844139099
scalar OsgEarthNet.uav[40] utilizationEnergyMaintenance 43344.97542572
scalar OsgEarthNet.uav[40] utilizationEnergyCharge 118714.60595703
scalar OsgEarthNet.uav[40] utilizationEnergyOverdrawMission 0
scalar OsgEarthNet.uav[40] utilizationEnergyOverdrawMaintenance 0
scalar OsgEarthNet.uav[40] utilizationCountMissions 26
scalar OsgEarthNet.uav[40] utilizationCountManeuversMission 458
scalar OsgEarthNet.uav[40] utilizationCountManeuversMaintenance 52
scalar OsgEarthNet.uav[40] utilizationCountChargeState 26
scalar OsgEarthNet.uav[40] utilizationCountOverdrawnAfterMission 0
scalar OsgEarthNet.uav[40] utilizationCountIdleState 27
scalar OsgEarthNet.uav[40] utilizationFail 0
scalar OsgEarthNet.uav[40] simulationTime 259200
scalar OsgEarthNet.uav[41] utilizationSecMission 19603.500981245
scalar OsgEarthNet.uav[41] utilizationSecMaintenance 13632.775634294
scalar OsgEarthNet.uav[41] utilizationSecCharge 129540
scalar OsgEarthNet.uav[41] utilizationSecIdle 96423.722384461
scalar OsgEarthNet.uav[41] utilizationEnergyMission 97169.414318085
scalar OsgEarthNet.uav[41] utilizationEnergyMaintenance 63958.646282196
scalar OsgEarthNet.uav[41] utilizationEnergyCharge 161782.71826172
scalar OsgEarthNet.uav[41] utilizationEnergyOverdrawMission 0
scalar OsgEarthNet.uav[41] utilizationEnergyOverdrawMaintenance 0
scalar OsgEarthNet.uav[41] utilizationCountMissions 40
scalar OsgEarthNet.uav[41] utilizationCountManeuversMission 682
scalar OsgEarthNet.uav[41] utilizationCountManeuversMaintenance 80
scalar OsgEarthNet.uav[41] utilizationCountChargeState 40
scalar OsgEarthNet.uav[41] utilizationCountOverdrawnAfterMission 0
scalar OsgEarthNet.uav[41] utilizationCountIdleState 41
scalar OsgEarthNet.uav[41] utilizationFail 0
scalar OsgEarthNet.uav[41] simulationTime 259200
scalar OsgEarthNet.uav[42] utilizationSecMission 40618.728072778
scalar OsgEarthNet.uav[42] utilizationSecMaintenance 18351.945044122
scalar OsgEarthNet.uav[42] utilizationSecCharge 196992.6205207
scalar OsgEarthNet.uav[42] utilizationSecIdle 3236.7053624037
scalar OsgEarthNet.uav[42] utilizationEnergyMission 197555.66622162
scalar OsgEarthNet.uav[42] utilizationEnergyMaintenance 85423.24917984
scalar OsgEarthNet.uav[42] utilizationEnergyCharge 279494.08843994
scalar OsgEarthNet.uav[42] utilizationEnergyOverdrawMission 0
scalar OsgEarthNet.uav[42] utilizationEnergyOverdrawMaintenance 0
scalar OsgEarthNet.uav[42] utilizationCountMissions 62
scalar OsgEarthNet.uav[42] utilizationCountManeuversMission 1275
scalar OsgEarthNet.uav[42] utilizationCountManeuversMaintenance 124
scalar OsgEarthNet.uav[42] utilizationCountChargeState 62
scalar OsgEarthNet.uav[42] utilizationCountOverdrawnAfterMission 0
scalar OsgEarthNet.uav[42] utilizationCountIdleState 14
scalar OsgEarthNet.uav[42] utilizationFail 0
scalar OsgEarthNet.uav[42] simulationTime 259200
scalar OsgEarthNet.uav[43] utilizationSecMission 16637.868944793
scalar OsgEarthNet.uav[43] utilizationSecMaintenance 9779.8911395078
scalar OsgEarthNet.uav[43] utilizationSecCharge 96000.235915699
scalar OsgEarthNet.uav[43] utilizationSecIdle 136782.003
scalar OsgEarthNet.uav[43] utilizationEnergyMission 80046.123241425
scalar OsgEarthNet.uav[43] utilizationEnergyMaintenance 46523.272140503
scalar OsgEarthNet.uav[43] utilizationEnergyCharge 124200.03991699
scalar OsgEarthNet.uav[43] utilizationEnergyOverdrawMission 0
scalar OsgEarthNet.uav[43] utilizationEnergyOverdrawMaintenance 0
scalar OsgEarthNet.uav[43] utilizationCountMissions 28
scalar OsgEarthNet.uav[43] utilizationCountManeuversMission 498
scalar OsgEarthNet.uav[43] utilizationCountManeuversMaintenance 56
scalar OsgEarthNet.uav[43] utilizationCountChargeState 28
scalar OsgEarthNet.uav[43] utilizationCountOverdrawnAfterMission 0
scalar OsgEarthNet.uav[43] utilizationCountIdleState 28
scalar OsgEarthNet.uav[43] utilizationFail 0
scalar OsgEarthNet.uav[43] simulationTime 259200
scalar OsgEarthNet.uav[44] utilizationSecMission 16756.201177494
scalar OsgEarthNet.uav[44] utilizationSecMaintenance 11621.414056242
scalar OsgEarthNet.uav[44] utilizationSecCharge 112400
scalar OsgEarthNet.uav[44] utilizationSecIdle 118422.38376626
scalar OsgEarthNet.uav[44] utilizationEnergyMission 79999.081329346
scalar OsgEarthNet.uav[44] utilizationEnergyMaintenance 56004.555274963
scalar OsgEarthNet.uav[44] utilizationEnergyCharge 137994.21704102
scalar OsgEarthNet.uav[44] utilizationEnergyOverdrawMission 0
scalar OsgEarthNet.uav[44] utilizationEnergyOverdrawMaintenance 0
scalar OsgEarthNet.uav[44] utilizationCountMissions 36
scalar OsgEarthNet.uav[44] utilizationCountManeuversMission 480
scalar OsgEarthNet.uav[44] utilizationCountManeuversMaintenance 72
scalar OsgEarthNet.uav[44] utilizationCountChargeState 36
scalar OsgEarthNet.uav[44] utilizationCountOverdrawnAfterMission 0
scalar OsgEarthNet.uav[44] utilizationCountIdleState 37
scalar OsgEarthNet.uav[44] utilizationFail 0
scalar OsgEarthNet.uav[44] simulationTime 259200
scalar OsgEarthNet.uav[45] utilizationSecMission 40181.421958082
scalar OsgEarthNet.uav[45] utilizationSecMaintenance 19226.577041918
scalar OsgEarthNet.uav[45] utilizationSecCharge 199080
scalar OsgEarthNet.uav[45] utilizationSecIdle 712
scalar OsgEarthNet.uav[45] utilizationEnergyMission 195263.49966171
scalar OsgEarthNet.uav[45] utilizationEnergyMaintenance 88693.971458435
scalar OsgEarthNet.uav[45] utilizationEnergyCharge 283084.53320312
scalar OsgEarthNet.uav[45] utilizationEnergyOverdrawMission 0
scalar OsgEarthNet.uav[45] utilizationEnergyOverdrawMaintenance 0
scalar OsgEarthNet.uav[45] utilizationCountMissions 62
scalar OsgEarthNet.uav[45] utilizationCountManeuversMission 1341
scalar OsgEarthNet.uav[45] utilizationCountManeuversMaintenance 125
scalar OsgEarthNet.uav[45] utilizationCountChargeState 62
scalar OsgEarthNet.uav[45] utilizationCountOverdrawnAfterMission 0
scalar OsgEarthNet.uav[45] utilizationCountIdleState 11
scalar OsgEarthNet.uav[45] utilizationFail 0
scalar OsgEarthNet.uav[45] simulationTime 259200
scalar OsgEarthNet.uav[46] utilizationSecMission 17844.996596445
scalar OsgEarthNet.uav[46] utilizationSecMaintenance 10794.498212971
scalar OsgEarthNet.uav[46] utilizationSecCharge 105368.50419058
scalar OsgEarthNet.uav[46] utilizationSecIdle 125192
scalar OsgEarthNet.uav[46] utilizationEnergyMission 86555.801059723
scalar OsgEarthNet.uav[46] utilizationEnergyMaintenance 51660.715644836
scalar OsgEarthNet.uav[46] utilizationEnergyCharge 137330.16699219
scalar OsgEarthNet.uav[46] utilizationEnergyOverdrawMission 0
scalar OsgEarthNet.uav[46] utilizationEnergyOverdrawMaintenance 0
scalar OsgEarthNet.uav[46] utilizationCountMissions 30
scalar OsgEarthNet.uav[46] utilizationCountManeuversMission 568
scalar OsgEarthNet.uav[46] utilizationCountManeuversMaintenance 59
scalar OsgEarthNet.uav[46] utilizationCountChargeState 30
scalar OsgEarthNet.uav[46] utilizationCountOverdrawnAfterMission 0
scalar OsgEarthNet.uav[46] utilizationCountIdleState 30
scalar OsgEarthNet.uav[46] utilizationFail 0
scalar OsgEarthNet.uav[46] simulationTime 259200
scalar OsgEarthNet.uav[47] utilizationSecMission 19433.046546128
scalar OsgEarthNet.uav[47] utilizationSecMaintenance 13233.313194197
scalar OsgEarthNet.uav[47] utilizationSecCharge 127110
scalar OsgEarthNet.uav[47] utilizationSecIdle 99423.639259675
scalar OsgEarthNet.uav[47] utilizationEnergyMission 95440.693351746
scalar OsgEarthNet.uav[47] utilizationEnergyMaintenance 63051.455127716
scalar OsgEarthNet.uav[47] utilizationEnergyCharge 158933.56835938
scalar OsgEarthNet.uav[47] utilizationEnergyOverdrawMission 0
scalar OsgEarthNet.uav[47] utilizationEnergyOverdrawMaintenance 0
scalar OsgEarthNet.uav[47] utilizationCountMissions 39
scalar OsgEarthNet.uav[47] utilizationCountManeuversMission 659
scalar OsgEarthNet.uav[47] utilizationCountManeuversMaintenance 78
scalar OsgEarthNet.uav[47] utilizationCountChargeState 39
scalar OsgEarthNet.uav[47] utilizationCountOverdrawnAfterMission 0
scalar OsgEarthNet.uav[47] utilizationCountIdleState 40
scalar OsgEarthNet.uav[47] utilizationFail 0
scalar OsgEarthNet.uav[47] simulationTime 259200
scalar OsgEarthNet.uav[48] utilizationSecMission 42042.080349148
scalar OsgEarthNet.uav[48] utilizationSecMaintenance 17325.918650852
scalar OsgEarthNet.uav[48] utilizationSecCharge 198970
scalar OsgEarthNet.uav[48] utilizationSecIdle 862
scalar OsgEarthNet.uav[48] utilizationEnergyMission 202260.26793657
scalar OsgEarthNet.uav[48] utilizationEnergyMaintenance 80399.008190155
scalar OsgEarthNet.uav[48] utilizationEnergyCharge 279766.85400391
scalar OsgEarthNet.uav[48] utilizationEnergyOverdrawMission 0
scalar OsgEarthNet.uav[48] utilizationEnergyOverdrawMaintenance 0
scalar OsgEarthNet.uav[48] utilizationCountMissions 61
scalar OsgEarthNet.uav[48] utilizationCountManeuversMission 1153
scalar OsgEarthNet.uav[48] utilizationCountManeuversMaintenance 122
scalar OsgEarthNet.uav[48] utilizationCountChargeState 61
scalar OsgEarthNet.uav[48] utilizationCountOverdrawnAfterMission 0
scalar OsgEarthNet.uav[48] utilizationCountIdleState 10
scalar OsgEarthNet.uav[48] utilizationFail 0
scalar OsgEarthNet.uav[48] simulationTime 259200
scalar OsgEarthNet.uav[49] utilizationSecMission 12153.492876731
scalar OsgEarthNet.uav[49] utilizationSecMaintenance 9147.7164783144
scalar OsgEarthNet.uav[49] utilizationSecCharge 80850
scalar OsgEarthNet.uav[49] utilizationSecIdle 157048.78964495
scalar OsgEarthNet.uav[49] utilizationEnergyMission 57793.174545288
scalar OsgEarthNet.uav[49] utilizationEnergyMaintenance 43336.352527618
scalar OsgEarthNet.uav[49] utilizationEnergyCharge 104182.78759766
scalar OsgEarthNet.uav[49] utilizationEnergyOverdrawMission 0
scalar OsgEarthNet.uav[49] utilizationEnergyOverdrawMaintenance 0
scalar OsgEarthNet.uav[49] utilizationCountMissions 23
scalar OsgEarthNet.uav[49] utilizationCountManeuversMission 456
scalar OsgEarthNet.uav[49] utilizationCountManeuversMaintenance 46
scalar OsgEarthNet.uav[49] utilizationCountChargeState 23
scalar OsgEarthNet.uav[49] utilizationCountOverdrawnAfterMission 0
scalar OsgEarthNet.uav[49] utilizationCountIdleState 24
scalar OsgEarthNet.uav[49] utilizationFail 0
scalar OsgEarthNet.uav[49] simulationTime 259200
scalar OsgEarthNet.uav[50] utilizationSecMission 17469.486363783
scalar OsgEarthNet.uav[50] utilizationSecMaintenance 9060.2779096682
scalar OsgEarthNet.uav[50] utilizationSecCharge 96433.711848042
scalar OsgEarthNet.uav[50] utilizationSecIdle 136236.52287851
scalar OsgEarthNet.uav[50] utilizationEnergyMission 82507.673667908
scalar OsgEarthNet.uav[50] utilizationEnergyMaintenance 43005.820919037
scalar OsgEarthNet.uav[50] utilizationEnergyCharge 124935.83447266
scalar OsgEarthNet.uav[50] utilizationEnergyOverdrawMission 0
scalar OsgEarthNet.uav[50] utilizationEnergyOverdrawMaintenance 0
scalar OsgEarthNet.uav[50] utilizationCountMissions 28
scalar OsgEarthNet.uav[50] utilizationCountManeuversMission 466
scalar OsgEarthNet.uav[50] utilizationCountManeuversMaintenance 56
scalar OsgEarthNet.uav[50] utilizationCountChargeState 28
scalar OsgEarthNet.uav[50] utilizationCountOverdrawnAfterMission 0
scalar OsgEarthNet.uav[50] utilizationCountIdleState 28
scalar OsgEarthNet.uav[50] utilizationFail 0
scalar OsgEarthNet.uav[50] simulationTime 259200
scalar OsgEarthNet.uav[51] utilizationSecMission 19725.746742377
scalar OsgEarthNet.uav[51] utilizationSecMaintenance 13199.587281031
scalar OsgEarthNet.uav[51] utilizationSecCharge 124717.34889476
scalar OsgEarthNet.uav[51] utilizationSecIdle 101557.31608183
scalar OsgEarthNet.uav[51] utilizationEnergyMission 94913.863643646
scalar OsgEarthNet.uav[51] utilizationEnergyMaintenance 63115.693798065
scalar OsgEarthNet.uav[51] utilizationEnergyCharge 154692.83740234
scalar OsgEarthNet.uav[51] utilizationEnergyOverdrawMission 0
scalar OsgEarthNet.uav[51] utilizationEnergyOverdrawMaintenance 0
scalar OsgEarthNet.uav[51] utilizationCountMissions 40
scalar OsgEarthNet.uav[51] utilizationCountManeuversMission 614
scalar OsgEarthNet.uav[51] utilizationCountManeuversMaintenance 80
scalar OsgEarthNet.uav[51] utilizationCountChargeState 40
scalar OsgEarthNet.uav[51] utilizationCountOverdrawnAfterMission 0
scalar OsgEarthNet.uav[51] utilizationCountIdleState 40
scalar OsgEarthNet.uav[51] utilizationFail 0
scalar OsgEarthNet.uav[51] simulationTime 259200
scalar OsgEarthNet.uav[52] utilizationSecMission 41985.000253999
scalar OsgEarthNet.uav[52] utilizationSecMaintenance 17756.440752873
scalar OsgEarthNet.uav[52] utilizationSecCharge 196436.55399313
scalar OsgEarthNet.uav[52] utilizationSecIdle 3022.004
scalar OsgEarthNet.uav[52] utilizationEnergyMission 200600.1931076
scalar OsgEarthNet.uav[52] utilizationEnergyMaintenance 82614.206905365
scalar OsgEarthNet.uav[52] utilizationEnergyCharge 278718.9463501
scalar OsgEarthNet.uav[52] utilizationEnergyOverdrawMission 0
scalar OsgEarthNet.uav[52] utilizationEnergyOverdrawMaintenance 0
scalar OsgEarthNet.uav[52] utilizationCountMissions 61
scalar OsgEarthNet.uav[52] utilizationCountManeuversMission 1248
scalar OsgEarthNet.uav[52] utilizationCountManeuversMaintenance 122
scalar OsgEarthNet.uav[52] utilizationCountChargeState 61
scalar OsgEarthNet.uav[52] utilizationCountOverdrawnAfterMission 0
scalar OsgEarthNet.uav[52] utilizationCountIdleState 8
scalar OsgEarthNet.uav[52] utilizationFail 0
scalar OsgEarthNet.uav[52] simulationTime 259200
scalar OsgEarthNet.uav[53] utilizationSecMission 19920.994707695
scalar OsgEarthNet.uav[53] utilizationSecMaintenance 10560.512491455
scalar OsgEarthNet.uav[53] utilizationSecCharge 113160
scalar OsgEarthNet.uav[53] utilizationSecIdle 115558.49180085
scalar OsgEarthNet.uav[53] utilizationEnergyMission 95658.3944664
scalar OsgEarthNet.uav[53] utilizationEnergyMaintenance 50814.743347168
scalar OsgEarthNet.uav[53] utilizationEnergyCharge 146225.5
scalar OsgEarthNet.uav[53] utilizationEnergyOverdrawMission 0
scalar OsgEarthNet.uav[53] utilizationEnergyOverdrawMaintenance 0
scalar OsgEarthNet.uav[53] utilizationCountMissions 32
scalar OsgEarthNet.uav[53] utilizationCountManeuversMission 532
scalar OsgEarthNet.uav[53] utilizationCountManeuversMaintenance 64
scalar OsgEarthNet.uav[53] utilizationCountChargeState 32
scalar OsgEarthNet.uav[53] utilizationCountOverdrawnAfterMission 0
scalar OsgEarthNet.uav[53] utilizationCountIdleState 33
scalar OsgEarthNet.uav[53] utilizationFail 0
scalar OsgEarthNet.uav[53] simulationTime 259200
scalar OsgEarthNet.uav[54] utilizationSecMission 15441.668819839
scalar OsgEarthNet.uav[54] utilizationSecMaintenance 11796.575582569
scalar OsgEarthNet.uav[54] utilizationSecCharge 108540
scalar OsgEarthNet.uav[54] utilizationSecIdle 123421.75459759
scalar OsgEarthNet.uav[54] utilizationEnergyMission 76556.336719513
scalar OsgEarthNet.uav[54] utilizationEnergyMaintenance 55892.029647827
scalar OsgEarthNet.uav[54] utilizationEnergyCharge 131236.234375
scalar OsgEarthNet.uav[54] utilizationEnergyOverdrawMission 0
scalar OsgEarthNet.uav[54] utilizationEnergyOverdrawMaintenance 0
scalar OsgEarthNet.uav[54] utilizationCountMissions 36
scalar OsgEarthNet.uav[54] utilizationCountManeuversMission 502
scalar OsgEarthNet.uav[54] utilizationCountManeuversMaintenance 72
scalar OsgEarthNet.uav[54] utilizationCountChargeState 36
scalar OsgEarthNet.uav[54] utilizationCountOverdrawnAfterMission 0
scalar OsgEarthNet.uav[54] utilizationCountIdleState 37
scalar OsgEarthNet.uav[54] utilizationFail 0
scalar OsgEarthNet.uav[54] simulationTime 259200
scalar OsgEarthNet.uav[55] utilizationSecMission 41105.945463952
scalar OsgEarthNet.uav[55] utilizationSecMaintenance 17746.632168977
scalar OsgEarthNet.uav[55] utilizationSecCharge 196895.41636707
scalar OsgEarthNet.uav[55] utilizationSecIdle 3452.005
scalar OsgEarthNet.uav[55] utilizationEnergyMission 201542.19483566
scalar OsgEarthNet.uav[55] utilizationEnergyMaintenance 80429.240200043
scalar OsgEarthNet.uav[55] utilizationEnergyCharge 279878.94824219
scalar OsgEarthNet.uav[55] utilizationEnergyOverdrawMission 0
scalar OsgEarthNet.uav[55] utilizationEnergyOverdrawMaintenance 0
scalar OsgEarthNet.uav[55] utilizationCountMissions 61
scalar OsgEarthNet.uav[55] utilizationCountManeuversMission 1302
scalar OsgEarthNet.uav[55] utilizationCountManeuversMaintenance 122
scalar OsgEarthNet.uav[55] utilizationCountChargeState 61
scalar OsgEarthNet.uav[55] utilizationCountOverdrawnAfterMission 0
scalar OsgEarthNet.uav[55] utilizationCountIdleState 4
scalar OsgEarthNet.uav[55] utilizationFail 0
scalar OsgEarthNet.uav[55] simulationTime 259200
scalar OsgEarthNet.uav[56] utilizationSecMission 15286.251525803
scalar OsgEarthNet.uav[56] utilizationSecMaintenance 9897.4006396445
scalar OsgEarthNet.uav[56] utilizationSecCharge 94362.954717019
scalar OsgEarthNet.uav[56] utilizationSecIdle 139653.39211753
scalar OsgEarthNet.uav[56] utilizationEnergyMission 75550.433914185
scalar OsgEarthNet.uav[56] utilizationEnergyMaintenance 47283.886154175
scalar OsgEarthNet.uav[56] utilizationEnergyCharge 122135.79931641
scalar OsgEarthNet.uav[56] utilizationEnergyOverdrawMission 0
scalar OsgEarthNet.uav[56] utilizationEnergyOverdrawMaintenance 0
scalar OsgEarthNet.uav[56] utilizationCountMissions 27
scalar OsgEarthNet.uav[56] utilizationCountManeuversMission 504
scalar OsgEarthNet.uav[56] utilizationCountManeuversMaintenance 54
scalar OsgEarthNet.uav[56] utilizationCountChargeState 27
scalar OsgEarthNet.uav[56] utilizationCountOverdrawnAfterMission 0
scalar OsgEarthNet.uav[56] utilizationCountIdleState 27
scalar OsgEarthNet.uav[56] utilizationFail 0
scalar OsgEarthNet.uav[56] simulationTime 259200
scalar OsgEarthNet.uav[57] utilizationSecMission 19864.837872142
scalar OsgEarthNet.uav[57] utilizationSecMaintenance 12806.248455307
scalar OsgEarthNet.uav[57] utilizationSecCharge 125376.90067255
scalar OsgEarthNet.uav[57] utilizationSecIdle 101152.012
scalar OsgEarthNet.uav[57] utilizationEnergyMission 96456.767662048
scalar OsgEarthNet.uav[57] utilizationEnergyMaintenance 59844.455646515
scalar OsgEarthNet.uav[57] utilizationEnergyCharge 157047.87231445
scalar OsgEarthNet.uav[57] utilizationEnergyOverdrawMission 0
scalar OsgEarthNet.uav[57] utilizationEnergyOverdrawMaintenance 0
scalar OsgEarthNet.uav[57] utilizationCountMissions 39
scalar OsgEarthNet.uav[57] utilizationCountManeuversMission 592
scalar OsgEarthNet.uav[57] utilizationCountManeuversMaintenance 78
scalar OsgEarthNet.uav[57] utilizationCountChargeState 39
scalar OsgEarthNet.uav[57] utilizationCountOverdrawnAfterMission 0
scalar OsgEarthNet.uav[57] utilizationCountIdleState 39
scalar OsgEarthNet.uav[57] utilizationFail 0
scalar OsgEarthNet.uav[57] simulationTime 259200
scalar OsgEarthNet.uav[58] utilizationSecMission 43000.777174292
scalar OsgEarthNet.uav[58] utilizationSecMaintenance 16475.032560121
scalar OsgEarthNet.uav[58] utilizationSecCharge 198349.69132441
scalar OsgEarthNet.uav[58] utilizationSecIdle 1374.4979411756
scalar OsgEarthNet.uav[58] utilizationEnergyMission 206848.52732849
scalar OsgEarthNet.uav[58] utilizationEnergyMaintenance 75487.144081116
scalar OsgEarthNet.uav[58] utilizationEnergyCharge 281608.74291992
scalar OsgEarthNet.uav[58] utilizationEnergyOverdrawMission 0
scalar OsgEarthNet.uav[58] utilizationEnergyOverdrawMaintenance 0
scalar OsgEarthNet.uav[58] utilizationCountMissions 61
scalar OsgEarthNet.uav[58] utilizationCountManeuversMission 1197
scalar OsgEarthNet.uav[58] utilizationCountManeuversMaintenance 122
scalar OsgEarthNet.uav[58] utilizationCountChargeState 61
scalar OsgEarthNet.uav[58] utilizationCountOverdrawnAfterMission 0
scalar OsgEarthNet.uav[58] utilizationCountIdleState 7
scalar OsgEarthNet.uav[58] utilizationFail 0
scalar OsgEarthNet.uav[58] simulationTime 259200
scalar OsgEarthNet.uav[59] utilizationSecMission 18300.260480035
scalar OsgEarthNet.uav[59] utilizationSecMaintenance 9485.7696386709
scalar OsgEarthNet.uav[59] utilizationSecCharge 102550
scalar OsgEarthNet.uav[59] utilizationSecIdle 128863.96888129
scalar OsgEarthNet.uav[59] utilizationEnergyMission 87778.668746948
scalar OsgEarthNet.uav[59] utilizationEnergyMaintenance 44876.787288666
scalar OsgEarthNet.uav[59] utilizationEnergyCharge 132319.64599609
scalar OsgEarthNet.uav[59] utilizationEnergyOverdrawMission 0
scalar OsgEarthNet.uav[59] utilizationEnergyOverdrawMaintenance 0
scalar OsgEarthNet.uav[59] utilizationCountMissions 29
scalar OsgEarthNet.uav[59] utilizationCountManeuversMission 494
scalar OsgEarthNet.uav[59] utilizationCountManeuversMaintenance 58
scalar OsgEarthNet.uav[59] utilizationCountChargeState 29
scalar OsgEarthNet.uav[59] utilizationCountOverdrawnAfterMission 0
scalar OsgEarthNet.uav[59] utilizationCountIdleState 30
scalar OsgEarthNet.uav[59] utilizationFail 0
scalar OsgEarthNet.uav[59] simulationTime 259200
scalar OsgEarthNet.uav[60] utilizationSecMission 16854.634106813
scalar OsgEarthNet.uav[60] utilizationSecMaintenance 12494.108098852
scalar OsgEarthNet.uav[60] utilizationSecCharge 108960
scalar OsgEarthNet.uav[60] utilizationSecIdle 120891.25679434
scalar OsgEarthNet.uav[60] utilizationEnergyMission 84153.395069122
scalar OsgEarthNet.uav[60] utilizationEnergyMaintenance 58993.559223175
scalar OsgEarthNet.uav[60] utilizationEnergyCharge 140449.30517578
scalar OsgEarthNet.uav[60] utilizationEnergyOverdrawMission 0
scalar OsgEarthNet.uav[60] utilizationEnergyOverdrawMaintenance 0
scalar OsgEarthNet.uav[60] utilizationCountMissions 31
scalar OsgEarthNet.uav[60] utilizationCountManeuversMission 656
scalar OsgEarthNet.uav[60] utilizationCountManeuversMaintenance 62
scalar OsgEarthNet.uav[60] utilizationCountChargeState 31
scalar OsgEarthNet.uav[60] utilizationCountOverdrawnAfterMission 0
scalar OsgEarthNet.uav[60] utilizationCountIdleState 32
scalar OsgEarthNet.uav[60] utilizationFail 0
scalar OsgEarthNet.uav[60] simulationTime 259200
scalar OsgEarthNet.uav[61] utilizationSecMission 20219.85107937
scalar OsgEarthNet.uav[61] utilizationSecMaintenance 13638.14092063
scalar OsgEarthNet.uav[61] utilizationSecCharge 128150
scalar OsgEarthNet.uav[61] utilizationSecIdle 97192.007
scalar OsgEarthNet.uav[61] utilizationEnergyMission 99363.125473022
scalar OsgEarthNet.uav[61] utilizationEnergyMaintenance 64533.254764933
scalar OsgEarthNet.uav[61] utilizationEnergyCharge 159088.40112305
scalar OsgEarthNet.uav[61] utilizationEnergyOverdrawMission 0
scalar OsgEarthNet.uav[61] utilizationEnergyOverdrawMaintenance 0
scalar OsgEarthNet.uav[61] utilizationCountMissions 41
scalar OsgEarthNet.uav[61] utilizationCountManeuversMission 683
scalar OsgEarthNet.uav[61] utilizationCountManeuversMaintenance 82
scalar OsgEarthNet.uav[61] utilizationCountChargeState 40
scalar OsgEarthNet.uav[61] utilizationCountOverdrawnAfterMission 0
scalar OsgEarthNet.uav[61] utilizationCountIdleState 41
scalar OsgEarthNet.uav[61] utilizationFail 0
scalar OsgEarthNet.uav[61] simulationTime 259200
scalar OsgEarthNet.uav[62] utilizationSecMission 41672.94072953
scalar OsgEarthNet.uav[62] utilizationSecMaintenance 17338.636454941
scalar OsgEarthNet.uav[62] utilizationSecCharge 198456.42081553
scalar OsgEarthNet.uav[62] utilizationSecIdle 1732.001
scalar OsgEarthNet.uav[62] utilizationEnergyMission 199930.79991531
scalar OsgEarthNet.uav[62] utilizationEnergyMaintenance 79822.474391937
scalar OsgEarthNet.uav[62] utilizationEnergyCharge 281333.81738281
scalar OsgEarthNet.uav[62] utilizationEnergyOverdrawMission 0
scalar OsgEarthNet.uav[62] utilizationEnergyOverdrawMaintenance 0
scalar OsgEarthNet.uav[62] utilizationCountMissions 61
scalar OsgEarthNet.uav[62] utilizationCountManeuversMission 1259
scalar OsgEarthNet.uav[62] utilizationCountManeuversMaintenance 122
scalar OsgEarthNet.uav[62] utilizationCountChargeState 61
scalar OsgEarthNet.uav[62] utilizationCountOverdrawnAfterMission 0
scalar OsgEarthNet.uav[62] utilizationCountIdleState 13
scalar OsgEarthNet.uav[62] utilizationFail 0
scalar OsgEarthNet.uav[62] simulationTime 259200
scalar OsgEarthNet.uav[63] utilizationSecMission 15673.492876731
scalar OsgEarthNet.uav[63] utilizationSecMaintenance 12192.371244293
scalar OsgEarthNet.uav[63] utilizationSecCharge 104370
scalar OsgEarthNet.uav[63] utilizationSecIdle 126964.13487898
scalar OsgEarthNet.uav[63] utilizationEnergyMission 77196.509685516
scalar OsgEarthNet.uav[63] utilizationEnergyMaintenance 57908.778266907
scalar OsgEarthNet.uav[63] utilizationEnergyCharge 134029.99707031
scalar OsgEarthNet.uav[63] utilizationEnergyOverdrawMission 0
scalar OsgEarthNet.uav[63] utilizationEnergyOverdrawMaintenance 0
scalar OsgEarthNet.uav[63] utilizationCountMissions 30
scalar OsgEarthNet.uav[63] utilizationCountManeuversMission 632
scalar OsgEarthNet.uav[63] utilizationCountManeuversMaintenance 60
scalar OsgEarthNet.uav[63] utilizationCountChargeState 30
scalar OsgEarthNet.uav[63] utilizationCountOverdrawnAfterMission 0
scalar OsgEarthNet.uav[63] utilizationCountIdleState 31
scalar OsgEarthNet.uav[63] utilizationFail 0
scalar OsgEarthNet.uav[63] simulationTime 259200
scalar OsgEarthNet.uav[64] utilizationSecMission 18986.862412474
scalar OsgEarthNet.uav[64] utilizationSecMaintenance 13639.646358965
scalar OsgEarthNet.uav[64] utilizationSecCharge 127110.7657621
scalar OsgEarthNet.uav[64] utilizationSecIdle 99462.724466459
scalar OsgEarthNet.uav[64] utilizationEnergyMission 91832.972385406
scalar OsgEarthNet.uav[64] utilizationEnergyMaintenance 65104.577579498
scalar OsgEarthNet.uav[64] utilizationEnergyCharge 155403.71386719
scalar OsgEarthNet.uav[64] utilizationEnergyOverdrawMission 0
scalar OsgEarthNet.uav[64] utilizationEnergyOverdrawMaintenance 0
scalar OsgEarthNet.uav[64] utilizationCountMissions 42
scalar OsgEarthNet.uav[64] utilizationCountManeuversMission 583
scalar OsgEarthNet.uav[64] utilizationCountManeuversMaintenance 84
scalar OsgEarthNet.uav[64] utilizationCountChargeState 42
scalar OsgEarthNet.uav[64] utilizationCountOverdrawnAfterMission 0
scalar OsgEarthNet.uav[64] utilizationCountIdleState 42
scalar OsgEarthNet.uav[64] utilizationFail 0
scalar OsgEarthNet.uav[64] simulationTime 259200
scalar OsgEarthNet.uav[65] utilizationSecMission 41819.985178882
scalar OsgEarthNet.uav[65] utilizationSecMaintenance 16518.699316184
scalar OsgEarthNet.uav[65] utilizationSecCharge 195921.27195752
scalar OsgEarthNet.uav[65] utilizationSecIdle 4940.0425474148
[...]
scalar OsgEarthNet.uav[180] utilizationSecIdle 259199.999
scalar OsgEarthNet.uav[180] utilizationEnergyMission 0
scalar OsgEarthNet.uav[180] utilizationEnergyMaintenance 0
scalar OsgEarthNet.uav[180] utilizationEnergyCharge 0
scalar OsgEarthNet.uav[180] utilizationEnergyOverdrawMission 0
scalar OsgEarthNet.uav[180] utilizationEnergyOverdrawMaintenance 0
scalar OsgEarthNet.uav[180] utilizationCountMissions 0
scalar OsgEarthNet.uav[180] utilizationCountManeuversMission 0
scalar OsgEarthNet.uav[180] utilizationCountManeuversMaintenance 0
scalar OsgEarthNet.uav[180] utilizationCountChargeState 0
scalar OsgEarthNet.uav[180] utilizationCountOverdrawnAfterMission 0
scalar OsgEarthNet.uav[180] utilizationCountIdleState 1
scalar OsgEarthNet.uav[180] utilizationFail 0
scalar OsgEarthNet.uav[180] simulationTime 259200
scalar OsgEarthNet.uav[181] utilizationSecMission 0
scalar OsgEarthNet.uav[181] utilizationSecMaintenance 0
scalar OsgEarthNet.uav[181] utilizationSecCharge 0
scalar OsgEarthNet.uav[181] utilizationSecIdle 259199.999
scalar OsgEarthNet.uav[181] utilizationEnergyMission 0
scalar OsgEarthNet.uav[181] utilizationEnergyMaintenance 0
scalar OsgEarthNet.uav[181] utilizationEnergyCharge 0
scalar OsgEarthNet.uav[181] utilizationEnergyOverdrawMission 0
scalar OsgEarthNet.uav[181] utilizationEnergyOverdrawMaintenance 0
scalar OsgEarthNet.uav[181] utilizationCountMissions 0
scalar OsgEarthNet.uav[181] utilizationCountManeuversMission 0
scalar OsgEarthNet.uav[181] utilizationCountManeuversMaintenance 0
scalar OsgEarthNet.uav[181] utilizationCountChargeState 0
scalar OsgEarthNet.uav[181] utilizationCountOverdrawnAfterMission 0
scalar OsgEarthNet.uav[181] utilizationCountIdleState 1
scalar OsgEarthNet.uav[181] utilizationFail 0
scalar OsgEarthNet.uav[181] simulationTime 259200
scalar OsgEarthNet.uav[182] utilizationSecMission 0
scalar OsgEarthNet.uav[182] utilizationSecMaintenance 0
scalar OsgEarthNet.uav[182] utilizationSecCharge 0
scalar OsgEarthNet.uav[182] utilizationSecIdle 259199.999
scalar OsgEarthNet.uav[182] utilizationEnergyMission 0
scalar OsgEarthNet.uav[182] utilizationEnergyMaintenance 0
scalar OsgEarthNet.uav[182] utilizationEnergyCharge 0
scalar OsgEarthNet.uav[182] utilizationEnergyOverdrawMission 0
scalar OsgEarthNet.uav[182] utilizationEnergyOverdrawMaintenance 0
scalar OsgEarthNet.uav[182] utilizationCountMissions 0
scalar OsgEarthNet.uav[182] utilizationCountManeuversMission 0
scalar OsgEarthNet.uav[182] utilizationCountManeuversMaintenance 0
scalar OsgEarthNet.uav[182] utilizationCountChargeState 0
scalar OsgEarthNet.uav[182] utilizationCountOverdrawnAfterMission 0
scalar OsgEarthNet.uav[182] utilizationCountIdleState 1
scalar OsgEarthNet.uav[182] utilizationFail 0
scalar OsgEarthNet.uav[182] simulationTime 259200
scalar OsgEarthNet.uav[183] utilizationSecMission 0
scalar OsgEarthNet.uav[183] utilizationSecMaintenance 0
scalar OsgEarthNet.uav[183] utilizationSecCharge 0
scalar OsgEarthNet.uav[183] utilizationSecIdle 259199.999
scalar OsgEarthNet.uav[183] utilizationEnergyMission 0
scalar OsgEarthNet.uav[183] utilizationEnergyMaintenance 0
scalar OsgEarthNet.uav[183] utilizationEnergyCharge 0
scalar OsgEarthNet.uav[183] utilizationEnergyOverdrawMission 0
scalar OsgEarthNet.uav[183] utilizationEnergyOverdrawMaintenance 0
scalar OsgEarthNet.uav[183] utilizationCountMissions 0
scalar OsgEarthNet.uav[183] utilizationCountManeuversMission 0
scalar OsgEarthNet.uav[183] utilizationCountManeuversMaintenance 0
scalar OsgEarthNet.uav[183] utilizationCountChargeState 0
scalar OsgEarthNet.uav[183] utilizationCountOverdrawnAfterMission 0
scalar OsgEarthNet.uav[183] utilizationCountIdleState 1
scalar OsgEarthNet.uav[183] utilizationFail 0
scalar OsgEarthNet.uav[183] simulationTime 259200
scalar OsgEarthNet.uav[184] utilizationSecMission 0
scalar OsgEarthNet.uav[184] utilizationSecMaintenance 0
scalar OsgEarthNet.uav[184] utilizationSecCharge 0
scalar OsgEarthNet.uav[184] utilizationSecIdle 259199.999
scalar OsgEarthNet.uav[184] utilizationEnergyMission 0
scalar OsgEarthNet.uav[184] utilizationEnergyMaintenance 0
scalar OsgEarthNet.uav[184] utilizationEnergyCharge 0
scalar OsgEarthNet.uav[184] utilizationEnergyOverdrawMission 0
scalar OsgEarthNet.uav[184] utilizationEnergyOverdrawMaintenance 0
scalar OsgEarthNet.uav[184] utilizationCountMissions 0
scalar OsgEarthNet.uav[184] utilizationCountManeuversMission 0
scalar OsgEarthNet.uav[184] utilizationCountManeuversMaintenance 0
scalar OsgEarthNet.uav[184] utilizationCountChargeState 0
scalar OsgEarthNet.uav[184] utilizationCountOverdrawnAfterMission 0
scalar OsgEarthNet.uav[184] utilizationCountIdleState 1
scalar OsgEarthNet.uav[184] utilizationFail 0
scalar OsgEarthNet.uav[184] simulationTime 259200
scalar OsgEarthNet.uav[185] utilizationSecMission 0
scalar OsgEarthNet.uav[185] utilizationSecMaintenance 0
scalar OsgEarthNet.uav[185] utilizationSecCharge 0
scalar OsgEarthNet.uav[185] utilizationSecIdle 259199.999
scalar OsgEarthNet.uav[185] utilizationEnergyMission 0
scalar OsgEarthNet.uav[185] utilizationEnergyMaintenance 0
scalar OsgEarthNet.uav[185] utilizationEnergyCharge 0
scalar OsgEarthNet.uav[185] utilizationEnergyOverdrawMission 0
scalar OsgEarthNet.uav[185] utilizationEnergyOverdrawMaintenance 0
scalar OsgEarthNet.uav[185] utilizationCountMissions 0
scalar OsgEarthNet.uav[185] utilizationCountManeuversMission 0
scalar OsgEarthNet.uav[185] utilizationCountManeuversMaintenance 0
scalar OsgEarthNet.uav[185] utilizationCountChargeState 0
scalar OsgEarthNet.uav[185] utilizationCountOverdrawnAfterMission 0
scalar OsgEarthNet.uav[185] utilizationCountIdleState 1
scalar OsgEarthNet.uav[185] utilizationFail 0
scalar OsgEarthNet.uav[185] simulationTime 259200
scalar OsgEarthNet.uav[186] utilizationSecMission 0
scalar OsgEarthNet.uav[186] utilizationSecMaintenance 0
scalar OsgEarthNet.uav[186] utilizationSecCharge 0
scalar OsgEarthNet.uav[186] utilizationSecIdle 259199.999
scalar OsgEarthNet.uav[186] utilizationEnergyMission 0
scalar OsgEarthNet.uav[186] utilizationEnergyMaintenance 0
scalar OsgEarthNet.uav[186] utilizationEnergyCharge 0
scalar OsgEarthNet.uav[186] utilizationEnergyOverdrawMission 0
scalar OsgEarthNet.uav[186] utilizationEnergyOverdrawMaintenance 0
scalar OsgEarthNet.uav[186] utilizationCountMissions 0
scalar OsgEarthNet.uav[186] utilizationCountManeuversMission 0
scalar OsgEarthNet.uav[186] utilizationCountManeuversMaintenance 0
scalar OsgEarthNet.uav[186] utilizationCountChargeState 0
scalar OsgEarthNet.uav[186] utilizationCountOverdrawnAfterMission 0
scalar OsgEarthNet.uav[186] utilizationCountIdleState 1
scalar OsgEarthNet.uav[186] utilizationFail 0
scalar OsgEarthNet.uav[186] simulationTime 259200
scalar OsgEarthNet.uav[187] utilizationSecMission 0
scalar OsgEarthNet.uav[187] utilizationSecMaintenance 0
scalar OsgEarthNet.uav[187] utilizationSecCharge 0
scalar OsgEarthNet.uav[187] utilizationSecIdle 259199.999
scalar OsgEarthNet.uav[187] utilizationEnergyMission 0
scalar OsgEarthNet.uav[187] utilizationEnergyMaintenance 0
scalar OsgEarthNet.uav[187] utilizationEnergyCharge 0
scalar OsgEarthNet.uav[187] utilizationEnergyOverdrawMission 0
scalar OsgEarthNet.uav[187] utilizationEnergyOverdrawMaintenance 0
scalar OsgEarthNet.uav[187] utilizationCountMissions 0
scalar OsgEarthNet.uav[187] utilizationCountManeuversMission 0
scalar OsgEarthNet.uav[187] utilizationCountManeuversMaintenance 0
scalar OsgEarthNet.uav[187] utilizationCountChargeState 0
scalar OsgEarthNet.uav[187] utilizationCountOverdrawnAfterMission 0
scalar OsgEarthNet.uav[187] utilizationCountIdleState 1
scalar OsgEarthNet.uav[187] utilizationFail 0
scalar OsgEarthNet.uav[187] simulationTime 259200
scalar OsgEarthNet.uav[188] utilizationSecMission 0
scalar OsgEarthNet.uav[188] utilizationSecMaintenance 0
scalar OsgEarthNet.uav[188] utilizationSecCharge 0
scalar OsgEarthNet.uav[188] utilizationSecIdle 259199.999
scalar OsgEarthNet.uav[188] utilizationEnergyMission 0
scalar OsgEarthNet.uav[188] utilizationEnergyMaintenance 0
scalar OsgEarthNet.uav[188] utilizationEnergyCharge 0
scalar OsgEarthNet.uav[188] utilizationEnergyOverdrawMission 0
scalar OsgEarthNet.uav[188] utilizationEnergyOverdrawMaintenance 0
scalar OsgEarthNet.uav[188] utilizationCountMissions 0
scalar OsgEarthNet.uav[188] utilizationCountManeuversMission 0
scalar OsgEarthNet.uav[188] utilizationCountManeuversMaintenance 0
scalar OsgEarthNet.uav[188] utilizationCountChargeState 0
scalar OsgEarthNet.uav[188] utilizationCountOverdrawnAfterMission 0
scalar OsgEarthNet.uav[188] utilizationCountIdleState 1
scalar OsgEarthNet.uav[188] utilizationFail 0
scalar OsgEarthNet.uav[188] simulationTime 259200
scalar OsgEarthNet.uav[189] utilizationSecMission 0
scalar OsgEarthNet.uav[189] utilizationSecMaintenance 0
scalar OsgEarthNet.uav[189] utilizationSecCharge 0
scalar OsgEarthNet.uav[189] utilizationSecIdle 259199.999
scalar OsgEarthNet.uav[189] utilizationEnergyMission 0
scalar OsgEarthNet.uav[189] utilizationEnergyMaintenance 0
scalar OsgEarthNet.uav[189] utilizationEnergyCharge 0
scalar OsgEarthNet.uav[189] utilizationEnergyOverdrawMission 0
scalar OsgEarthNet.uav[189] utilizationEnergyOverdrawMaintenance 0
scalar OsgEarthNet.uav[189] utilizationCountMissions 0
scalar OsgEarthNet.uav[189] utilizationCountManeuversMission 0
scalar OsgEarthNet.uav[189] utilizationCountManeuversMaintenance 0
scalar OsgEarthNet.uav[189] utilizationCountChargeState 0
scalar OsgEarthNet.uav[189] utilizationCountOverdrawnAfterMission 0
scalar OsgEarthNet.uav[189] utilizationCountIdleState 1
scalar OsgEarthNet.uav[189] utilizationFail 0
scalar OsgEarthNet.uav[189] simulationTime 259200
scalar OsgEarthNet.uav[190] utilizationSecMission 0
scalar OsgEarthNet.uav[190] utilizationSecMaintenance 0
scalar OsgEarthNet.uav[190] utilizationSecCharge 0
scalar OsgEarthNet.uav[190] utilizationSecIdle 259199.999
scalar OsgEarthNet.uav[190] utilizationEnergyMission 0
scalar OsgEarthNet.uav[190] utilizationEnergyMaintenance 0
scalar OsgEarthNet.uav[190] utilizationEnergyCharge 0
scalar OsgEarthNet.uav[190] utilizationEnergyOverdrawMission 0
scalar OsgEarthNet.uav[190] utilizationEnergyOverdrawMaintenance 0
scalar OsgEarthNet.uav[190] utilizationCountMissions 0
scalar OsgEarthNet.uav[190] utilizationCountManeuversMission 0
scalar OsgEarthNet.uav[190] utilizationCountManeuversMaintenance 0
scalar OsgEarthNet.uav[190] utilizationCountChargeState 0
scalar OsgEarthNet.uav[190] utilizationCountOverdrawnAfterMission 0
scalar OsgEarthNet.uav[190] utilizationCountIdleState 1
scalar OsgEarthNet.uav[190] utilizationFail 0
scalar OsgEarthNet.uav[190] simulationTime 259200
scalar OsgEarthNet.uav[191] utilizationSecMission 0
scalar OsgEarthNet.uav[191] utilizationSecMaintenance 0
scalar OsgEarthNet.uav[191] utilizationSecCharge 0
scalar OsgEarthNet.uav[191] utilizationSecIdle 259199.999
scalar OsgEarthNet.uav[191] utilizationEnergyMission 0
scalar OsgEarthNet.uav[191] utilizationEnergyMaintenance 0
scalar OsgEarthNet.uav[191] utilizationEnergyCharge 0
scalar OsgEarthNet.uav[191] utilizationEnergyOverdrawMission 0
scalar OsgEarthNet.uav[191] utilizationEnergyOverdrawMaintenance 0
scalar OsgEarthNet.uav[191] utilizationCountMissions 0
scalar OsgEarthNet.uav[191] utilizationCountManeuversMission 0
scalar OsgEarthNet.uav[191] utilizationCountManeuversMaintenance 0
scalar OsgEarthNet.uav[191] utilizationCountChargeState 0
scalar OsgEarthNet.uav[191] utilizationCountOverdrawnAfterMission 0
scalar OsgEarthNet.uav[191] utilizationCountIdleState 1
scalar OsgEarthNet.uav[191] utilizationFail 0
scalar OsgEarthNet.uav[191] simulationTime 259200
scalar OsgEarthNet.uav[192] utilizationSecMission 0
scalar OsgEarthNet.uav[192] utilizationSecMaintenance 0
scalar OsgEarthNet.uav[192] utilizationSecCharge 0
scalar OsgEarthNet.uav[192] utilizationSecIdle 259199.999
scalar OsgEarthNet.uav[192] utilizationEnergyMission 0
scalar OsgEarthNet.uav[192] utilizationEnergyMaintenance 0
scalar OsgEarthNet.uav[192] utilizationEnergyCharge 0
scalar OsgEarthNet.uav[192] utilizationEnergyOverdrawMission 0
scalar OsgEarthNet.uav[192] utilizationEnergyOverdrawMaintenance 0
scalar OsgEarthNet.uav[192] utilizationCountMissions 0
scalar OsgEarthNet.uav[192] utilizationCountManeuversMission 0
scalar OsgEarthNet.uav[192] utilizationCountManeuversMaintenance 0
scalar OsgEarthNet.uav[192] utilizationCountChargeState 0
scalar OsgEarthNet.uav[192] utilizationCountOverdrawnAfterMission 0
scalar OsgEarthNet.uav[192] utilizationCountIdleState 1
scalar OsgEarthNet.uav[192] utilizationFail 0
scalar OsgEarthNet.uav[192] simulationTime 259200
scalar OsgEarthNet.uav[193] utilizationSecMission 0
scalar OsgEarthNet.uav[193] utilizationSecMaintenance 0
scalar OsgEarthNet.uav[193] utilizationSecCharge 0
scalar OsgEarthNet.uav[193] utilizationSecIdle 259199.999
scalar OsgEarthNet.uav[193] utilizationEnergyMission 0
scalar OsgEarthNet.uav[193] utilizationEnergyMaintenance 0
scalar OsgEarthNet.uav[193] utilizationEnergyCharge 0
scalar OsgEarthNet.uav[193] utilizationEnergyOverdrawMission 0
scalar OsgEarthNet.uav[193] utilizationEnergyOverdrawMaintenance 0
scalar OsgEarthNet.uav[193] utilizationCountMissions 0
scalar OsgEarthNet.uav[193] utilizationCountManeuversMission 0
scalar OsgEarthNet.uav[193] utilizationCountManeuversMaintenance 0
scalar OsgEarthNet.uav[193] utilizationCountChargeState 0
scalar OsgEarthNet.uav[193] utilizationCountOverdrawnAfterMission 0
scalar OsgEarthNet.uav[193] utilizationCountIdleState 1
scalar OsgEarthNet.uav[193] utilizationFail 0
scalar OsgEarthNet.uav[193] simulationTime 259200
scalar OsgEarthNet.uav[194] utilizationSecMission 0
scalar OsgEarthNet.uav[194] utilizationSecMaintenance 0
scalar OsgEarthNet.uav[194] utilizationSecCharge 0
scalar OsgEarthNet.uav[194] utilizationSecIdle 259199.999
scalar OsgEarthNet.uav[194] utilizationEnergyMission 0
scalar OsgEarthNet.uav[194] utilizationEnergyMaintenance 0
scalar OsgEarthNet.uav[194] utilizationEnergyCharge 0
scalar OsgEarthNet.uav[194] utilizationEnergyOverdrawMission 0
scalar OsgEarthNet.uav[194] utilizationEnergyOverdrawMaintenance 0
scalar OsgEarthNet.uav[194] utilizationCountMissions 0
scalar OsgEarthNet.uav[194] utilizationCountManeuversMission 0
scalar OsgEarthNet.uav[194] utilizationCountManeuversMaintenance 0
scalar OsgEarthNet.uav[194] utilizationCountChargeState 0
scalar OsgEarthNet.uav[194] utilizationCountOverdrawnAfterMission 0
scalar OsgEarthNet.uav[194] utilizationCountIdleState 1
scalar OsgEarthNet.uav[194] utilizationFail 0
scalar OsgEarthNet.uav[194] simulationTime 259200
scalar OsgEarthNet.uav[195] utilizationSecMission 0
scalar OsgEarthNet.uav[195] utilizationSecMaintenance 0
scalar OsgEarthNet.uav[195] utilizationSecCharge 0
scalar OsgEarthNet.uav[195] utilizationSecIdle 259199.999
scalar OsgEarthNet.uav[195] utilizationEnergyMission 0
scalar OsgEarthNet.uav[195] utilizationEnergyMaintenance 0
scalar OsgEarthNet.uav[195] utilizationEnergyCharge 0
scalar OsgEarthNet.uav[195] utilizationEnergyOverdrawMission 0
scalar OsgEarthNet.uav[195] utilizationEnergyOverdrawMaintenance 0
scalar OsgEarthNet.uav[195] utilizationCountMissions 0
scalar OsgEarthNet.uav[195] utilizationCountManeuversMission 0
scalar OsgEarthNet.uav[195] utilizationCountManeuversMaintenance 0
scalar OsgEarthNet.uav[195] utilizationCountChargeState 0
scalar OsgEarthNet.uav[195] utilizationCountOverdrawnAfterMission 0
scalar OsgEarthNet.uav[195] utilizationCountIdleState 1
scalar OsgEarthNet.uav[195] utilizationFail 0
scalar OsgEarthNet.uav[195] simulationTime 259200
scalar OsgEarthNet.uav[196] utilizationSecMission 0
scalar OsgEarthNet.uav[196] utilizationSecMaintenance 0
scalar OsgEarthNet.uav[196] utilizationSecCharge 0
scalar OsgEarthNet.uav[196] utilizationSecIdle 259199.999
scalar OsgEarthNet.uav[196] utilizationEnergyMission 0
scalar OsgEarthNet.uav[196] utilizationEnergyMaintenance 0
scalar OsgEarthNet.uav[196] utilizationEnergyCharge 0
scalar OsgEarthNet.uav[196] utilizationEnergyOverdrawMission 0
scalar OsgEarthNet.uav[196] utilizationEnergyOverdrawMaintenance 0
scalar OsgEarthNet.uav[196] utilizationCountMissions 0
scalar OsgEarthNet.uav[196] utilizationCountManeuversMission 0
scalar OsgEarthNet.uav[196] utilizationCountManeuversMaintenance 0
scalar OsgEarthNet.uav[196] utilizationCountChargeState 0
scalar OsgEarthNet.uav[196] utilizationCountOverdrawnAfterMission 0
scalar OsgEarthNet.uav[196] utilizationCountIdleState 1
scalar OsgEarthNet.uav[196] utilizationFail 0
scalar OsgEarthNet.uav[196] simulationTime 259200
scalar OsgEarthNet.uav[197] utilizationSecMission 0
scalar OsgEarthNet.uav[197] utilizationSecMaintenance 0
scalar OsgEarthNet.uav[197] utilizationSecCharge 0
scalar OsgEarthNet.uav[197] utilizationSecIdle 259199.999
scalar OsgEarthNet.uav[197] utilizationEnergyMission 0
scalar OsgEarthNet.uav[197] utilizationEnergyMaintenance 0
scalar OsgEarthNet.uav[197] utilizationEnergyCharge 0
scalar OsgEarthNet.uav[197] utilizationEnergyOverdrawMission 0
scalar OsgEarthNet.uav[197] utilizationEnergyOverdrawMaintenance 0
scalar OsgEarthNet.uav[197] utilizationCountMissions 0
scalar OsgEarthNet.uav[197] utilizationCountManeuversMission 0
scalar OsgEarthNet.uav[197] utilizationCountManeuversMaintenance 0
scalar OsgEarthNet.uav[197] utilizationCountChargeState 0
scalar OsgEarthNet.uav[197] utilizationCountOverdrawnAfterMission 0
scalar OsgEarthNet.uav[197] utilizationCountIdleState 1
scalar OsgEarthNet.uav[197] utilizationFail 0
scalar OsgEarthNet.uav[197] simulationTime 259200
scalar OsgEarthNet.uav[198] utilizationSecMission 0
scalar OsgEarthNet.uav[198] utilizationSecMaintenance 0
scalar OsgEarthNet.uav[198] utilizationSecCharge 0
scalar OsgEarthNet.uav[198] utilizationSecIdle 259199.999
scalar OsgEarthNet.uav[198] utilizationEnergyMission 0
scalar OsgEarthNet.uav[198] utilizationEnergyMaintenance 0
scalar OsgEarthNet.uav[198] utilizationEnergyCharge 0
scalar OsgEarthNet.uav[198] utilizationEnergyOverdrawMission 0
scalar OsgEarthNet.uav[198] utilizationEnergyOverdrawMaintenance 0
scalar OsgEarthNet.uav[198] utilizationCountMissions 0
scalar OsgEarthNet.uav[198] utilizationCountManeuversMission 0
scalar OsgEarthNet.uav[198] utilizationCountManeuversMaintenance 0
scalar OsgEarthNet.uav[198] utilizationCountChargeState 0
scalar OsgEarthNet.uav[198] utilizationCountOverdrawnAfterMission 0
scalar OsgEarthNet.uav[198] utilizationCountIdleState 1
scalar OsgEarthNet.uav[198] utilizationFail 0
scalar OsgEarthNet.uav[198] simulationTime 259200
scalar OsgEarthNet.uav[199] utilizationSecMission 0
scalar OsgEarthNet.uav[199] utilizationSecMaintenance 0
scalar OsgEarthNet.uav[199] utilizationSecCharge 0
scalar OsgEarthNet.uav[199] utilizationSecIdle 259199.999
scalar OsgEarthNet.uav[199] utilizationEnergyMission 0
scalar OsgEarthNet.uav[199] utilizationEnergyMaintenance 0
scalar OsgEarthNet.uav[199] utilizationEnergyCharge 0
scalar OsgEarthNet.uav[199] utilizationEnergyOverdrawMission 0
scalar OsgEarthNet.uav[199] utilizationEnergyOverdrawMaintenance 0
scalar OsgEarthNet.uav[199] utilizationCountMissions 0
scalar OsgEarthNet.uav[199] utilizationCountManeuversMission 0
scalar OsgEarthNet.uav[199] utilizationCountManeuversMaintenance 0
scalar OsgEarthNet.uav[199] utilizationCountChargeState 0
scalar OsgEarthNet.uav[199] utilizationCountOverdrawnAfterMission 0
scalar OsgEarthNet.uav[199] utilizationCountIdleState 1
scalar OsgEarthNet.uav[199] utilizationFail 0
scalar OsgEarthNet.uav[199] simulationTime 259200
scalar OsgEarthNet.cs[0] usedPower 4024408.4763696
scalar OsgEarthNet.cs[0] chargedPower 4024408.4763696
scalar OsgEarthNet.cs[0] chargedMobileNodes 879
scalar OsgEarthNet.cs[0] reservations 892
scalar OsgEarthNet.cs[1] usedPower 4162736.9822376
scalar OsgEarthNet.cs[1] chargedPower 4162736.9822376
scalar OsgEarthNet.cs[1] chargedMobileNodes 1040
scalar OsgEarthNet.cs[1] reservations 1053
scalar OsgEarthNet.cs[2] usedPower 8671459.3973764
scalar OsgEarthNet.cs[2] chargedPower 8671459.3973764
scalar OsgEarthNet.cs[2] chargedMobileNodes 285
scalar OsgEarthNet.cs[2] reservations 1896

