version 2
run Szenario_Hotel_Gabelbach-314-20180719-12:47:04-30500
attr configname Szenario_Hotel_Gabelbach
attr datetime 20180719-12:47:04
attr experiment Szenario_Hotel_Gabelbach
attr inifile omnetpp.ini
attr iterationvars "$replM=2, $biWeight=0.35, $replSearchM=1, $numUAVs=78"
attr iterationvarsf replM=2,biWeight=0.35,replSearchM=1,numUAVs=78-
attr measurement "$replM=2, $biWeight=0.35, $replSearchM=1, $numUAVs=78"
attr network OsgEarthNet
attr processid 30500
attr repetition 2
attr replication #2
attr resultdir results
attr runnumber 314
attr seedset 314
itervar biWeight 0.35
itervar numUAVs 78
itervar replM 2
itervar replSearchM 1
param *.osgEarthScene.scene "\"Szenario_Hotel_Gabelbach.earth\""
param *.playgroundLatitude 50.6830269
param *.playgroundLongitude 10.8538055
param *.playgroundWidth 3500m
param *.playgroundHeight 3500m
param *.cs[0].posX 3537m
param *.cs[0].posY 965m
param *.cs[0].posZ 538m
param *.cs[1].posX 312m
param *.cs[1].posY 1262m
param *.cs[1].posZ 539m
param *.cs[2].posX 2185m
param *.cs[2].posY 3026m
param *.cs[2].posZ 777m
param *.cs[3].posX 10m
param *.cs[3].posY 2200m
param *.cs[3].posZ 560m
param *.cs[4].posX 750m
param *.cs[4].posY 200m
param *.cs[4].posZ 540m
param *.cs[5].posX 2450m
param *.cs[5].posY 180m
param *.cs[5].posZ 524m
param *.cs[6].posX 3140m
param *.cs[6].posY 1790m
param *.cs[6].posZ 606m
param *.numCSs 3
param *.uav[*].replacementMethod 2
param *.uav[*].weightedSumWeight 0.35
param *.missionControl.replacementSearchMethod 1
param *.numUAVs 78
param *.*.timeStep 10s
param *.uav[*].commandPreviewCommandCount 20
param *.missionControl.missionFiles "\"missions\\\\Szenario_WB_Hotel_Gabelbach_Mission_Hotel.waypoints,missions\\\\Szenario_WB_Hotel_Gabelbach_Mission_Kickelhahn.waypoints,missions\\\\Szenario_WB_Hotel_Gabelbach_Mission_Ilmenau_Sportplatz.waypoints,missions\\\\Szenario_WB_Hotel_Gabelbach_Mission_Manebach_Mitte.waypoints,missions\\\\Szenario_WB_Hotel_Gabelbach_Mission_Manebach_Sued.waypoints,missions\\\\Szenario_WB_Hotel_Gabelbach_Hover_HoheSchlaufe.waypoints,missions\\\\Szenario_WB_Hotel_Gabelbach_Hover_Kickelhahn.waypoints,missions\\\\Szenario_WB_Hotel_Gabelbach_Hover_Gabelbachskopf.waypoints,missions\\\\Szenario_WB_Hotel_Gabelbach_Hover_Dachskopf.waypoints\""
param *.uav[0].startX 3537m
param *.uav[0].startY 965m
param *.uav[0].startZ 539m
param *.uav[1].startX 312m
param *.uav[1].startY 1262m
param *.uav[1].startZ 540m
param *.uav[2].startX 2185m
param *.uav[2].startY 3026m
param *.uav[2].startZ 778m
param *.uav[3].startX 3537m
param *.uav[3].startY 965m
param *.uav[3].startZ 539m
param *.uav[4].startX 312m
param *.uav[4].startY 1262m
param *.uav[4].startZ 540m
param *.uav[5].startX 2185m
param *.uav[5].startY 3026m
param *.uav[5].startZ 778m
param *.uav[6].startX 3537m
param *.uav[6].startY 965m
param *.uav[6].startZ 539m
param *.uav[7].startX 312m
param *.uav[7].startY 1262m
param *.uav[7].startZ 540m
param *.uav[8].startX 2185m
param *.uav[8].startY 3026m
param *.uav[8].startZ 778m
param *.uav[9].startX 3537m
param *.uav[9].startY 965m
param *.uav[9].startZ 539m
param *.uav[10].startX 3537m
param *.uav[10].startY 965m
param *.uav[10].startZ 539m
param *.uav[11].startX 312m
param *.uav[11].startY 1262m
param *.uav[11].startZ 540m
param *.uav[12].startX 2185m
param *.uav[12].startY 3026m
param *.uav[12].startZ 778m
param *.uav[13].startX 3537m
param *.uav[13].startY 965m
param *.uav[13].startZ 539m
param *.uav[14].startX 312m
param *.uav[14].startY 1262m
param *.uav[14].startZ 540m
param *.uav[15].startX 2185m
param *.uav[15].startY 3026m
param *.uav[15].startZ 778m
param *.uav[16].startX 3537m
param *.uav[16].startY 965m
param *.uav[16].startZ 539m
param *.uav[17].startX 312m
param *.uav[17].startY 1262m
param *.uav[17].startZ 540m
param *.uav[18].startX 2185m
param *.uav[18].startY 3026m
param *.uav[18].startZ 778m
param *.uav[19].startX 3537m
param *.uav[19].startY 965m
param *.uav[19].startZ 539m
param *.uav[20].startX 3537m
param *.uav[20].startY 965m
param *.uav[20].startZ 539m
param *.uav[21].startX 312m
param *.uav[21].startY 1262m
param *.uav[21].startZ 540m
param *.uav[22].startX 2185m
param *.uav[22].startY 3026m
param *.uav[22].startZ 778m
param *.uav[23].startX 3537m
param *.uav[23].startY 965m
param *.uav[23].startZ 539m
param *.uav[24].startX 312m
param *.uav[24].startY 1262m
param *.uav[24].startZ 540m
param *.uav[25].startX 2185m
param *.uav[25].startY 3026m
param *.uav[25].startZ 778m
param *.uav[26].startX 3537m
param *.uav[26].startY 965m
param *.uav[26].startZ 539m
param *.uav[27].startX 312m
param *.uav[27].startY 1262m
param *.uav[27].startZ 540m
param *.uav[28].startX 2185m
param *.uav[28].startY 3026m
param *.uav[28].startZ 778m
param *.uav[29].startX 3537m
param *.uav[29].startY 965m
param *.uav[29].startZ 539m
param *.uav[30].startX 3537m
param *.uav[30].startY 965m
param *.uav[30].startZ 539m
param *.uav[31].startX 312m
param *.uav[31].startY 1262m
param *.uav[31].startZ 540m
param *.uav[32].startX 2185m
param *.uav[32].startY 3026m
param *.uav[32].startZ 778m
param *.uav[33].startX 3537m
param *.uav[33].startY 965m
param *.uav[33].startZ 539m
param *.uav[34].startX 312m
param *.uav[34].startY 1262m
param *.uav[34].startZ 540m
param *.uav[35].startX 2185m
param *.uav[35].startY 3026m
param *.uav[35].startZ 778m
param *.uav[36].startX 3537m
param *.uav[36].startY 965m
param *.uav[36].startZ 539m
param *.uav[37].startX 312m
param *.uav[37].startY 1262m
param *.uav[37].startZ 540m
param *.uav[38].startX 2185m
param *.uav[38].startY 3026m
param *.uav[38].startZ 778m
param *.uav[39].startX 3537m
param *.uav[39].startY 965m
param *.uav[39].startZ 539m
param *.uav[40].startX 3537m
param *.uav[40].startY 965m
param *.uav[40].startZ 539m
param *.uav[41].startX 312m
param *.uav[41].startY 1262m
param *.uav[41].startZ 540m
param *.uav[42].startX 2185m
param *.uav[42].startY 3026m
param *.uav[42].startZ 778m
param *.uav[43].startX 3537m
param *.uav[43].startY 965m
param *.uav[43].startZ 539m
param *.uav[44].startX 312m
param *.uav[44].startY 1262m
param *.uav[44].startZ 540m
param *.uav[45].startX 2185m
param *.uav[45].startY 3026m
param *.uav[45].startZ 778m
param *.uav[46].startX 3537m
param *.uav[46].startY 965m
param *.uav[46].startZ 539m
param *.uav[47].startX 312m
param *.uav[47].startY 1262m
param *.uav[47].startZ 540m
param *.uav[48].startX 2185m
param *.uav[48].startY 3026m
param *.uav[48].startZ 778m
param *.uav[49].startX 3537m
param *.uav[49].startY 965m
param *.uav[49].startZ 539m
param *.uav[50].startX 3537m
param *.uav[50].startY 965m
param *.uav[50].startZ 539m
param *.uav[51].startX 312m
param *.uav[51].startY 1262m
param *.uav[51].startZ 540m
param *.uav[52].startX 2185m
param *.uav[52].startY 3026m
param *.uav[52].startZ 778m
param *.uav[53].startX 3537m
param *.uav[53].startY 965m
param *.uav[53].startZ 539m
param *.uav[54].startX 312m
param *.uav[54].startY 1262m
param *.uav[54].startZ 540m
param *.uav[55].startX 2185m
param *.uav[55].startY 3026m
param *.uav[55].startZ 778m
param *.uav[56].startX 3537m
param *.uav[56].startY 965m
param *.uav[56].startZ 539m
param *.uav[57].startX 312m
param *.uav[57].startY 1262m
param *.uav[57].startZ 540m
param *.uav[58].startX 2185m
param *.uav[58].startY 3026m
param *.uav[58].startZ 778m
param *.uav[59].startX 3537m
param *.uav[59].startY 965m
param *.uav[59].startZ 539m
param *.uav[60].startX 3537m
param *.uav[60].startY 965m
param *.uav[60].startZ 539m
param *.uav[61].startX 312m
param *.uav[61].startY 1262m
param *.uav[61].startZ 540m
param *.uav[62].startX 2185m
param *.uav[62].startY 3026m
param *.uav[62].startZ 778m
param *.uav[63].startX 3537m
param *.uav[63].startY 965m
param *.uav[63].startZ 539m
param *.uav[64].startX 312m
param *.uav[64].startY 1262m
param *.uav[64].startZ 540m
param *.uav[65].startX 2185m
param *.uav[65].startY 3026m
param *.uav[65].startZ 778m
param *.uav[66].startX 3537m
param *.uav[66].startY 965m
param *.uav[66].startZ 539m
param *.uav[67].startX 312m
param *.uav[67].startY 1262m
param *.uav[67].startZ 540m
param *.uav[68].startX 2185m
param *.uav[68].startY 3026m
param *.uav[68].startZ 778m
param *.uav[69].startX 3537m
param *.uav[69].startY 965m
param *.uav[69].startZ 539m
param *.uav[70].startX 3537m
param *.uav[70].startY 965m
param *.uav[70].startZ 539m
param *.uav[71].startX 312m
param *.uav[71].startY 1262m
param *.uav[71].startZ 540m
param *.uav[72].startX 2185m
param *.uav[72].startY 3026m
param *.uav[72].startZ 778m
param *.uav[73].startX 3537m
param *.uav[73].startY 965m
param *.uav[73].startZ 539m
param *.uav[74].startX 312m
param *.uav[74].startY 1262m
param *.uav[74].startZ 540m
param *.uav[75].startX 2185m
param *.uav[75].startY 3026m
param *.uav[75].startZ 778m
param *.uav[76].startX 3537m
param *.uav[76].startY 965m
param *.uav[76].startZ 539m
param *.uav[77].startX 312m
param *.uav[77].startY 1262m
param *.uav[77].startZ 540m
param *.uav[78].startX 2185m
param *.uav[78].startY 3026m
param *.uav[78].startZ 778m
param *.uav[79].startX 3537m
param *.uav[79].startY 965m
param *.uav[79].startZ 539m
param *.uav[80].startX 3537m
param *.uav[80].startY 965m
param *.uav[80].startZ 539m
param *.uav[81].startX 312m
param *.uav[81].startY 1262m
param *.uav[81].startZ 540m
param *.uav[82].startX 2185m
param *.uav[82].startY 3026m
param *.uav[82].startZ 778m
param *.uav[83].startX 3537m
param *.uav[83].startY 965m
param *.uav[83].startZ 539m
param *.uav[84].startX 312m
param *.uav[84].startY 1262m
param *.uav[84].startZ 540m
param *.uav[85].startX 2185m
param *.uav[85].startY 3026m
param *.uav[85].startZ 778m
param *.uav[86].startX 3537m
param *.uav[86].startY 965m
param *.uav[86].startZ 539m
param *.uav[87].startX 312m
param *.uav[87].startY 1262m
param *.uav[87].startZ 540m
param *.uav[88].startX 2185m
param *.uav[88].startY 3026m
param *.uav[88].startZ 778m
param *.uav[89].startX 3537m
param *.uav[89].startY 965m
param *.uav[89].startZ 539m
param *.uav[90].startX 3537m
param *.uav[90].startY 965m
param *.uav[90].startZ 539m
param *.uav[91].startX 312m
param *.uav[91].startY 1262m
param *.uav[91].startZ 540m
param *.uav[92].startX 2185m
param *.uav[92].startY 3026m
param *.uav[92].startZ 778m
param *.uav[93].startX 3537m
param *.uav[93].startY 965m
param *.uav[93].startZ 539m
param *.uav[94].startX 312m
param *.uav[94].startY 1262m
param *.uav[94].startZ 540m
param *.uav[95].startX 2185m
param *.uav[95].startY 3026m
param *.uav[95].startZ 778m
param *.uav[96].startX 3537m
param *.uav[96].startY 965m
param *.uav[96].startZ 539m
param *.uav[97].startX 312m
param *.uav[97].startY 1262m
param *.uav[97].startZ 540m
param *.uav[98].startX 2185m
param *.uav[98].startY 3026m
param *.uav[98].startZ 778m
param *.uav[99].startX 3537m
param *.uav[99].startY 965m
param *.uav[99].startZ 539m
param *.osgEarthScene.scene "\"boston.earth\""
param *.playgroundLatitude 42.3558
param *.playgroundLongitude -71.0677
param *.playgroundWidth 400m
param *.playgroundHeight 200m
param *.channelController.connectionColor "\"#0000FF40\""
param *.channelController.showConnections false
param *.uav[*].modelURL "\"quadrocopter.small.obj.15.scale.0,0,90.rot\""
param *.uav[*].labelColor "\"#FF7C00CC\""
param *.uav[*].label2Color "\"#FF7C00EE\""
param *.uav[*].batteryCapacity 5200mAh
param *.uav[*].batteryRemaining uav[index].batteryCapacity
param *.uav[*].predictionQuantile 0.95
param *.uav[*].replacementMethod 2
param *.uav[*].weightedSumWeight 0.5
param *.cs[*].modelURL "\"chargingstation_v1.osgt.2.scale.0,0,0.rot.0,0,-15e-1.trans\""
param *.cs[*].spotsWaiting 999
param *.cs[*].spotsCharging 999
param *.cs[*].chargeEffectivenessPercentage 100
param *.cs[*].nonLinearPhaseStartPercentage 85
param *.cs[*].chargeCurrent 6.0A
param *.cs[*].prioritizeFastCharge true
param *.missionControl.replacementSearchMethod 0
param *.*.timeStep 9s

scalar OsgEarthNet.uav[0] utilizationSecMission 15714.008954232
scalar OsgEarthNet.uav[0] utilizationSecMaintenance 12038.819922808
scalar OsgEarthNet.uav[0] utilizationSecCharge 105100
scalar OsgEarthNet.uav[0] utilizationSecIdle 126347.17012296
scalar OsgEarthNet.uav[0] utilizationEnergyMission 78717.740909576
scalar OsgEarthNet.uav[0] utilizationEnergyMaintenance 57314.859352112
scalar OsgEarthNet.uav[0] utilizationEnergyCharge 135324.38574219
scalar OsgEarthNet.uav[0] utilizationEnergyOverdrawMission 0
scalar OsgEarthNet.uav[0] utilizationEnergyOverdrawMaintenance 0
scalar OsgEarthNet.uav[0] utilizationCountMissions 30
scalar OsgEarthNet.uav[0] utilizationCountManeuversMission 625
scalar OsgEarthNet.uav[0] utilizationCountManeuversMaintenance 60
scalar OsgEarthNet.uav[0] utilizationCountChargeState 30
scalar OsgEarthNet.uav[0] utilizationCountOverdrawnAfterMission 0
scalar OsgEarthNet.uav[0] utilizationCountIdleState 31
scalar OsgEarthNet.uav[0] utilizationFail 0
scalar OsgEarthNet.uav[0] simulationTime 259200
scalar OsgEarthNet.uav[1] utilizationSecMission 31212.260295738
scalar OsgEarthNet.uav[1] utilizationSecMaintenance 16782.397965949
scalar OsgEarthNet.uav[1] utilizationSecCharge 182065.32046417
scalar OsgEarthNet.uav[1] utilizationSecIdle 29140.020274145
scalar OsgEarthNet.uav[1] utilizationEnergyMission 148426.21797562
scalar OsgEarthNet.uav[1] utilizationEnergyMaintenance 79879.052299499
scalar OsgEarthNet.uav[1] utilizationEnergyCharge 227726.55517578
scalar OsgEarthNet.uav[1] utilizationEnergyOverdrawMission 0
scalar OsgEarthNet.uav[1] utilizationEnergyOverdrawMaintenance 0
scalar OsgEarthNet.uav[1] utilizationCountMissions 57
scalar OsgEarthNet.uav[1] utilizationCountManeuversMission 758
scalar OsgEarthNet.uav[1] utilizationCountManeuversMaintenance 114
scalar OsgEarthNet.uav[1] utilizationCountChargeState 57
scalar OsgEarthNet.uav[1] utilizationCountOverdrawnAfterMission 0
scalar OsgEarthNet.uav[1] utilizationCountIdleState 55
scalar OsgEarthNet.uav[1] utilizationFail 0
scalar OsgEarthNet.uav[1] simulationTime 259200
scalar OsgEarthNet.uav[2] utilizationSecMission 36083.690502327
scalar OsgEarthNet.uav[2] utilizationSecMaintenance 14104.064882563
scalar OsgEarthNet.uav[2] utilizationSecCharge 181223.0240012
scalar OsgEarthNet.uav[2] utilizationSecIdle 27789.219613916
scalar OsgEarthNet.uav[2] utilizationEnergyMission 176000.70494843
scalar OsgEarthNet.uav[2] utilizationEnergyMaintenance 65568.445968628
scalar OsgEarthNet.uav[2] utilizationEnergyCharge 235909.36523438
scalar OsgEarthNet.uav[2] utilizationEnergyOverdrawMission 0
scalar OsgEarthNet.uav[2] utilizationEnergyOverdrawMaintenance 0
scalar OsgEarthNet.uav[2] utilizationCountMissions 52
scalar OsgEarthNet.uav[2] utilizationCountManeuversMission 1182
scalar OsgEarthNet.uav[2] utilizationCountManeuversMaintenance 104
scalar OsgEarthNet.uav[2] utilizationCountChargeState 52
scalar OsgEarthNet.uav[2] utilizationCountOverdrawnAfterMission 0
scalar OsgEarthNet.uav[2] utilizationCountIdleState 49
scalar OsgEarthNet.uav[2] utilizationFail 0
scalar OsgEarthNet.uav[2] simulationTime 259200
scalar OsgEarthNet.uav[3] utilizationSecMission 10024.376068062
scalar OsgEarthNet.uav[3] utilizationSecMaintenance 6001.0539568072
scalar OsgEarthNet.uav[3] utilizationSecCharge 60180
scalar OsgEarthNet.uav[3] utilizationSecIdle 182994.56897513
scalar OsgEarthNet.uav[3] utilizationEnergyMission 48254.530025482
scalar OsgEarthNet.uav[3] utilizationEnergyMaintenance 28691.235332489
scalar OsgEarthNet.uav[3] utilizationEnergyCharge 77897.486328125
scalar OsgEarthNet.uav[3] utilizationEnergyOverdrawMission 0
scalar OsgEarthNet.uav[3] utilizationEnergyOverdrawMaintenance 0
scalar OsgEarthNet.uav[3] utilizationCountMissions 17
scalar OsgEarthNet.uav[3] utilizationCountManeuversMission 319
scalar OsgEarthNet.uav[3] utilizationCountManeuversMaintenance 34
scalar OsgEarthNet.uav[3] utilizationCountChargeState 17
scalar OsgEarthNet.uav[3] utilizationCountOverdrawnAfterMission 0
scalar OsgEarthNet.uav[3] utilizationCountIdleState 18
scalar OsgEarthNet.uav[3] utilizationFail 0
scalar OsgEarthNet.uav[3] simulationTime 259200
scalar OsgEarthNet.uav[4] utilizationSecMission 30492.465580324
scalar OsgEarthNet.uav[4] utilizationSecMaintenance 17559.200666861
scalar OsgEarthNet.uav[4] utilizationSecCharge 183654.52983938
scalar OsgEarthNet.uav[4] utilizationSecIdle 27493.802913431
scalar OsgEarthNet.uav[4] utilizationEnergyMission 146646.05212021
scalar OsgEarthNet.uav[4] utilizationEnergyMaintenance 83495.401023865
scalar OsgEarthNet.uav[4] utilizationEnergyCharge 229425.765625
scalar OsgEarthNet.uav[4] utilizationEnergyOverdrawMission 0
scalar OsgEarthNet.uav[4] utilizationEnergyOverdrawMaintenance 0
scalar OsgEarthNet.uav[4] utilizationCountMissions 57
scalar OsgEarthNet.uav[4] utilizationCountManeuversMission 854
scalar OsgEarthNet.uav[4] utilizationCountManeuversMaintenance 114
scalar OsgEarthNet.uav[4] utilizationCountChargeState 57
scalar OsgEarthNet.uav[4] utilizationCountOverdrawnAfterMission 0
scalar OsgEarthNet.uav[4] utilizationCountIdleState 55
scalar OsgEarthNet.uav[4] utilizationFail 0
scalar OsgEarthNet.uav[4] simulationTime 259200
scalar OsgEarthNet.uav[5] utilizationSecMission 35439.981663806
scalar OsgEarthNet.uav[5] utilizationSecMaintenance 15080.055987727
scalar OsgEarthNet.uav[5] utilizationSecCharge 183257.96134847
scalar OsgEarthNet.uav[5] utilizationSecIdle 25422
scalar OsgEarthNet.uav[5] utilizationEnergyMission 174359.70433044
scalar OsgEarthNet.uav[5] utilizationEnergyMaintenance 68663.758815765
scalar OsgEarthNet.uav[5] utilizationEnergyCharge 237644.40582275
scalar OsgEarthNet.uav[5] utilizationEnergyOverdrawMission 0
scalar OsgEarthNet.uav[5] utilizationEnergyOverdrawMaintenance 0
scalar OsgEarthNet.uav[5] utilizationCountMissions 53
scalar OsgEarthNet.uav[5] utilizationCountManeuversMission 1144
scalar OsgEarthNet.uav[5] utilizationCountManeuversMaintenance 106
scalar OsgEarthNet.uav[5] utilizationCountChargeState 53
scalar OsgEarthNet.uav[5] utilizationCountOverdrawnAfterMission 0
scalar OsgEarthNet.uav[5] utilizationCountIdleState 52
scalar OsgEarthNet.uav[5] utilizationFail 0
scalar OsgEarthNet.uav[5] simulationTime 259200
scalar OsgEarthNet.uav[6] utilizationSecMission 6501.8754577408
scalar OsgEarthNet.uav[6] utilizationSecMaintenance 4616.1740660163
scalar OsgEarthNet.uav[6] utilizationSecCharge 41890
scalar OsgEarthNet.uav[6] utilizationSecIdle 206191.94947624
scalar OsgEarthNet.uav[6] utilizationEnergyMission 32139.276573181
scalar OsgEarthNet.uav[6] utilizationEnergyMaintenance 21952.653530121
scalar OsgEarthNet.uav[6] utilizationEnergyCharge 53904.161621094
scalar OsgEarthNet.uav[6] utilizationEnergyOverdrawMission 0
scalar OsgEarthNet.uav[6] utilizationEnergyOverdrawMaintenance 0
scalar OsgEarthNet.uav[6] utilizationCountMissions 12
scalar OsgEarthNet.uav[6] utilizationCountManeuversMission 247
scalar OsgEarthNet.uav[6] utilizationCountManeuversMaintenance 24
scalar OsgEarthNet.uav[6] utilizationCountChargeState 12
scalar OsgEarthNet.uav[6] utilizationCountOverdrawnAfterMission 0
scalar OsgEarthNet.uav[6] utilizationCountIdleState 13
scalar OsgEarthNet.uav[6] utilizationFail 0
scalar OsgEarthNet.uav[6] simulationTime 259200
scalar OsgEarthNet.uav[7] utilizationSecMission 31274.476594506
scalar OsgEarthNet.uav[7] utilizationSecMaintenance 17513.521405494
scalar OsgEarthNet.uav[7] utilizationSecCharge 184740
scalar OsgEarthNet.uav[7] utilizationSecIdle 25672.001
scalar OsgEarthNet.uav[7] utilizationEnergyMission 152292.48893826
scalar OsgEarthNet.uav[7] utilizationEnergyMaintenance 83731.110034943
scalar OsgEarthNet.uav[7] utilizationEnergyCharge 233905.39770508
scalar OsgEarthNet.uav[7] utilizationEnergyOverdrawMission 0
scalar OsgEarthNet.uav[7] utilizationEnergyOverdrawMaintenance 0
scalar OsgEarthNet.uav[7] utilizationCountMissions 55
scalar OsgEarthNet.uav[7] utilizationCountManeuversMission 989
scalar OsgEarthNet.uav[7] utilizationCountManeuversMaintenance 111
scalar OsgEarthNet.uav[7] utilizationCountChargeState 55
scalar OsgEarthNet.uav[7] utilizationCountOverdrawnAfterMission 0
scalar OsgEarthNet.uav[7] utilizationCountIdleState 55
scalar OsgEarthNet.uav[7] utilizationFail 0
scalar OsgEarthNet.uav[7] simulationTime 259200
scalar OsgEarthNet.uav[8] utilizationSecMission 35261.291001382
scalar OsgEarthNet.uav[8] utilizationSecMaintenance 15257.255039901
scalar OsgEarthNet.uav[8] utilizationSecCharge 183240
scalar OsgEarthNet.uav[8] utilizationSecIdle 25441.452958717
scalar OsgEarthNet.uav[8] utilizationEnergyMission 171779.43537542
scalar OsgEarthNet.uav[8] utilizationEnergyMaintenance 69695.511592865
scalar OsgEarthNet.uav[8] utilizationEnergyCharge 238066.68554688
scalar OsgEarthNet.uav[8] utilizationEnergyOverdrawMission 0
scalar OsgEarthNet.uav[8] utilizationEnergyOverdrawMaintenance 0
scalar OsgEarthNet.uav[8] utilizationCountMissions 52
scalar OsgEarthNet.uav[8] utilizationCountManeuversMission 1190
scalar OsgEarthNet.uav[8] utilizationCountManeuversMaintenance 105
scalar OsgEarthNet.uav[8] utilizationCountChargeState 52
scalar OsgEarthNet.uav[8] utilizationCountOverdrawnAfterMission 0
scalar OsgEarthNet.uav[8] utilizationCountIdleState 49
scalar OsgEarthNet.uav[8] utilizationFail 0
scalar OsgEarthNet.uav[8] simulationTime 259200
scalar OsgEarthNet.uav[9] utilizationSecMission 20487.501830963
scalar OsgEarthNet.uav[9] utilizationSecMaintenance 13853.195554172
scalar OsgEarthNet.uav[9] utilizationSecCharge 128117.29861486
scalar OsgEarthNet.uav[9] utilizationSecIdle 96742.003
scalar OsgEarthNet.uav[9] utilizationEnergyMission 98928.943271637
scalar OsgEarthNet.uav[9] utilizationEnergyMaintenance 66004.502773285
scalar OsgEarthNet.uav[9] utilizationEnergyCharge 165905.61181641
scalar OsgEarthNet.uav[9] utilizationEnergyOverdrawMission 0
scalar OsgEarthNet.uav[9] utilizationEnergyOverdrawMaintenance 0
scalar OsgEarthNet.uav[9] utilizationCountMissions 37
scalar OsgEarthNet.uav[9] utilizationCountManeuversMission 712
scalar OsgEarthNet.uav[9] utilizationCountManeuversMaintenance 74
scalar OsgEarthNet.uav[9] utilizationCountChargeState 37
scalar OsgEarthNet.uav[9] utilizationCountOverdrawnAfterMission 0
scalar OsgEarthNet.uav[9] utilizationCountIdleState 37
scalar OsgEarthNet.uav[9] utilizationFail 0
scalar OsgEarthNet.uav[9] simulationTime 259200
scalar OsgEarthNet.uav[10] utilizationSecMission 15836.618639633
scalar OsgEarthNet.uav[10] utilizationSecMaintenance 9850.9817666271
scalar OsgEarthNet.uav[10] utilizationSecCharge 94930
scalar OsgEarthNet.uav[10] utilizationSecIdle 138582.39859374
scalar OsgEarthNet.uav[10] utilizationEnergyMission 76228.849376678
scalar OsgEarthNet.uav[10] utilizationEnergyMaintenance 46691.717880249
scalar OsgEarthNet.uav[10] utilizationEnergyCharge 122325.16210938
scalar OsgEarthNet.uav[10] utilizationEnergyOverdrawMission 0
scalar OsgEarthNet.uav[10] utilizationEnergyOverdrawMaintenance 0
scalar OsgEarthNet.uav[10] utilizationCountMissions 27
scalar OsgEarthNet.uav[10] utilizationCountManeuversMission 510
scalar OsgEarthNet.uav[10] utilizationCountManeuversMaintenance 54
scalar OsgEarthNet.uav[10] utilizationCountChargeState 27
scalar OsgEarthNet.uav[10] utilizationCountOverdrawnAfterMission 0
scalar OsgEarthNet.uav[10] utilizationCountIdleState 28
scalar OsgEarthNet.uav[10] utilizationFail 0
scalar OsgEarthNet.uav[10] simulationTime 259200
scalar OsgEarthNet.uav[11] utilizationSecMission 31837.006576401
scalar OsgEarthNet.uav[11] utilizationSecMaintenance 15849.787930207
scalar OsgEarthNet.uav[11] utilizationSecCharge 180991.20194804
scalar OsgEarthNet.uav[11] utilizationSecIdle 30522.002545349
scalar OsgEarthNet.uav[11] utilizationEnergyMission 149706.41600037
scalar OsgEarthNet.uav[11] utilizationEnergyMaintenance 75728.208072662
scalar OsgEarthNet.uav[11] utilizationEnergyCharge 224067.7890625
scalar OsgEarthNet.uav[11] utilizationEnergyOverdrawMission 0
scalar OsgEarthNet.uav[11] utilizationEnergyOverdrawMaintenance 0
scalar OsgEarthNet.uav[11] utilizationCountMissions 58
scalar OsgEarthNet.uav[11] utilizationCountManeuversMission 688
scalar OsgEarthNet.uav[11] utilizationCountManeuversMaintenance 116
scalar OsgEarthNet.uav[11] utilizationCountChargeState 58
scalar OsgEarthNet.uav[11] utilizationCountOverdrawnAfterMission 0
scalar OsgEarthNet.uav[11] utilizationCountIdleState 57
scalar OsgEarthNet.uav[11] utilizationFail 0
scalar OsgEarthNet.uav[11] simulationTime 259200
scalar OsgEarthNet.uav[12] utilizationSecMission 35550.463778259
scalar OsgEarthNet.uav[12] utilizationSecMaintenance 15184.97316858
scalar OsgEarthNet.uav[12] utilizationSecCharge 184034.9309725
scalar OsgEarthNet.uav[12] utilizationSecIdle 24429.631080665
scalar OsgEarthNet.uav[12] utilizationEnergyMission 171519.84025192
scalar OsgEarthNet.uav[12] utilizationEnergyMaintenance 68444.071769714
scalar OsgEarthNet.uav[12] utilizationEnergyCharge 239289.22265625
scalar OsgEarthNet.uav[12] utilizationEnergyOverdrawMission 0
scalar OsgEarthNet.uav[12] utilizationEnergyOverdrawMaintenance 0
scalar OsgEarthNet.uav[12] utilizationCountMissions 53
scalar OsgEarthNet.uav[12] utilizationCountManeuversMission 1137
scalar OsgEarthNet.uav[12] utilizationCountManeuversMaintenance 106
scalar OsgEarthNet.uav[12] utilizationCountChargeState 53
scalar OsgEarthNet.uav[12] utilizationCountOverdrawnAfterMission 0
scalar OsgEarthNet.uav[12] utilizationCountIdleState 47
scalar OsgEarthNet.uav[12] utilizationFail 0
scalar OsgEarthNet.uav[12] simulationTime 259200
scalar OsgEarthNet.uav[13] utilizationSecMission 35803.454695916
scalar OsgEarthNet.uav[13] utilizationSecMaintenance 14315.595048419
scalar OsgEarthNet.uav[13] utilizationSecCharge 181870
scalar OsgEarthNet.uav[13] utilizationSecIdle 27210.949255665
scalar OsgEarthNet.uav[13] utilizationEnergyMission 174831.00726318
scalar OsgEarthNet.uav[13] utilizationEnergyMaintenance 65988.239970312
scalar OsgEarthNet.uav[13] utilizationEnergyCharge 235771.35498047
scalar OsgEarthNet.uav[13] utilizationEnergyOverdrawMission 0
scalar OsgEarthNet.uav[13] utilizationEnergyOverdrawMaintenance 0
scalar OsgEarthNet.uav[13] utilizationCountMissions 52
scalar OsgEarthNet.uav[13] utilizationCountManeuversMission 1190
scalar OsgEarthNet.uav[13] utilizationCountManeuversMaintenance 104
scalar OsgEarthNet.uav[13] utilizationCountChargeState 51
scalar OsgEarthNet.uav[13] utilizationCountOverdrawnAfterMission 0
scalar OsgEarthNet.uav[13] utilizationCountIdleState 51
scalar OsgEarthNet.uav[13] utilizationFail 0
scalar OsgEarthNet.uav[13] simulationTime 259200
scalar OsgEarthNet.uav[14] utilizationSecMission 30236.218124492
scalar OsgEarthNet.uav[14] utilizationSecMaintenance 18461.777875508
scalar OsgEarthNet.uav[14] utilizationSecCharge 184380
scalar OsgEarthNet.uav[14] utilizationSecIdle 26122.003
scalar OsgEarthNet.uav[14] utilizationEnergyMission 144015.61207199
scalar OsgEarthNet.uav[14] utilizationEnergyMaintenance 88581.354694852
scalar OsgEarthNet.uav[14] utilizationEnergyCharge 229821.96166992
scalar OsgEarthNet.uav[14] utilizationEnergyOverdrawMission 0
scalar OsgEarthNet.uav[14] utilizationEnergyOverdrawMaintenance 0
scalar OsgEarthNet.uav[14] utilizationCountMissions 58
scalar OsgEarthNet.uav[14] utilizationCountManeuversMission 937
scalar OsgEarthNet.uav[14] utilizationCountManeuversMaintenance 116
scalar OsgEarthNet.uav[14] utilizationCountChargeState 57
scalar OsgEarthNet.uav[14] utilizationCountOverdrawnAfterMission 0
scalar OsgEarthNet.uav[14] utilizationCountIdleState 58
scalar OsgEarthNet.uav[14] utilizationFail 0
scalar OsgEarthNet.uav[14] simulationTime 259200
scalar OsgEarthNet.uav[15] utilizationSecMission 35246.685966129
scalar OsgEarthNet.uav[15] utilizationSecMaintenance 15245.956269305
scalar OsgEarthNet.uav[15] utilizationSecCharge 185665.35576457
scalar OsgEarthNet.uav[15] utilizationSecIdle 23042.001
scalar OsgEarthNet.uav[15] utilizationEnergyMission 173934.84893036
scalar OsgEarthNet.uav[15] utilizationEnergyMaintenance 69826.92389679
scalar OsgEarthNet.uav[15] utilizationEnergyCharge 242433.54345703
scalar OsgEarthNet.uav[15] utilizationEnergyOverdrawMission 0
scalar OsgEarthNet.uav[15] utilizationEnergyOverdrawMaintenance 0
scalar OsgEarthNet.uav[15] utilizationCountMissions 53
scalar OsgEarthNet.uav[15] utilizationCountManeuversMission 1274
scalar OsgEarthNet.uav[15] utilizationCountManeuversMaintenance 106
scalar OsgEarthNet.uav[15] utilizationCountChargeState 53
scalar OsgEarthNet.uav[15] utilizationCountOverdrawnAfterMission 0
scalar OsgEarthNet.uav[15] utilizationCountIdleState 50
scalar OsgEarthNet.uav[15] utilizationFail 0
scalar OsgEarthNet.uav[15] simulationTime 259200
scalar OsgEarthNet.uav[16] utilizationSecMission 15591.069141112
scalar OsgEarthNet.uav[16] utilizationSecMaintenance 9296.9138588882
scalar OsgEarthNet.uav[16] utilizationSecCharge 90970
scalar OsgEarthNet.uav[16] utilizationSecIdle 143342.016
scalar OsgEarthNet.uav[16] utilizationEnergyMission 75885.376871348
scalar OsgEarthNet.uav[16] utilizationEnergyMaintenance 43960.930351257
scalar OsgEarthNet.uav[16] utilizationEnergyCharge 117071.44384766
scalar OsgEarthNet.uav[16] utilizationEnergyOverdrawMission 0
scalar OsgEarthNet.uav[16] utilizationEnergyOverdrawMaintenance 0
scalar OsgEarthNet.uav[16] utilizationCountMissions 26
scalar OsgEarthNet.uav[16] utilizationCountManeuversMission 498
scalar OsgEarthNet.uav[16] utilizationCountManeuversMaintenance 53
scalar OsgEarthNet.uav[16] utilizationCountChargeState 26
scalar OsgEarthNet.uav[16] utilizationCountOverdrawnAfterMission 0
scalar OsgEarthNet.uav[16] utilizationCountIdleState 27
scalar OsgEarthNet.uav[16] utilizationFail 0
scalar OsgEarthNet.uav[16] simulationTime 259200
scalar OsgEarthNet.uav[17] utilizationSecMission 29368.916805464
scalar OsgEarthNet.uav[17] utilizationSecMaintenance 18833.631213484
scalar OsgEarthNet.uav[17] utilizationSecCharge 183255.44398105
scalar OsgEarthNet.uav[17] utilizationSecIdle 27742.007
scalar OsgEarthNet.uav[17] utilizationEnergyMission 142593.26457977
scalar OsgEarthNet.uav[17] utilizationEnergyMaintenance 88353.490795135
scalar OsgEarthNet.uav[17] utilizationEnergyCharge 229528.60766602
scalar OsgEarthNet.uav[17] utilizationEnergyOverdrawMission 0
scalar OsgEarthNet.uav[17] utilizationEnergyOverdrawMaintenance 0
scalar OsgEarthNet.uav[17] utilizationCountMissions 57
scalar OsgEarthNet.uav[17] utilizationCountManeuversMission 989
scalar OsgEarthNet.uav[17] utilizationCountManeuversMaintenance 114
scalar OsgEarthNet.uav[17] utilizationCountChargeState 57
scalar OsgEarthNet.uav[17] utilizationCountOverdrawnAfterMission 0
scalar OsgEarthNet.uav[17] utilizationCountIdleState 56
scalar OsgEarthNet.uav[17] utilizationFail 0
scalar OsgEarthNet.uav[17] simulationTime 259200
scalar OsgEarthNet.uav[18] utilizationSecMission 35145.983587725
scalar OsgEarthNet.uav[18] utilizationSecMaintenance 15251.754139569
scalar OsgEarthNet.uav[18] utilizationSecCharge 183482.83592542
scalar OsgEarthNet.uav[18] utilizationSecIdle 25319.42534729
scalar OsgEarthNet.uav[18] utilizationEnergyMission 173422.78551483
scalar OsgEarthNet.uav[18] utilizationEnergyMaintenance 71008.940914154
scalar OsgEarthNet.uav[18] utilizationEnergyCharge 237829.45343018
scalar OsgEarthNet.uav[18] utilizationEnergyOverdrawMission 0
scalar OsgEarthNet.uav[18] utilizationEnergyOverdrawMaintenance 0
scalar OsgEarthNet.uav[18] utilizationCountMissions 53
scalar OsgEarthNet.uav[18] utilizationCountManeuversMission 1260
scalar OsgEarthNet.uav[18] utilizationCountManeuversMaintenance 106
scalar OsgEarthNet.uav[18] utilizationCountChargeState 53
scalar OsgEarthNet.uav[18] utilizationCountOverdrawnAfterMission 0
scalar OsgEarthNet.uav[18] utilizationCountIdleState 50
scalar OsgEarthNet.uav[18] utilizationFail 0
scalar OsgEarthNet.uav[18] simulationTime 259200
scalar OsgEarthNet.uav[19] utilizationSecMission 19057.134717134
scalar OsgEarthNet.uav[19] utilizationSecMaintenance 12732.053890579
scalar OsgEarthNet.uav[19] utilizationSecCharge 118850
scalar OsgEarthNet.uav[19] utilizationSecIdle 108560.81039229
scalar OsgEarthNet.uav[19] utilizationEnergyMission 92790.382354736
scalar OsgEarthNet.uav[19] utilizationEnergyMaintenance 60478.614555359
scalar OsgEarthNet.uav[19] utilizationEnergyCharge 152728.31152344
scalar OsgEarthNet.uav[19] utilizationEnergyOverdrawMission 0
scalar OsgEarthNet.uav[19] utilizationEnergyOverdrawMaintenance 0
scalar OsgEarthNet.uav[19] utilizationCountMissions 34
scalar OsgEarthNet.uav[19] utilizationCountManeuversMission 662
scalar OsgEarthNet.uav[19] utilizationCountManeuversMaintenance 68
scalar OsgEarthNet.uav[19] utilizationCountChargeState 34
scalar OsgEarthNet.uav[19] utilizationCountOverdrawnAfterMission 0
scalar OsgEarthNet.uav[19] utilizationCountIdleState 35
scalar OsgEarthNet.uav[19] utilizationFail 0
scalar OsgEarthNet.uav[19] simulationTime 259200
scalar OsgEarthNet.uav[20] utilizationSecMission 31371.400229901
scalar OsgEarthNet.uav[20] utilizationSecMaintenance 16260.298816055
scalar OsgEarthNet.uav[20] utilizationSecCharge 181140
scalar OsgEarthNet.uav[20] utilizationSecIdle 30428.299954044
scalar OsgEarthNet.uav[20] utilizationEnergyMission 150624.12942886
scalar OsgEarthNet.uav[20] utilizationEnergyMaintenance 76573.776508331
scalar OsgEarthNet.uav[20] utilizationEnergyCharge 227562.19360352
scalar OsgEarthNet.uav[20] utilizationEnergyOverdrawMission 0
scalar OsgEarthNet.uav[20] utilizationEnergyOverdrawMaintenance 0
scalar OsgEarthNet.uav[20] utilizationCountMissions 55
scalar OsgEarthNet.uav[20] utilizationCountManeuversMission 868
scalar OsgEarthNet.uav[20] utilizationCountManeuversMaintenance 110
scalar OsgEarthNet.uav[20] utilizationCountChargeState 55
scalar OsgEarthNet.uav[20] utilizationCountOverdrawnAfterMission 0
scalar OsgEarthNet.uav[20] utilizationCountIdleState 55
scalar OsgEarthNet.uav[20] utilizationFail 0
scalar OsgEarthNet.uav[20] simulationTime 259200
scalar OsgEarthNet.uav[21] utilizationSecMission 32489.429597028
scalar OsgEarthNet.uav[21] utilizationSecMaintenance 15441.725939383
scalar OsgEarthNet.uav[21] utilizationSecCharge 178646.83546359
scalar OsgEarthNet.uav[21] utilizationSecIdle 32622.008
scalar OsgEarthNet.uav[21] utilizationEnergyMission 156626.23183441
scalar OsgEarthNet.uav[21] utilizationEnergyMaintenance 72523.581172943
scalar OsgEarthNet.uav[21] utilizationEnergyCharge 228054.89257812
scalar OsgEarthNet.uav[21] utilizationEnergyOverdrawMission 0
scalar OsgEarthNet.uav[21] utilizationEnergyOverdrawMaintenance 0
scalar OsgEarthNet.uav[21] utilizationCountMissions 53
scalar OsgEarthNet.uav[21] utilizationCountManeuversMission 941
scalar OsgEarthNet.uav[21] utilizationCountManeuversMaintenance 106
scalar OsgEarthNet.uav[21] utilizationCountChargeState 53
scalar OsgEarthNet.uav[21] utilizationCountOverdrawnAfterMission 0
scalar OsgEarthNet.uav[21] utilizationCountIdleState 53
scalar OsgEarthNet.uav[21] utilizationFail 0
scalar OsgEarthNet.uav[21] simulationTime 259200
scalar OsgEarthNet.uav[22] utilizationSecMission 35070.300725314
scalar OsgEarthNet.uav[22] utilizationSecMaintenance 15646.309676184
scalar OsgEarthNet.uav[22] utilizationSecCharge 184221.3875985
scalar OsgEarthNet.uav[22] utilizationSecIdle 24262.001
scalar OsgEarthNet.uav[22] utilizationEnergyMission 171266.46417618
scalar OsgEarthNet.uav[22] utilizationEnergyMaintenance 71688.533794403
scalar OsgEarthNet.uav[22] utilizationEnergyCharge 239230.29144287
scalar OsgEarthNet.uav[22] utilizationEnergyOverdrawMission 0
scalar OsgEarthNet.uav[22] utilizationEnergyOverdrawMaintenance 0
scalar OsgEarthNet.uav[22] utilizationCountMissions 53
scalar OsgEarthNet.uav[22] utilizationCountManeuversMission 1191
scalar OsgEarthNet.uav[22] utilizationCountManeuversMaintenance 106
scalar OsgEarthNet.uav[22] utilizationCountChargeState 53
scalar OsgEarthNet.uav[22] utilizationCountOverdrawnAfterMission 0
scalar OsgEarthNet.uav[22] utilizationCountIdleState 50
scalar OsgEarthNet.uav[22] utilizationFail 0
scalar OsgEarthNet.uav[22] simulationTime 259200
scalar OsgEarthNet.uav[23] utilizationSecMission 23489.377288704
scalar OsgEarthNet.uav[23] utilizationSecMaintenance 15064.951875911
scalar OsgEarthNet.uav[23] utilizationSecCharge 141414.15617443
scalar OsgEarthNet.uav[23] utilizationSecIdle 79231.51366095
scalar OsgEarthNet.uav[23] utilizationEnergyMission 114800.72225189
scalar OsgEarthNet.uav[23] utilizationEnergyMaintenance 71649.979759216
scalar OsgEarthNet.uav[23] utilizationEnergyCharge 182622.64599609
scalar OsgEarthNet.uav[23] utilizationEnergyOverdrawMission 0
scalar OsgEarthNet.uav[23] utilizationEnergyOverdrawMaintenance 0
scalar OsgEarthNet.uav[23] utilizationCountMissions 41
scalar OsgEarthNet.uav[23] utilizationCountManeuversMission 784
scalar OsgEarthNet.uav[23] utilizationCountManeuversMaintenance 82
scalar OsgEarthNet.uav[23] utilizationCountChargeState 41
scalar OsgEarthNet.uav[23] utilizationCountOverdrawnAfterMission 0
scalar OsgEarthNet.uav[23] utilizationCountIdleState 41
scalar OsgEarthNet.uav[23] utilizationFail 0
scalar OsgEarthNet.uav[23] simulationTime 259200
scalar OsgEarthNet.uav[24] utilizationSecMission 30889.075287003
scalar OsgEarthNet.uav[24] utilizationSecMaintenance 17308.973721383
scalar OsgEarthNet.uav[24] utilizationSecCharge 184717.3381021
scalar OsgEarthNet.uav[24] utilizationSecIdle 26284.611889516
scalar OsgEarthNet.uav[24] utilizationEnergyMission 146276.09119034
scalar OsgEarthNet.uav[24] utilizationEnergyMaintenance 82677.861270905
scalar OsgEarthNet.uav[24] utilizationEnergyCharge 229633.01611328
scalar OsgEarthNet.uav[24] utilizationEnergyOverdrawMission 0
scalar OsgEarthNet.uav[24] utilizationEnergyOverdrawMaintenance 0
scalar OsgEarthNet.uav[24] utilizationCountMissions 58
scalar OsgEarthNet.uav[24] utilizationCountManeuversMission 780
scalar OsgEarthNet.uav[24] utilizationCountManeuversMaintenance 116
scalar OsgEarthNet.uav[24] utilizationCountChargeState 58
scalar OsgEarthNet.uav[24] utilizationCountOverdrawnAfterMission 0
scalar OsgEarthNet.uav[24] utilizationCountIdleState 58
scalar OsgEarthNet.uav[24] utilizationFail 0
scalar OsgEarthNet.uav[24] simulationTime 259200
scalar OsgEarthNet.uav[25] utilizationSecMission 35541.242986611
scalar OsgEarthNet.uav[25] utilizationSecMaintenance 14766.60109993
scalar OsgEarthNet.uav[25] utilizationSecCharge 183920.15191346
scalar OsgEarthNet.uav[25] utilizationSecIdle 24972.003
scalar OsgEarthNet.uav[25] utilizationEnergyMission 171295.81916428
scalar OsgEarthNet.uav[25] utilizationEnergyMaintenance 69048.283828735
scalar OsgEarthNet.uav[25] utilizationEnergyCharge 240804.25805664
scalar OsgEarthNet.uav[25] utilizationEnergyOverdrawMission 0
scalar OsgEarthNet.uav[25] utilizationEnergyOverdrawMaintenance 0
scalar OsgEarthNet.uav[25] utilizationCountMissions 52
scalar OsgEarthNet.uav[25] utilizationCountManeuversMission 1067
scalar OsgEarthNet.uav[25] utilizationCountManeuversMaintenance 104
scalar OsgEarthNet.uav[25] utilizationCountChargeState 52
scalar OsgEarthNet.uav[25] utilizationCountOverdrawnAfterMission 0
scalar OsgEarthNet.uav[25] utilizationCountIdleState 48
scalar OsgEarthNet.uav[25] utilizationFail 0
scalar OsgEarthNet.uav[25] simulationTime 259200
scalar OsgEarthNet.uav[26] utilizationSecMission 34683.046277425
scalar OsgEarthNet.uav[26] utilizationSecMaintenance 14672.566942556
scalar OsgEarthNet.uav[26] utilizationSecCharge 182540.48738574
scalar OsgEarthNet.uav[26] utilizationSecIdle 27303.898394284
scalar OsgEarthNet.uav[26] utilizationEnergyMission 170994.43125916
scalar OsgEarthNet.uav[26] utilizationEnergyMaintenance 69046.928100586
scalar OsgEarthNet.uav[26] utilizationEnergyCharge 237679.22119141
scalar OsgEarthNet.uav[26] utilizationEnergyOverdrawMission 0
scalar OsgEarthNet.uav[26] utilizationEnergyOverdrawMaintenance 0
scalar OsgEarthNet.uav[26] utilizationCountMissions 52
scalar OsgEarthNet.uav[26] utilizationCountManeuversMission 1193
scalar OsgEarthNet.uav[26] utilizationCountManeuversMaintenance 104
scalar OsgEarthNet.uav[26] utilizationCountChargeState 52
scalar OsgEarthNet.uav[26] utilizationCountOverdrawnAfterMission 0
scalar OsgEarthNet.uav[26] utilizationCountIdleState 47
scalar OsgEarthNet.uav[26] utilizationFail 0
scalar OsgEarthNet.uav[26] simulationTime 259200
scalar OsgEarthNet.uav[27] utilizationSecMission 30263.314628181
scalar OsgEarthNet.uav[27] utilizationSecMaintenance 19051.255013197
scalar OsgEarthNet.uav[27] utilizationSecCharge 185673.42535862
scalar OsgEarthNet.uav[27] utilizationSecIdle 24212.004
scalar OsgEarthNet.uav[27] utilizationEnergyMission 147195.21564865
scalar OsgEarthNet.uav[27] utilizationEnergyMaintenance 90715.611461639
scalar OsgEarthNet.uav[27] utilizationEnergyCharge 233997.76464844
scalar OsgEarthNet.uav[27] utilizationEnergyOverdrawMission 0
scalar OsgEarthNet.uav[27] utilizationEnergyOverdrawMaintenance 0
scalar OsgEarthNet.uav[27] utilizationCountMissions 57
scalar OsgEarthNet.uav[27] utilizationCountManeuversMission 1028
scalar OsgEarthNet.uav[27] utilizationCountManeuversMaintenance 114
scalar OsgEarthNet.uav[27] utilizationCountChargeState 57
scalar OsgEarthNet.uav[27] utilizationCountOverdrawnAfterMission 0
scalar OsgEarthNet.uav[27] utilizationCountIdleState 55
scalar OsgEarthNet.uav[27] utilizationFail 0
scalar OsgEarthNet.uav[27] simulationTime 259200
scalar OsgEarthNet.uav[28] utilizationSecMission 34606.836492039
scalar OsgEarthNet.uav[28] utilizationSecMaintenance 15217.668071868
scalar OsgEarthNet.uav[28] utilizationSecCharge 185323.49043609
scalar OsgEarthNet.uav[28] utilizationSecIdle 24052.004
scalar OsgEarthNet.uav[28] utilizationEnergyMission 170045.34033966
scalar OsgEarthNet.uav[28] utilizationEnergyMaintenance 70991.678451538
scalar OsgEarthNet.uav[28] utilizationEnergyCharge 241342.05126953
scalar OsgEarthNet.uav[28] utilizationEnergyOverdrawMission 0
scalar OsgEarthNet.uav[28] utilizationEnergyOverdrawMaintenance 0
scalar OsgEarthNet.uav[28] utilizationCountMissions 52
scalar OsgEarthNet.uav[28] utilizationCountManeuversMission 1210
scalar OsgEarthNet.uav[28] utilizationCountManeuversMaintenance 104
scalar OsgEarthNet.uav[28] utilizationCountChargeState 52
scalar OsgEarthNet.uav[28] utilizationCountOverdrawnAfterMission 0
scalar OsgEarthNet.uav[28] utilizationCountIdleState 51
scalar OsgEarthNet.uav[28] utilizationFail 0
scalar OsgEarthNet.uav[28] simulationTime 259200
scalar OsgEarthNet.uav[29] utilizationSecMission 19979.010174875
scalar OsgEarthNet.uav[29] utilizationSecMaintenance 12241.419306346
scalar OsgEarthNet.uav[29] utilizationSecCharge 118957.56251878
scalar OsgEarthNet.uav[29] utilizationSecIdle 108022.007
scalar OsgEarthNet.uav[29] utilizationEnergyMission 97175.449893951
scalar OsgEarthNet.uav[29] utilizationEnergyMaintenance 58221.470340729
scalar OsgEarthNet.uav[29] utilizationEnergyCharge 154988.44311523
scalar OsgEarthNet.uav[29] utilizationEnergyOverdrawMission 0
scalar OsgEarthNet.uav[29] utilizationEnergyOverdrawMaintenance 0
scalar OsgEarthNet.uav[29] utilizationCountMissions 34
scalar OsgEarthNet.uav[29] utilizationCountManeuversMission 630
scalar OsgEarthNet.uav[29] utilizationCountManeuversMaintenance 68
scalar OsgEarthNet.uav[29] utilizationCountChargeState 34
scalar OsgEarthNet.uav[29] utilizationCountOverdrawnAfterMission 0
scalar OsgEarthNet.uav[29] utilizationCountIdleState 34
scalar OsgEarthNet.uav[29] utilizationFail 0
scalar OsgEarthNet.uav[29] simulationTime 259200
scalar OsgEarthNet.uav[30] utilizationSecMission 27392.498427408
scalar OsgEarthNet.uav[30] utilizationSecMaintenance 14007.001071303
scalar OsgEarthNet.uav[30] utilizationSecCharge 149098.49950129
scalar OsgEarthNet.uav[30] utilizationSecIdle 68702
scalar OsgEarthNet.uav[30] utilizationEnergyMission 130430.54166794
scalar OsgEarthNet.uav[30] utilizationEnergyMaintenance 66380.68510437
scalar OsgEarthNet.uav[30] utilizationEnergyCharge 192947.20654297
scalar OsgEarthNet.uav[30] utilizationEnergyOverdrawMission 0
scalar OsgEarthNet.uav[30] utilizationEnergyOverdrawMaintenance 0
scalar OsgEarthNet.uav[30] utilizationCountMissions 43
scalar OsgEarthNet.uav[30] utilizationCountManeuversMission 733
scalar OsgEarthNet.uav[30] utilizationCountManeuversMaintenance 85
scalar OsgEarthNet.uav[30] utilizationCountChargeState 43
scalar OsgEarthNet.uav[30] utilizationCountOverdrawnAfterMission 0
scalar OsgEarthNet.uav[30] utilizationCountIdleState 43
scalar OsgEarthNet.uav[30] utilizationFail 0
scalar OsgEarthNet.uav[30] simulationTime 259200
scalar OsgEarthNet.uav[31] utilizationSecMission 30228.324117537
scalar OsgEarthNet.uav[31] utilizationSecMaintenance 18989.672882463
scalar OsgEarthNet.uav[31] utilizationSecCharge 187030
scalar OsgEarthNet.uav[31] utilizationSecIdle 22952.002
scalar OsgEarthNet.uav[31] utilizationEnergyMission 150365.34259222
scalar OsgEarthNet.uav[31] utilizationEnergyMaintenance 90214.00201416
scalar OsgEarthNet.uav[31] utilizationEnergyCharge 236732.71459961
scalar OsgEarthNet.uav[31] utilizationEnergyOverdrawMission 0
scalar OsgEarthNet.uav[31] utilizationEnergyOverdrawMaintenance 0
scalar OsgEarthNet.uav[31] utilizationCountMissions 56
scalar OsgEarthNet.uav[31] utilizationCountManeuversMission 1055
scalar OsgEarthNet.uav[31] utilizationCountManeuversMaintenance 113
scalar OsgEarthNet.uav[31] utilizationCountChargeState 56
scalar OsgEarthNet.uav[31] utilizationCountOverdrawnAfterMission 0
scalar OsgEarthNet.uav[31] utilizationCountIdleState 56
scalar OsgEarthNet.uav[31] utilizationFail 0
scalar OsgEarthNet.uav[31] simulationTime 259200
scalar OsgEarthNet.uav[32] utilizationSecMission 35596.605381249
scalar OsgEarthNet.uav[32] utilizationSecMaintenance 15057.490607856
scalar OsgEarthNet.uav[32] utilizationSecCharge 186733.90301089
scalar OsgEarthNet.uav[32] utilizationSecIdle 21812
scalar OsgEarthNet.uav[32] utilizationEnergyMission 174241.74879772
scalar OsgEarthNet.uav[32] utilizationEnergyMaintenance 69624.752498627
scalar OsgEarthNet.uav[32] utilizationEnergyCharge 243838.11279297
scalar OsgEarthNet.uav[32] utilizationEnergyOverdrawMission 0
scalar OsgEarthNet.uav[32] utilizationEnergyOverdrawMaintenance 0
scalar OsgEarthNet.uav[32] utilizationCountMissions 53
scalar OsgEarthNet.uav[32] utilizationCountManeuversMission 1162
scalar OsgEarthNet.uav[32] utilizationCountManeuversMaintenance 105
scalar OsgEarthNet.uav[32] utilizationCountChargeState 53
scalar OsgEarthNet.uav[32] utilizationCountOverdrawnAfterMission 0
scalar OsgEarthNet.uav[32] utilizationCountIdleState 47
scalar OsgEarthNet.uav[32] utilizationFail 0
scalar OsgEarthNet.uav[32] simulationTime 259200
scalar OsgEarthNet.uav[33] utilizationSecMission 31196.612267985
scalar OsgEarthNet.uav[33] utilizationSecMaintenance 17552.140306297
scalar OsgEarthNet.uav[33] utilizationSecCharge 183809.24042572
scalar OsgEarthNet.uav[33] utilizationSecIdle 26642.006
scalar OsgEarthNet.uav[33] utilizationEnergyMission 149225.58582306
scalar OsgEarthNet.uav[33] utilizationEnergyMaintenance 83469.283306122
scalar OsgEarthNet.uav[33] utilizationEnergyCharge 230753.1887207
scalar OsgEarthNet.uav[33] utilizationEnergyOverdrawMission 0
scalar OsgEarthNet.uav[33] utilizationEnergyOverdrawMaintenance 0
scalar OsgEarthNet.uav[33] utilizationCountMissions 57
scalar OsgEarthNet.uav[33] utilizationCountManeuversMission 839
scalar OsgEarthNet.uav[33] utilizationCountManeuversMaintenance 114
scalar OsgEarthNet.uav[33] utilizationCountChargeState 57
scalar OsgEarthNet.uav[33] utilizationCountOverdrawnAfterMission 0
scalar OsgEarthNet.uav[33] utilizationCountIdleState 56
scalar OsgEarthNet.uav[33] utilizationFail 0
scalar OsgEarthNet.uav[33] simulationTime 259200
scalar OsgEarthNet.uav[34] utilizationSecMission 30915.531485841
scalar OsgEarthNet.uav[34] utilizationSecMaintenance 16811.818984425
scalar OsgEarthNet.uav[34] utilizationSecCharge 183420
scalar OsgEarthNet.uav[34] utilizationSecIdle 28052.648529734
scalar OsgEarthNet.uav[34] utilizationEnergyMission 149416.49383545
scalar OsgEarthNet.uav[34] utilizationEnergyMaintenance 80538.494548798
scalar OsgEarthNet.uav[34] utilizationEnergyCharge 230138.07885742
scalar OsgEarthNet.uav[34] utilizationEnergyOverdrawMission 0
scalar OsgEarthNet.uav[34] utilizationEnergyOverdrawMaintenance 0
scalar OsgEarthNet.uav[34] utilizationCountMissions 56
scalar OsgEarthNet.uav[34] utilizationCountManeuversMission 857
scalar OsgEarthNet.uav[34] utilizationCountManeuversMaintenance 112
scalar OsgEarthNet.uav[34] utilizationCountChargeState 56
scalar OsgEarthNet.uav[34] utilizationCountOverdrawnAfterMission 0
scalar OsgEarthNet.uav[34] utilizationCountIdleState 56
scalar OsgEarthNet.uav[34] utilizationFail 0
scalar OsgEarthNet.uav[34] simulationTime 259200
scalar OsgEarthNet.uav[35] utilizationSecMission 35885.531012004
scalar OsgEarthNet.uav[35] utilizationSecMaintenance 14525.292877586
scalar OsgEarthNet.uav[35] utilizationSecCharge 185110
scalar OsgEarthNet.uav[35] utilizationSecIdle 23679.175110411
scalar OsgEarthNet.uav[35] utilizationEnergyMission 172502.35399248
scalar OsgEarthNet.uav[35] utilizationEnergyMaintenance 66872.877548218
scalar OsgEarthNet.uav[35] utilizationEnergyCharge 240631.74609375
scalar OsgEarthNet.uav[35] utilizationEnergyOverdrawMission 0
scalar OsgEarthNet.uav[35] utilizationEnergyOverdrawMaintenance 0
scalar OsgEarthNet.uav[35] utilizationCountMissions 52
scalar OsgEarthNet.uav[35] utilizationCountManeuversMission 1135
scalar OsgEarthNet.uav[35] utilizationCountManeuversMaintenance 105
scalar OsgEarthNet.uav[35] utilizationCountChargeState 52
scalar OsgEarthNet.uav[35] utilizationCountOverdrawnAfterMission 0
scalar OsgEarthNet.uav[35] utilizationCountIdleState 51
scalar OsgEarthNet.uav[35] utilizationFail 0
scalar OsgEarthNet.uav[35] simulationTime 259200
scalar OsgEarthNet.uav[36] utilizationSecMission 23330.002441285
scalar OsgEarthNet.uav[36] utilizationSecMaintenance 14188.53998841
scalar OsgEarthNet.uav[36] utilizationSecCharge 140330
scalar OsgEarthNet.uav[36] utilizationSecIdle 81351.456570305
scalar OsgEarthNet.uav[36] utilizationEnergyMission 114294.75461578
scalar OsgEarthNet.uav[36] utilizationEnergyMaintenance 67403.930583954
scalar OsgEarthNet.uav[36] utilizationEnergyCharge 180730.16748047
scalar OsgEarthNet.uav[36] utilizationEnergyOverdrawMission 0
scalar OsgEarthNet.uav[36] utilizationEnergyOverdrawMaintenance 0
scalar OsgEarthNet.uav[36] utilizationCountMissions 40
scalar OsgEarthNet.uav[36] utilizationCountManeuversMission 750
scalar OsgEarthNet.uav[36] utilizationCountManeuversMaintenance 80
scalar OsgEarthNet.uav[36] utilizationCountChargeState 40
scalar OsgEarthNet.uav[36] utilizationCountOverdrawnAfterMission 0
scalar OsgEarthNet.uav[36] utilizationCountIdleState 41
scalar OsgEarthNet.uav[36] utilizationFail 0
scalar OsgEarthNet.uav[36] simulationTime 259200
scalar OsgEarthNet.uav[37] utilizationSecMission 31435.777177952
scalar OsgEarthNet.uav[37] utilizationSecMaintenance 17080.120165377
scalar OsgEarthNet.uav[37] utilizationSecCharge 183082.09565667
scalar OsgEarthNet.uav[37] utilizationSecIdle 27602.006
scalar OsgEarthNet.uav[37] utilizationEnergyMission 148582.77752686
scalar OsgEarthNet.uav[37] utilizationEnergyMaintenance 80923.685001373
scalar OsgEarthNet.uav[37] utilizationEnergyCharge 226462.44042969
scalar OsgEarthNet.uav[37] utilizationEnergyOverdrawMission 0
scalar OsgEarthNet.uav[37] utilizationEnergyOverdrawMaintenance 0
scalar OsgEarthNet.uav[37] utilizationCountMissions 59
scalar OsgEarthNet.uav[37] utilizationCountManeuversMission 726
scalar OsgEarthNet.uav[37] utilizationCountManeuversMaintenance 118
scalar OsgEarthNet.uav[37] utilizationCountChargeState 59
scalar OsgEarthNet.uav[37] utilizationCountOverdrawnAfterMission 0
scalar OsgEarthNet.uav[37] utilizationCountIdleState 57
scalar OsgEarthNet.uav[37] utilizationFail 0
scalar OsgEarthNet.uav[37] simulationTime 259200
scalar OsgEarthNet.uav[38] utilizationSecMission 35147.053153139
scalar OsgEarthNet.uav[38] utilizationSecMaintenance 15460.943846861
scalar OsgEarthNet.uav[38] utilizationSecCharge 183410
scalar OsgEarthNet.uav[38] utilizationSecIdle 25182.002
scalar OsgEarthNet.uav[38] utilizationEnergyMission 171138.1200812
scalar OsgEarthNet.uav[38] utilizationEnergyMaintenance 71508.451660156
scalar OsgEarthNet.uav[38] utilizationEnergyCharge 238324.52490234
scalar OsgEarthNet.uav[38] utilizationEnergyOverdrawMission 0
scalar OsgEarthNet.uav[38] utilizationEnergyOverdrawMaintenance 0
scalar OsgEarthNet.uav[38] utilizationCountMissions 52
scalar OsgEarthNet.uav[38] utilizationCountManeuversMission 1095
scalar OsgEarthNet.uav[38] utilizationCountManeuversMaintenance 105
scalar OsgEarthNet.uav[38] utilizationCountChargeState 52
scalar OsgEarthNet.uav[38] utilizationCountOverdrawnAfterMission 0
scalar OsgEarthNet.uav[38] utilizationCountIdleState 50
scalar OsgEarthNet.uav[38] utilizationFail 0
scalar OsgEarthNet.uav[38] simulationTime 259200
scalar OsgEarthNet.uav[39] utilizationSecMission 21748.752136124
scalar OsgEarthNet.uav[39] utilizationSecMaintenance 13802.136247595
scalar OsgEarthNet.uav[39] utilizationSecCharge 131777.10161628
scalar OsgEarthNet.uav[39] utilizationSecIdle 91872.009
scalar OsgEarthNet.uav[39] utilizationEnergyMission 105966.86169815
scalar OsgEarthNet.uav[39] utilizationEnergyMaintenance 65282.442951202
scalar OsgEarthNet.uav[39] utilizationEnergyCharge 170835.82080078
scalar OsgEarthNet.uav[39] utilizationEnergyOverdrawMission 0
scalar OsgEarthNet.uav[39] utilizationEnergyOverdrawMaintenance 0
scalar OsgEarthNet.uav[39] utilizationCountMissions 38
scalar OsgEarthNet.uav[39] utilizationCountManeuversMission 723
scalar OsgEarthNet.uav[39] utilizationCountManeuversMaintenance 76
scalar OsgEarthNet.uav[39] utilizationCountChargeState 38
scalar OsgEarthNet.uav[39] utilizationCountOverdrawnAfterMission 0
scalar OsgEarthNet.uav[39] utilizationCountIdleState 38
scalar OsgEarthNet.uav[39] utilizationFail 0
scalar OsgEarthNet.uav[39] simulationTime 259200
scalar OsgEarthNet.uav[40] utilizationSecMission 25079.635327455
scalar OsgEarthNet.uav[40] utilizationSecMaintenance 16364.12373616
scalar OsgEarthNet.uav[40] utilizationSecCharge 154224.23893639
scalar OsgEarthNet.uav[40] utilizationSecIdle 63532.001
scalar OsgEarthNet.uav[40] utilizationEnergyMission 122942.16919708
scalar OsgEarthNet.uav[40] utilizationEnergyMaintenance 77622.329971313
scalar OsgEarthNet.uav[40] utilizationEnergyCharge 199895.85839844
scalar OsgEarthNet.uav[40] utilizationEnergyOverdrawMission 0
scalar OsgEarthNet.uav[40] utilizationEnergyOverdrawMaintenance 0
scalar OsgEarthNet.uav[40] utilizationCountMissions 44
scalar OsgEarthNet.uav[40] utilizationCountManeuversMission 859
scalar OsgEarthNet.uav[40] utilizationCountManeuversMaintenance 88
scalar OsgEarthNet.uav[40] utilizationCountChargeState 44
scalar OsgEarthNet.uav[40] utilizationCountOverdrawnAfterMission 0
scalar OsgEarthNet.uav[40] utilizationCountIdleState 44
scalar OsgEarthNet.uav[40] utilizationFail 0
scalar OsgEarthNet.uav[40] simulationTime 259200
scalar OsgEarthNet.uav[41] utilizationSecMission 30890.269128083
scalar OsgEarthNet.uav[41] utilizationSecMaintenance 16997.706453459
scalar OsgEarthNet.uav[41] utilizationSecCharge 182880.96562327
scalar OsgEarthNet.uav[41] utilizationSecIdle 28431.057795193
scalar OsgEarthNet.uav[41] utilizationEnergyMission 151019.80726624
scalar OsgEarthNet.uav[41] utilizationEnergyMaintenance 80953.171325684
scalar OsgEarthNet.uav[41] utilizationEnergyCharge 231762.01000977
scalar OsgEarthNet.uav[41] utilizationEnergyOverdrawMission 0
scalar OsgEarthNet.uav[41] utilizationEnergyOverdrawMaintenance 0
scalar OsgEarthNet.uav[41] utilizationCountMissions 55
scalar OsgEarthNet.uav[41] utilizationCountManeuversMission 900
scalar OsgEarthNet.uav[41] utilizationCountManeuversMaintenance 110
scalar OsgEarthNet.uav[41] utilizationCountChargeState 55
scalar OsgEarthNet.uav[41] utilizationCountOverdrawnAfterMission 0
scalar OsgEarthNet.uav[41] utilizationCountIdleState 55
scalar OsgEarthNet.uav[41] utilizationFail 0
scalar OsgEarthNet.uav[41] simulationTime 259200
scalar OsgEarthNet.uav[42] utilizationSecMission 36475.535022605
scalar OsgEarthNet.uav[42] utilizationSecMaintenance 13467.608838295
scalar OsgEarthNet.uav[42] utilizationSecCharge 181404.8511391
scalar OsgEarthNet.uav[42] utilizationSecIdle 27852.004
scalar OsgEarthNet.uav[42] utilizationEnergyMission 176059.18009567
scalar OsgEarthNet.uav[42] utilizationEnergyMaintenance 62708.680027008
scalar OsgEarthNet.uav[42] utilizationEnergyCharge 236185.44677734
scalar OsgEarthNet.uav[42] utilizationEnergyOverdrawMission 0
scalar OsgEarthNet.uav[42] utilizationEnergyOverdrawMaintenance 0
scalar OsgEarthNet.uav[42] utilizationCountMissions 51
scalar OsgEarthNet.uav[42] utilizationCountManeuversMission 1051
scalar OsgEarthNet.uav[42] utilizationCountManeuversMaintenance 102
scalar OsgEarthNet.uav[42] utilizationCountChargeState 51
scalar OsgEarthNet.uav[42] utilizationCountOverdrawnAfterMission 0
scalar OsgEarthNet.uav[42] utilizationCountIdleState 50
scalar OsgEarthNet.uav[42] utilizationFail 0
scalar OsgEarthNet.uav[42] simulationTime 259200
scalar OsgEarthNet.uav[43] utilizationSecMission 26628.092112554
scalar OsgEarthNet.uav[43] utilizationSecMaintenance 15896.636304278
scalar OsgEarthNet.uav[43] utilizationSecCharge 159060
scalar OsgEarthNet.uav[43] utilizationSecIdle 57615.270583168
scalar OsgEarthNet.uav[43] utilizationEnergyMission 129457.55373001
scalar OsgEarthNet.uav[43] utilizationEnergyMaintenance 76350.918351429
scalar OsgEarthNet.uav[43] utilizationEnergyCharge 200840.45019531
scalar OsgEarthNet.uav[43] utilizationEnergyOverdrawMission 0
scalar OsgEarthNet.uav[43] utilizationEnergyOverdrawMaintenance 0
scalar OsgEarthNet.uav[43] utilizationCountMissions 49
scalar OsgEarthNet.uav[43] utilizationCountManeuversMission 762
scalar OsgEarthNet.uav[43] utilizationCountManeuversMaintenance 98
scalar OsgEarthNet.uav[43] utilizationCountChargeState 48
scalar OsgEarthNet.uav[43] utilizationCountOverdrawnAfterMission 0
scalar OsgEarthNet.uav[43] utilizationCountIdleState 48
scalar OsgEarthNet.uav[43] utilizationFail 0
scalar OsgEarthNet.uav[43] simulationTime 259200
scalar OsgEarthNet.uav[44] utilizationSecMission 30938.80506037
scalar OsgEarthNet.uav[44] utilizationSecMaintenance 18609.481335548
scalar OsgEarthNet.uav[44] utilizationSecCharge 185669.71260408
scalar OsgEarthNet.uav[44] utilizationSecIdle 23982
scalar OsgEarthNet.uav[44] utilizationEnergyMission 150126.56702423
scalar OsgEarthNet.uav[44] utilizationEnergyMaintenance 87981.411205292
scalar OsgEarthNet.uav[44] utilizationEnergyCharge 233873.04760742
scalar OsgEarthNet.uav[44] utilizationEnergyOverdrawMission 0
scalar OsgEarthNet.uav[44] utilizationEnergyOverdrawMaintenance 0
scalar OsgEarthNet.uav[44] utilizationCountMissions 57
scalar OsgEarthNet.uav[44] utilizationCountManeuversMission 1045
scalar OsgEarthNet.uav[44] utilizationCountManeuversMaintenance 113
scalar OsgEarthNet.uav[44] utilizationCountChargeState 57
scalar OsgEarthNet.uav[44] utilizationCountOverdrawnAfterMission 0
scalar OsgEarthNet.uav[44] utilizationCountIdleState 57
scalar OsgEarthNet.uav[44] utilizationFail 0
scalar OsgEarthNet.uav[44] simulationTime 259200
scalar OsgEarthNet.uav[45] utilizationSecMission 34240.912810226
scalar OsgEarthNet.uav[45] utilizationSecMaintenance 15377.193347209
scalar OsgEarthNet.uav[45] utilizationSecCharge 184450
scalar OsgEarthNet.uav[45] utilizationSecIdle 25131.892842565
scalar OsgEarthNet.uav[45] utilizationEnergyMission 167707.28030777
scalar OsgEarthNet.uav[45] utilizationEnergyMaintenance 71348.451931
scalar OsgEarthNet.uav[45] utilizationEnergyCharge 239561.43603516
scalar OsgEarthNet.uav[45] utilizationEnergyOverdrawMission 0
scalar OsgEarthNet.uav[45] utilizationEnergyOverdrawMaintenance 0
scalar OsgEarthNet.uav[45] utilizationCountMissions 52
scalar OsgEarthNet.uav[45] utilizationCountManeuversMission 1201
scalar OsgEarthNet.uav[45] utilizationCountManeuversMaintenance 104
scalar OsgEarthNet.uav[45] utilizationCountChargeState 52
scalar OsgEarthNet.uav[45] utilizationCountOverdrawnAfterMission 0
scalar OsgEarthNet.uav[45] utilizationCountIdleState 50
scalar OsgEarthNet.uav[45] utilizationFail 0
scalar OsgEarthNet.uav[45] simulationTime 259200
scalar OsgEarthNet.uav[46] utilizationSecMission 24562.859788706
scalar OsgEarthNet.uav[46] utilizationSecMaintenance 16055.131211294
scalar OsgEarthNet.uav[46] utilizationSecCharge 151260
scalar OsgEarthNet.uav[46] utilizationSecIdle 67322.008
scalar OsgEarthNet.uav[46] utilizationEnergyMission 118270.4722381
scalar OsgEarthNet.uav[46] utilizationEnergyMaintenance 75973.906990051
scalar OsgEarthNet.uav[46] utilizationEnergyCharge 191872.26196289
scalar OsgEarthNet.uav[46] utilizationEnergyOverdrawMission 0
scalar OsgEarthNet.uav[46] utilizationEnergyOverdrawMaintenance 0
scalar OsgEarthNet.uav[46] utilizationCountMissions 45
scalar OsgEarthNet.uav[46] utilizationCountManeuversMission 743
scalar OsgEarthNet.uav[46] utilizationCountManeuversMaintenance 91
scalar OsgEarthNet.uav[46] utilizationCountChargeState 45
scalar OsgEarthNet.uav[46] utilizationCountOverdrawnAfterMission 0
scalar OsgEarthNet.uav[46] utilizationCountIdleState 46
scalar OsgEarthNet.uav[46] utilizationFail 0
scalar OsgEarthNet.uav[46] simulationTime 259200
scalar OsgEarthNet.uav[47] utilizationSecMission 34960.665371749
scalar OsgEarthNet.uav[47] utilizationSecMaintenance 14603.507691502
scalar OsgEarthNet.uav[47] utilizationSecCharge 182230.38184806
scalar OsgEarthNet.uav[47] utilizationSecIdle 27405.444088691
scalar OsgEarthNet.uav[47] utilizationEnergyMission 171751.86584091
scalar OsgEarthNet.uav[47] utilizationEnergyMaintenance 67716.32781601
scalar OsgEarthNet.uav[47] utilizationEnergyCharge 236421.84008789
scalar OsgEarthNet.uav[47] utilizationEnergyOverdrawMission 0
scalar OsgEarthNet.uav[47] utilizationEnergyOverdrawMaintenance 0
scalar OsgEarthNet.uav[47] utilizationCountMissions 52
scalar OsgEarthNet.uav[47] utilizationCountManeuversMission 1206
scalar OsgEarthNet.uav[47] utilizationCountManeuversMaintenance 104
scalar OsgEarthNet.uav[47] utilizationCountChargeState 52
scalar OsgEarthNet.uav[47] utilizationCountOverdrawnAfterMission 0
scalar OsgEarthNet.uav[47] utilizationCountIdleState 51
scalar OsgEarthNet.uav[47] utilizationFail 0
scalar OsgEarthNet.uav[47] simulationTime 259200
scalar OsgEarthNet.uav[48] utilizationSecMission 35196.755608404
scalar OsgEarthNet.uav[48] utilizationSecMaintenance 15331.243391596
scalar OsgEarthNet.uav[48] utilizationSecCharge 187260
scalar OsgEarthNet.uav[48] utilizationSecIdle 21412
scalar OsgEarthNet.uav[48] utilizationEnergyMission 172744.91010347
scalar OsgEarthNet.uav[48] utilizationEnergyMaintenance 71021.95062246
scalar OsgEarthNet.uav[48] utilizationEnergyCharge 243789.42480469
scalar OsgEarthNet.uav[48] utilizationEnergyOverdrawMission 0
scalar OsgEarthNet.uav[48] utilizationEnergyOverdrawMaintenance 0
scalar OsgEarthNet.uav[48] utilizationCountMissions 53
scalar OsgEarthNet.uav[48] utilizationCountManeuversMission 1226
scalar OsgEarthNet.uav[48] utilizationCountManeuversMaintenance 106
scalar OsgEarthNet.uav[48] utilizationCountChargeState 53
scalar OsgEarthNet.uav[48] utilizationCountOverdrawnAfterMission 0
scalar OsgEarthNet.uav[48] utilizationCountIdleState 49
scalar OsgEarthNet.uav[48] utilizationFail 0
scalar OsgEarthNet.uav[48] simulationTime 259200
scalar OsgEarthNet.uav[49] utilizationSecMission 22216.727714712
scalar OsgEarthNet.uav[49] utilizationSecMaintenance 15829.565782813
scalar OsgEarthNet.uav[49] utilizationSecCharge 140541.69350247
scalar OsgEarthNet.uav[49] utilizationSecIdle 80612.012
scalar OsgEarthNet.uav[49] utilizationEnergyMission 110288.71154404
scalar OsgEarthNet.uav[49] utilizationEnergyMaintenance 74919.786022186
scalar OsgEarthNet.uav[49] utilizationEnergyCharge 181055.44158936
scalar OsgEarthNet.uav[49] utilizationEnergyOverdrawMission 0
scalar OsgEarthNet.uav[49] utilizationEnergyOverdrawMaintenance 0
scalar OsgEarthNet.uav[49] utilizationCountMissions 41
scalar OsgEarthNet.uav[49] utilizationCountManeuversMission 812
scalar OsgEarthNet.uav[49] utilizationCountManeuversMaintenance 82
scalar OsgEarthNet.uav[49] utilizationCountChargeState 41
scalar OsgEarthNet.uav[49] utilizationCountOverdrawnAfterMission 0
scalar OsgEarthNet.uav[49] utilizationCountIdleState 41
scalar OsgEarthNet.uav[49] utilizationFail 0
scalar OsgEarthNet.uav[49] simulationTime 259200
scalar OsgEarthNet.uav[50] utilizationSecMission 23699.744402534
scalar OsgEarthNet.uav[50] utilizationSecMaintenance 14749.685173554
scalar OsgEarthNet.uav[50] utilizationSecCharge 139580
scalar OsgEarthNet.uav[50] utilizationSecIdle 81170.569423912
scalar OsgEarthNet.uav[50] utilizationEnergyMission 116477.98359299
scalar OsgEarthNet.uav[50] utilizationEnergyMaintenance 69638.398092751
scalar OsgEarthNet.uav[50] utilizationEnergyCharge 179590.79541016
scalar OsgEarthNet.uav[50] utilizationEnergyOverdrawMission 0
scalar OsgEarthNet.uav[50] utilizationEnergyOverdrawMaintenance 0
scalar OsgEarthNet.uav[50] utilizationCountMissions 41
scalar OsgEarthNet.uav[50] utilizationCountManeuversMission 773
scalar OsgEarthNet.uav[50] utilizationCountManeuversMaintenance 82
scalar OsgEarthNet.uav[50] utilizationCountChargeState 40
scalar OsgEarthNet.uav[50] utilizationCountOverdrawnAfterMission 0
scalar OsgEarthNet.uav[50] utilizationCountIdleState 41
scalar OsgEarthNet.uav[50] utilizationFail 0
scalar OsgEarthNet.uav[50] simulationTime 259200
scalar OsgEarthNet.uav[51] utilizationSecMission 31222.851250318
scalar OsgEarthNet.uav[51] utilizationSecMaintenance 17990.110201211
scalar OsgEarthNet.uav[51] utilizationSecCharge 186355.03604175
scalar OsgEarthNet.uav[51] utilizationSecIdle 23632.001506722
scalar OsgEarthNet.uav[51] utilizationEnergyMission 149735.88719559
scalar OsgEarthNet.uav[51] utilizationEnergyMaintenance 85522.365543365
scalar OsgEarthNet.uav[51] utilizationEnergyCharge 233274.88079834
scalar OsgEarthNet.uav[51] utilizationEnergyOverdrawMission 0
scalar OsgEarthNet.uav[51] utilizationEnergyOverdrawMaintenance 0
scalar OsgEarthNet.uav[51] utilizationCountMissions 58
scalar OsgEarthNet.uav[51] utilizationCountManeuversMission 853
scalar OsgEarthNet.uav[51] utilizationCountManeuversMaintenance 116
scalar OsgEarthNet.uav[51] utilizationCountChargeState 58
scalar OsgEarthNet.uav[51] utilizationCountOverdrawnAfterMission 0
scalar OsgEarthNet.uav[51] utilizationCountIdleState 56
scalar OsgEarthNet.uav[51] utilizationFail 0
scalar OsgEarthNet.uav[51] simulationTime 259200
scalar OsgEarthNet.uav[52] utilizationSecMission 36011.3253052
scalar OsgEarthNet.uav[52] utilizationSecMaintenance 15036.580278239
scalar OsgEarthNet.uav[52] utilizationSecCharge 185730.09141656
scalar OsgEarthNet.uav[52] utilizationSecIdle 22422.002
scalar OsgEarthNet.uav[52] utilizationEnergyMission 175138.45167542
scalar OsgEarthNet.uav[52] utilizationEnergyMaintenance 69303.76594162
scalar OsgEarthNet.uav[52] utilizationEnergyCharge 242252.49829102
scalar OsgEarthNet.uav[52] utilizationEnergyOverdrawMission 0
scalar OsgEarthNet.uav[52] utilizationEnergyOverdrawMaintenance 0
scalar OsgEarthNet.uav[52] utilizationCountMissions 53
scalar OsgEarthNet.uav[52] utilizationCountManeuversMission 1096
scalar OsgEarthNet.uav[52] utilizationCountManeuversMaintenance 106
scalar OsgEarthNet.uav[52] utilizationCountChargeState 53
scalar OsgEarthNet.uav[52] utilizationCountOverdrawnAfterMission 0
scalar OsgEarthNet.uav[52] utilizationCountIdleState 51
scalar OsgEarthNet.uav[52] utilizationFail 0
scalar OsgEarthNet.uav[52] simulationTime 259200
scalar OsgEarthNet.uav[53] utilizationSecMission 29869.172914218
scalar OsgEarthNet.uav[53] utilizationSecMaintenance 17734.30749358
scalar OsgEarthNet.uav[53] utilizationSecCharge 179554.5035922
scalar OsgEarthNet.uav[53] utilizationSecIdle 32042.015
scalar OsgEarthNet.uav[53] utilizationEnergyMission 145578.75239182
scalar OsgEarthNet.uav[53] utilizationEnergyMaintenance 83689.87935257
scalar OsgEarthNet.uav[53] utilizationEnergyCharge 226527.56103516
scalar OsgEarthNet.uav[53] utilizationEnergyOverdrawMission 0
scalar OsgEarthNet.uav[53] utilizationEnergyOverdrawMaintenance 0
scalar OsgEarthNet.uav[53] utilizationCountMissions 55
scalar OsgEarthNet.uav[53] utilizationCountManeuversMission 943
scalar OsgEarthNet.uav[53] utilizationCountManeuversMaintenance 110
scalar OsgEarthNet.uav[53] utilizationCountChargeState 55
scalar OsgEarthNet.uav[53] utilizationCountOverdrawnAfterMission 0
scalar OsgEarthNet.uav[53] utilizationCountIdleState 54
scalar OsgEarthNet.uav[53] utilizationFail 0
scalar OsgEarthNet.uav[53] simulationTime 259200
scalar OsgEarthNet.uav[54] utilizationSecMission 30787.734896304
scalar OsgEarthNet.uav[54] utilizationSecMaintenance 17241.279747685
scalar OsgEarthNet.uav[54] utilizationSecCharge 183246.27865697
scalar OsgEarthNet.uav[54] utilizationSecIdle 27924.705699036
scalar OsgEarthNet.uav[54] utilizationEnergyMission 149321.78933716
scalar OsgEarthNet.uav[54] utilizationEnergyMaintenance 82123.520439148
scalar OsgEarthNet.uav[54] utilizationEnergyCharge 229338.46972656
scalar OsgEarthNet.uav[54] utilizationEnergyOverdrawMission 0
scalar OsgEarthNet.uav[54] utilizationEnergyOverdrawMaintenance 0
scalar OsgEarthNet.uav[54] utilizationCountMissions 57
scalar OsgEarthNet.uav[54] utilizationCountManeuversMission 871
scalar OsgEarthNet.uav[54] utilizationCountManeuversMaintenance 114
scalar OsgEarthNet.uav[54] utilizationCountChargeState 57
scalar OsgEarthNet.uav[54] utilizationCountOverdrawnAfterMission 0
scalar OsgEarthNet.uav[54] utilizationCountIdleState 56
scalar OsgEarthNet.uav[54] utilizationFail 0
scalar OsgEarthNet.uav[54] simulationTime 259200
scalar OsgEarthNet.uav[55] utilizationSecMission 34679.293002716
scalar OsgEarthNet.uav[55] utilizationSecMaintenance 15213.426210981
scalar OsgEarthNet.uav[55] utilizationSecCharge 185110
scalar OsgEarthNet.uav[55] utilizationSecIdle 24197.279786304
scalar OsgEarthNet.uav[55] utilizationEnergyMission 168289.96341705
scalar OsgEarthNet.uav[55] utilizationEnergyMaintenance 70141.044338226
scalar OsgEarthNet.uav[55] utilizationEnergyCharge 240500.41748047
scalar OsgEarthNet.uav[55] utilizationEnergyOverdrawMission 0
scalar OsgEarthNet.uav[55] utilizationEnergyOverdrawMaintenance 0
scalar OsgEarthNet.uav[55] utilizationCountMissions 52
scalar OsgEarthNet.uav[55] utilizationCountManeuversMission 1172
scalar OsgEarthNet.uav[55] utilizationCountManeuversMaintenance 104
scalar OsgEarthNet.uav[55] utilizationCountChargeState 52
scalar OsgEarthNet.uav[55] utilizationCountOverdrawnAfterMission 0
scalar OsgEarthNet.uav[55] utilizationCountIdleState 51
scalar OsgEarthNet.uav[55] utilizationFail 0
scalar OsgEarthNet.uav[55] simulationTime 259200
scalar OsgEarthNet.uav[56] utilizationSecMission 37154.846429221
scalar OsgEarthNet.uav[56] utilizationSecMaintenance 13757.559968674
scalar OsgEarthNet.uav[56] utilizationSecCharge 184235.59260211
scalar OsgEarthNet.uav[56] utilizationSecIdle 24052
scalar OsgEarthNet.uav[56] utilizationEnergyMission 176933.64085388
scalar OsgEarthNet.uav[56] utilizationEnergyMaintenance 63305.309066772
scalar OsgEarthNet.uav[56] utilizationEnergyCharge 240564.65576172
scalar OsgEarthNet.uav[56] utilizationEnergyOverdrawMission 0
scalar OsgEarthNet.uav[56] utilizationEnergyOverdrawMaintenance 0
scalar OsgEarthNet.uav[56] utilizationCountMissions 52
scalar OsgEarthNet.uav[56] utilizationCountManeuversMission 992
scalar OsgEarthNet.uav[56] utilizationCountManeuversMaintenance 103
scalar OsgEarthNet.uav[56] utilizationCountChargeState 52
scalar OsgEarthNet.uav[56] utilizationCountOverdrawnAfterMission 0
scalar OsgEarthNet.uav[56] utilizationCountIdleState 49
scalar OsgEarthNet.uav[56] utilizationFail 0
scalar OsgEarthNet.uav[56] simulationTime 259200
scalar OsgEarthNet.uav[57] utilizationSecMission 30769.876499866
scalar OsgEarthNet.uav[57] utilizationSecMaintenance 17522.320052478
scalar OsgEarthNet.uav[57] utilizationSecCharge 182409.99684067
scalar OsgEarthNet.uav[57] utilizationSecIdle 28497.805606982
scalar OsgEarthNet.uav[57] utilizationEnergyMission 148383.32532501
scalar OsgEarthNet.uav[57] utilizationEnergyMaintenance 82793.275485992
scalar OsgEarthNet.uav[57] utilizationEnergyCharge 228414.86804199
scalar OsgEarthNet.uav[57] utilizationEnergyOverdrawMission 0
scalar OsgEarthNet.uav[57] utilizationEnergyOverdrawMaintenance 0
scalar OsgEarthNet.uav[57] utilizationCountMissions 57
scalar OsgEarthNet.uav[57] utilizationCountManeuversMission 885
scalar OsgEarthNet.uav[57] utilizationCountManeuversMaintenance 114
scalar OsgEarthNet.uav[57] utilizationCountChargeState 57
scalar OsgEarthNet.uav[57] utilizationCountOverdrawnAfterMission 0
scalar OsgEarthNet.uav[57] utilizationCountIdleState 55
scalar OsgEarthNet.uav[57] utilizationFail 0
scalar OsgEarthNet.uav[57] simulationTime 259200
scalar OsgEarthNet.uav[58] utilizationSecMission 35844.334441441
scalar OsgEarthNet.uav[58] utilizationSecMaintenance 14912.250145498
scalar OsgEarthNet.uav[58] utilizationSecCharge 185185.96414903
scalar OsgEarthNet.uav[58] utilizationSecIdle 23257.450264031
scalar OsgEarthNet.uav[58] utilizationEnergyMission 174477.86867523
scalar OsgEarthNet.uav[58] utilizationEnergyMaintenance 67514.868980408
scalar OsgEarthNet.uav[58] utilizationEnergyCharge 240349.26635742
scalar OsgEarthNet.uav[58] utilizationEnergyOverdrawMission 0
scalar OsgEarthNet.uav[58] utilizationEnergyOverdrawMaintenance 0
scalar OsgEarthNet.uav[58] utilizationCountMissions 53
scalar OsgEarthNet.uav[58] utilizationCountManeuversMission 1203
scalar OsgEarthNet.uav[58] utilizationCountManeuversMaintenance 106
scalar OsgEarthNet.uav[58] utilizationCountChargeState 53
scalar OsgEarthNet.uav[58] utilizationCountOverdrawnAfterMission 0
scalar OsgEarthNet.uav[58] utilizationCountIdleState 50
scalar OsgEarthNet.uav[58] utilizationFail 0
scalar OsgEarthNet.uav[58] simulationTime 259200
scalar OsgEarthNet.uav[59] utilizationSecMission 26599.259279808
scalar OsgEarthNet.uav[59] utilizationSecMaintenance 16979.148739544
scalar OsgEarthNet.uav[59] utilizationSecCharge 161812.27386716
scalar OsgEarthNet.uav[59] utilizationSecIdle 53809.317113489
scalar OsgEarthNet.uav[59] utilizationEnergyMission 128520.35675049
scalar OsgEarthNet.uav[59] utilizationEnergyMaintenance 79697.623310089
scalar OsgEarthNet.uav[59] utilizationEnergyCharge 208672.53198242
scalar OsgEarthNet.uav[59] utilizationEnergyOverdrawMission 0
scalar OsgEarthNet.uav[59] utilizationEnergyOverdrawMaintenance 0
scalar OsgEarthNet.uav[59] utilizationCountMissions 47
scalar OsgEarthNet.uav[59] utilizationCountManeuversMission 915
scalar OsgEarthNet.uav[59] utilizationCountManeuversMaintenance 94
scalar OsgEarthNet.uav[59] utilizationCountChargeState 47
scalar OsgEarthNet.uav[59] utilizationCountOverdrawnAfterMission 0
scalar OsgEarthNet.uav[59] utilizationCountIdleState 47
scalar OsgEarthNet.uav[59] utilizationFail 0
scalar OsgEarthNet.uav[59] simulationTime 259200
scalar OsgEarthNet.uav[60] utilizationSecMission 23079.010174875
scalar OsgEarthNet.uav[60] utilizationSecMaintenance 15468.983825125
scalar OsgEarthNet.uav[60] utilizationSecCharge 141040
scalar OsgEarthNet.uav[60] utilizationSecIdle 79612.005
scalar OsgEarthNet.uav[60] utilizationEnergyMission 111485.11049652
scalar OsgEarthNet.uav[60] utilizationEnergyMaintenance 73400.670837857
scalar OsgEarthNet.uav[60] utilizationEnergyCharge 182088.17138672
scalar OsgEarthNet.uav[60] utilizationEnergyOverdrawMission 0
scalar OsgEarthNet.uav[60] utilizationEnergyOverdrawMaintenance 0
scalar OsgEarthNet.uav[60] utilizationCountMissions 41
scalar OsgEarthNet.uav[60] utilizationCountManeuversMission 785
scalar OsgEarthNet.uav[60] utilizationCountManeuversMaintenance 82
scalar OsgEarthNet.uav[60] utilizationCountChargeState 40
scalar OsgEarthNet.uav[60] utilizationCountOverdrawnAfterMission 0
scalar OsgEarthNet.uav[60] utilizationCountIdleState 41
scalar OsgEarthNet.uav[60] utilizationFail 0
scalar OsgEarthNet.uav[60] simulationTime 259200
scalar OsgEarthNet.uav[61] utilizationSecMission 32412.937993434
scalar OsgEarthNet.uav[61] utilizationSecMaintenance 16415.397599669
scalar OsgEarthNet.uav[61] utilizationSecCharge 182357.99522891
scalar OsgEarthNet.uav[61] utilizationSecIdle 28013.668177988
scalar OsgEarthNet.uav[61] utilizationEnergyMission 156833.47712326
scalar OsgEarthNet.uav[61] utilizationEnergyMaintenance 75834.736076355
scalar OsgEarthNet.uav[61] utilizationEnergyCharge 234035.09619141
scalar OsgEarthNet.uav[61] utilizationEnergyOverdrawMission 0
scalar OsgEarthNet.uav[61] utilizationEnergyOverdrawMaintenance 0
scalar OsgEarthNet.uav[61] utilizationCountMissions 53
scalar OsgEarthNet.uav[61] utilizationCountManeuversMission 1061
scalar OsgEarthNet.uav[61] utilizationCountManeuversMaintenance 106
scalar OsgEarthNet.uav[61] utilizationCountChargeState 53
scalar OsgEarthNet.uav[61] utilizationCountOverdrawnAfterMission 0
scalar OsgEarthNet.uav[61] utilizationCountIdleState 51
scalar OsgEarthNet.uav[61] utilizationFail 0
scalar OsgEarthNet.uav[61] simulationTime 259200
scalar OsgEarthNet.uav[62] utilizationSecMission 35918.292011741
scalar OsgEarthNet.uav[62] utilizationSecMaintenance 14740.033936672
scalar OsgEarthNet.uav[62] utilizationSecCharge 184560
scalar OsgEarthNet.uav[62] utilizationSecIdle 23981.673051586
scalar OsgEarthNet.uav[62] utilizationEnergyMission 174051.49060233
scalar OsgEarthNet.uav[62] utilizationEnergyMaintenance 67575.023586273
scalar OsgEarthNet.uav[62] utilizationEnergyCharge 239937.08789062
scalar OsgEarthNet.uav[62] utilizationEnergyOverdrawMission 0
scalar OsgEarthNet.uav[62] utilizationEnergyOverdrawMaintenance 0
scalar OsgEarthNet.uav[62] utilizationCountMissions 52
scalar OsgEarthNet.uav[62] utilizationCountManeuversMission 1070
scalar OsgEarthNet.uav[62] utilizationCountManeuversMaintenance 105
scalar OsgEarthNet.uav[62] utilizationCountChargeState 52
scalar OsgEarthNet.uav[62] utilizationCountOverdrawnAfterMission 0
scalar OsgEarthNet.uav[62] utilizationCountIdleState 49
scalar OsgEarthNet.uav[62] utilizationFail 0
scalar OsgEarthNet.uav[62] simulationTime 259200
scalar OsgEarthNet.uav[63] utilizationSecMission 25740.994707695
scalar OsgEarthNet.uav[63] utilizationSecMaintenance 15774.969828047
scalar OsgEarthNet.uav[63] utilizationSecCharge 151797.5115767
scalar OsgEarthNet.uav[63] utilizationSecIdle 65886.522887558
scalar OsgEarthNet.uav[63] utilizationEnergyMission 124336.81137085
scalar OsgEarthNet.uav[63] utilizationEnergyMaintenance 75256.457893371
scalar OsgEarthNet.uav[63] utilizationEnergyCharge 196023.52514648
scalar OsgEarthNet.uav[63] utilizationEnergyOverdrawMission 0
scalar OsgEarthNet.uav[63] utilizationEnergyOverdrawMaintenance 0
scalar OsgEarthNet.uav[63] utilizationCountMissions 44
scalar OsgEarthNet.uav[63] utilizationCountManeuversMission 823
scalar OsgEarthNet.uav[63] utilizationCountManeuversMaintenance 88
scalar OsgEarthNet.uav[63] utilizationCountChargeState 44
scalar OsgEarthNet.uav[63] utilizationCountOverdrawnAfterMission 0
scalar OsgEarthNet.uav[63] utilizationCountIdleState 44
scalar OsgEarthNet.uav[63] utilizationFail 0
scalar OsgEarthNet.uav[63] simulationTime 259200
scalar OsgEarthNet.uav[64] utilizationSecMission 31653.612113863
scalar OsgEarthNet.uav[64] utilizationSecMaintenance 15930.87881855
scalar OsgEarthNet.uav[64] utilizationSecCharge 181233.50306759
scalar OsgEarthNet.uav[64] utilizationSecIdle 30382.005
scalar OsgEarthNet.uav[64] utilizationEnergyMission 148968.51509857
scalar OsgEarthNet.uav[64] utilizationEnergyMaintenance 75914.511241913
scalar OsgEarthNet.uav[64] utilizationEnergyCharge 225695.4921875
scalar OsgEarthNet.uav[64] utilizationEnergyOverdrawMission 0
scalar OsgEarthNet.uav[64] utilizationEnergyOverdrawMaintenance 0
scalar OsgEarthNet.uav[64] utilizationCountMissions 57
scalar OsgEarthNet.uav[64] utilizationCountManeuversMission 794
scalar OsgEarthNet.uav[64] utilizationCountManeuversMaintenance 114
scalar OsgEarthNet.uav[64] utilizationCountChargeState 57
scalar OsgEarthNet.uav[64] utilizationCountOverdrawnAfterMission 0
scalar OsgEarthNet.uav[64] utilizationCountIdleState 55
scalar OsgEarthNet.uav[64] utilizationFail 0
scalar OsgEarthNet.uav[64] simulationTime 259200
scalar OsgEarthNet.uav[65] utilizationSecMission 36892.258001375
scalar OsgEarthNet.uav[65] utilizationSecMaintenance 13872.726655709
scalar OsgEarthNet.uav[65] utilizationSecCharge 183113.01434292
scalar OsgEarthNet.uav[65] utilizationSecIdle 25322
scalar OsgEarthNet.uav[65] utilizationEnergyMission 175769.99783707
scalar OsgEarthNet.uav[65] utilizationEnergyMaintenance 63321.478713989
scalar OsgEarthNet.uav[65] utilizationEnergyCharge 239493.43969727
scalar OsgEarthNet.uav[65] utilizationEnergyOverdrawMission 0
scalar OsgEarthNet.uav[65] utilizationEnergyOverdrawMaintenance 0
scalar OsgEarthNet.uav[65] utilizationCountMissions 52
scalar OsgEarthNet.uav[65] utilizationCountManeuversMission 1043
scalar OsgEarthNet.uav[65] utilizationCountManeuversMaintenance 104
scalar OsgEarthNet.uav[65] utilizationCountChargeState 52
scalar OsgEarthNet.uav[65] utilizationCountOverdrawnAfterMission 0
scalar OsgEarthNet.uav[65] utilizationCountIdleState 49
scalar OsgEarthNet.uav[65] utilizationFail 0
scalar OsgEarthNet.uav[65] simulationTime 259200
scalar OsgEarthNet.uav[66] utilizationSecMission 25131.252746445
scalar OsgEarthNet.uav[66] utilizationSecMaintenance 15187.047458928
scalar OsgEarthNet.uav[66] utilizationSecCharge 149849.68579463
scalar OsgEarthNet.uav[66] utilizationSecIdle 69032.013
scalar OsgEarthNet.uav[66] utilizationEnergyMission 120049.89577866
scalar OsgEarthNet.uav[66] utilizationEnergyMaintenance 72194.523166656
scalar OsgEarthNet.uav[66] utilizationEnergyCharge 193095.98876953
scalar OsgEarthNet.uav[66] utilizationEnergyOverdrawMission 0
scalar OsgEarthNet.uav[66] utilizationEnergyOverdrawMaintenance 0
scalar OsgEarthNet.uav[66] utilizationCountMissions 43
scalar OsgEarthNet.uav[66] utilizationCountManeuversMission 788
scalar OsgEarthNet.uav[66] utilizationCountManeuversMaintenance 86
scalar OsgEarthNet.uav[66] utilizationCountChargeState 43
scalar OsgEarthNet.uav[66] utilizationCountOverdrawnAfterMission 0
scalar OsgEarthNet.uav[66] utilizationCountIdleState 43
scalar OsgEarthNet.uav[66] utilizationFail 0
scalar OsgEarthNet.uav[66] simulationTime 259200
scalar OsgEarthNet.uav[67] utilizationSecMission 29678.636808317
scalar OsgEarthNet.uav[67] utilizationSecMaintenance 17755.897600217
scalar OsgEarthNet.uav[67] utilizationSecCharge 183950
scalar OsgEarthNet.uav[67] utilizationSecIdle 27815.464591466
scalar OsgEarthNet.uav[67] utilizationEnergyMission 142276.03152847
scalar OsgEarthNet.uav[67] utilizationEnergyMaintenance 84110.831466675
scalar OsgEarthNet.uav[67] utilizationEnergyCharge 225370.31958008
scalar OsgEarthNet.uav[67] utilizationEnergyOverdrawMission 0
scalar OsgEarthNet.uav[67] utilizationEnergyOverdrawMaintenance 0
scalar OsgEarthNet.uav[67] utilizationCountMissions 59
scalar OsgEarthNet.uav[67] utilizationCountManeuversMission 798
scalar OsgEarthNet.uav[67] utilizationCountManeuversMaintenance 118
scalar OsgEarthNet.uav[67] utilizationCountChargeState 59
scalar OsgEarthNet.uav[67] utilizationCountOverdrawnAfterMission 0
scalar OsgEarthNet.uav[67] utilizationCountIdleState 59
scalar OsgEarthNet.uav[67] utilizationFail 0
scalar OsgEarthNet.uav[67] simulationTime 259200
scalar OsgEarthNet.uav[68] utilizationSecMission 36516.496305462
scalar OsgEarthNet.uav[68] utilizationSecMaintenance 13840.220612197
scalar OsgEarthNet.uav[68] utilizationSecCharge 183051.27908234
scalar OsgEarthNet.uav[68] utilizationSecIdle 25792.003
scalar OsgEarthNet.uav[68] utilizationEnergyMission 178280.49595642
scalar OsgEarthNet.uav[68] utilizationEnergyMaintenance 63834.844100952
scalar OsgEarthNet.uav[68] utilizationEnergyCharge 238330.46826172
scalar OsgEarthNet.uav[68] utilizationEnergyOverdrawMission 0
scalar OsgEarthNet.uav[68] utilizationEnergyOverdrawMaintenance 0
scalar OsgEarthNet.uav[68] utilizationCountMissions 52
scalar OsgEarthNet.uav[68] utilizationCountManeuversMission 1184
scalar OsgEarthNet.uav[68] utilizationCountManeuversMaintenance 104
scalar OsgEarthNet.uav[68] utilizationCountChargeState 52
scalar OsgEarthNet.uav[68] utilizationCountOverdrawnAfterMission 0
scalar OsgEarthNet.uav[68] utilizationCountIdleState 47
scalar OsgEarthNet.uav[68] utilizationFail 0
scalar OsgEarthNet.uav[68] simulationTime 259200
scalar OsgEarthNet.uav[69] utilizationSecMission 26090.002441285
scalar OsgEarthNet.uav[69] utilizationSecMaintenance 17125.200994873
scalar OsgEarthNet.uav[69] utilizationSecCharge 160192.79356384
scalar OsgEarthNet.uav[69] utilizationSecIdle 55792.002
scalar OsgEarthNet.uav[69] utilizationEnergyMission 125937.03547668
scalar OsgEarthNet.uav[69] utilizationEnergyMaintenance 81720.405342102
scalar OsgEarthNet.uav[69] utilizationEnergyCharge 207319.69921875
scalar OsgEarthNet.uav[69] utilizationEnergyOverdrawMission 0
scalar OsgEarthNet.uav[69] utilizationEnergyOverdrawMaintenance 0
scalar OsgEarthNet.uav[69] utilizationCountMissions 46
scalar OsgEarthNet.uav[69] utilizationCountManeuversMission 888
scalar OsgEarthNet.uav[69] utilizationCountManeuversMaintenance 92
scalar OsgEarthNet.uav[69] utilizationCountChargeState 46
scalar OsgEarthNet.uav[69] utilizationCountOverdrawnAfterMission 0
scalar OsgEarthNet.uav[69] utilizationCountIdleState 46
scalar OsgEarthNet.uav[69] utilizationFail 0
scalar OsgEarthNet.uav[69] simulationTime 259200
scalar OsgEarthNet.uav[70] utilizationSecMission 25881.510785196
scalar OsgEarthNet.uav[70] utilizationSecMaintenance 15688.754507989
scalar OsgEarthNet.uav[70] utilizationSecCharge 154300
scalar OsgEarthNet.uav[70] utilizationSecIdle 63329.733706815
scalar OsgEarthNet.uav[70] utilizationEnergyMission 124327.37973404
scalar OsgEarthNet.uav[70] utilizationEnergyMaintenance 73701.518569946
scalar OsgEarthNet.uav[70] utilizationEnergyCharge 198685.89404297
scalar OsgEarthNet.uav[70] utilizationEnergyOverdrawMission 0
scalar OsgEarthNet.uav[70] utilizationEnergyOverdrawMaintenance 0
scalar OsgEarthNet.uav[70] utilizationCountMissions 44
scalar OsgEarthNet.uav[70] utilizationCountManeuversMission 821
scalar OsgEarthNet.uav[70] utilizationCountManeuversMaintenance 88
scalar OsgEarthNet.uav[70] utilizationCountChargeState 44
scalar OsgEarthNet.uav[70] utilizationCountOverdrawnAfterMission 0
scalar OsgEarthNet.uav[70] utilizationCountIdleState 45
scalar OsgEarthNet.uav[70] utilizationFail 0
scalar OsgEarthNet.uav[70] simulationTime 259200
scalar OsgEarthNet.uav[71] utilizationSecMission 34745.607215254
scalar OsgEarthNet.uav[71] utilizationSecMaintenance 14979.62401596
scalar OsgEarthNet.uav[71] utilizationSecCharge 184110
scalar OsgEarthNet.uav[71] utilizationSecIdle 25364.767768786
scalar OsgEarthNet.uav[71] utilizationEnergyMission 168508.48279953
scalar OsgEarthNet.uav[71] utilizationEnergyMaintenance 69612.363204956
scalar OsgEarthNet.uav[71] utilizationEnergyCharge 238668.15869141
scalar OsgEarthNet.uav[71] utilizationEnergyOverdrawMission 0
scalar OsgEarthNet.uav[71] utilizationEnergyOverdrawMaintenance 0
scalar OsgEarthNet.uav[71] utilizationCountMissions 52
scalar OsgEarthNet.uav[71] utilizationCountManeuversMission 1151
scalar OsgEarthNet.uav[71] utilizationCountManeuversMaintenance 104
scalar OsgEarthNet.uav[71] utilizationCountChargeState 52
scalar OsgEarthNet.uav[71] utilizationCountOverdrawnAfterMission 0
scalar OsgEarthNet.uav[71] utilizationCountIdleState 50
scalar OsgEarthNet.uav[71] utilizationFail 0
scalar OsgEarthNet.uav[71] simulationTime 259200
scalar OsgEarthNet.uav[72] utilizationSecMission 35417.172251035
scalar OsgEarthNet.uav[72] utilizationSecMaintenance 14758.783833801
scalar OsgEarthNet.uav[72] utilizationSecCharge 182974.20610112
scalar OsgEarthNet.uav[72] utilizationSecIdle 26049.83681404
scalar OsgEarthNet.uav[72] utilizationEnergyMission 174177.39086533
scalar OsgEarthNet.uav[72] utilizationEnergyMaintenance 68142.249355316
scalar OsgEarthNet.uav[72] utilizationEnergyCharge 237784.6862793
scalar OsgEarthNet.uav[72] utilizationEnergyOverdrawMission 0
scalar OsgEarthNet.uav[72] utilizationEnergyOverdrawMaintenance 0
scalar OsgEarthNet.uav[72] utilizationCountMissions 52
scalar OsgEarthNet.uav[72] utilizationCountManeuversMission 1151
scalar OsgEarthNet.uav[72] utilizationCountManeuversMaintenance 104
scalar OsgEarthNet.uav[72] utilizationCountChargeState 52
scalar OsgEarthNet.uav[72] utilizationCountOverdrawnAfterMission 0
scalar OsgEarthNet.uav[72] utilizationCountIdleState 52
scalar OsgEarthNet.uav[72] utilizationFail 0
scalar OsgEarthNet.uav[72] simulationTime 259200
scalar OsgEarthNet.uav[73] utilizationSecMission 25690.627593865
scalar OsgEarthNet.uav[73] utilizationSecMaintenance 15636.654057127
scalar OsgEarthNet.uav[73] utilizationSecCharge 152766.82061365
scalar OsgEarthNet.uav[73] utilizationSecIdle 65105.896735363
scalar OsgEarthNet.uav[73] utilizationEnergyMission 125861.26137543
scalar OsgEarthNet.uav[73] utilizationEnergyMaintenance 73831.290676117
scalar OsgEarthNet.uav[73] utilizationEnergyCharge 196997.66455078
scalar OsgEarthNet.uav[73] utilizationEnergyOverdrawMission 0
scalar OsgEarthNet.uav[73] utilizationEnergyOverdrawMaintenance 0
scalar OsgEarthNet.uav[73] utilizationCountMissions 44
scalar OsgEarthNet.uav[73] utilizationCountManeuversMission 842
scalar OsgEarthNet.uav[73] utilizationCountManeuversMaintenance 88
scalar OsgEarthNet.uav[73] utilizationCountChargeState 44
scalar OsgEarthNet.uav[73] utilizationCountOverdrawnAfterMission 0
scalar OsgEarthNet.uav[73] utilizationCountIdleState 44
scalar OsgEarthNet.uav[73] utilizationFail 0
scalar OsgEarthNet.uav[73] simulationTime 259200
scalar OsgEarthNet.uav[74] utilizationSecMission 31379.987615658
scalar OsgEarthNet.uav[74] utilizationSecMaintenance 17026.251984169
scalar OsgEarthNet.uav[74] utilizationSecCharge 183146.44331834
scalar OsgEarthNet.uav[74] utilizationSecIdle 27647.316081831
scalar OsgEarthNet.uav[74] utilizationEnergyMission 149906.81523895
scalar OsgEarthNet.uav[74] utilizationEnergyMaintenance 80828.350791931
scalar OsgEarthNet.uav[74] utilizationEnergyCharge 229509.73583984
scalar OsgEarthNet.uav[74] utilizationEnergyOverdrawMission 0
scalar OsgEarthNet.uav[74] utilizationEnergyOverdrawMaintenance 0
scalar OsgEarthNet.uav[74] utilizationCountMissions 57
scalar OsgEarthNet.uav[74] utilizationCountManeuversMission 873
scalar OsgEarthNet.uav[74] utilizationCountManeuversMaintenance 114
scalar OsgEarthNet.uav[74] utilizationCountChargeState 57
scalar OsgEarthNet.uav[74] utilizationCountOverdrawnAfterMission 0
scalar OsgEarthNet.uav[74] utilizationCountIdleState 55
scalar OsgEarthNet.uav[74] utilizationFail 0
scalar OsgEarthNet.uav[74] simulationTime 259200
scalar OsgEarthNet.uav[75] utilizationSecMission 34401.393982184
scalar OsgEarthNet.uav[75] utilizationSecMaintenance 15086.351247002
scalar OsgEarthNet.uav[75] utilizationSecCharge 184730
scalar OsgEarthNet.uav[75] utilizationSecIdle 24982.253770815
scalar OsgEarthNet.uav[75] utilizationEnergyMission 166735.15424728
scalar OsgEarthNet.uav[75] utilizationEnergyMaintenance 70417.571304321
scalar OsgEarthNet.uav[75] utilizationEnergyCharge 239899.91674805
scalar OsgEarthNet.uav[75] utilizationEnergyOverdrawMission 0
scalar OsgEarthNet.uav[75] utilizationEnergyOverdrawMaintenance 0
scalar OsgEarthNet.uav[75] utilizationCountMissions 52
scalar OsgEarthNet.uav[75] utilizationCountManeuversMission 1206
scalar OsgEarthNet.uav[75] utilizationCountManeuversMaintenance 104
scalar OsgEarthNet.uav[75] utilizationCountChargeState 52
scalar OsgEarthNet.uav[75] utilizationCountOverdrawnAfterMission 0
scalar OsgEarthNet.uav[75] utilizationCountIdleState 51
scalar OsgEarthNet.uav[75] utilizationFail 0
scalar OsgEarthNet.uav[75] simulationTime 259200
scalar OsgEarthNet.uav[76] utilizationSecMission 25429.37300297
scalar OsgEarthNet.uav[76] utilizationSecMaintenance 14550.682728329
scalar OsgEarthNet.uav[76] utilizationSecCharge 147320
scalar OsgEarthNet.uav[76] utilizationSecIdle 71899.9432687
scalar OsgEarthNet.uav[76] utilizationEnergyMission 121827.79453017
scalar OsgEarthNet.uav[76] utilizationEnergyMaintenance 69187.391819
scalar OsgEarthNet.uav[76] utilizationEnergyCharge 189906.65478516
scalar OsgEarthNet.uav[76] utilizationEnergyOverdrawMission 0
scalar OsgEarthNet.uav[76] utilizationEnergyOverdrawMaintenance 0
scalar OsgEarthNet.uav[76] utilizationCountMissions 42
scalar OsgEarthNet.uav[76] utilizationCountManeuversMission 752
scalar OsgEarthNet.uav[76] utilizationCountManeuversMaintenance 85
scalar OsgEarthNet.uav[76] utilizationCountChargeState 42
scalar OsgEarthNet.uav[76] utilizationCountOverdrawnAfterMission 0
scalar OsgEarthNet.uav[76] utilizationCountIdleState 43
scalar OsgEarthNet.uav[76] utilizationFail 0
scalar OsgEarthNet.uav[76] simulationTime 259200
scalar OsgEarthNet.uav[77] utilizationSecMission 32143.514603099
scalar OsgEarthNet.uav[77] utilizationSecMaintenance 16470.620669375
scalar OsgEarthNet.uav[77] utilizationSecCharge 183613.86372753
scalar OsgEarthNet.uav[77] utilizationSecIdle 26972
scalar OsgEarthNet.uav[77] utilizationEnergyMission 153402.17193222
scalar OsgEarthNet.uav[77] utilizationEnergyMaintenance 77018.088195801
scalar OsgEarthNet.uav[77] utilizationEnergyCharge 230570.01660156
scalar OsgEarthNet.uav[77] utilizationEnergyOverdrawMission 0
scalar OsgEarthNet.uav[77] utilizationEnergyOverdrawMaintenance 0
scalar OsgEarthNet.uav[77] utilizationCountMissions 56
scalar OsgEarthNet.uav[77] utilizationCountManeuversMission 887
scalar OsgEarthNet.uav[77] utilizationCountManeuversMaintenance 112
scalar OsgEarthNet.uav[77] utilizationCountChargeState 56
scalar OsgEarthNet.uav[77] utilizationCountOverdrawnAfterMission 0
scalar OsgEarthNet.uav[77] utilizationCountIdleState 55
scalar OsgEarthNet.uav[77] utilizationFail 0
scalar OsgEarthNet.uav[77] simulationTime 259200
scalar OsgEarthNet.cs[0] usedPower 4000034.1358682
scalar OsgEarthNet.cs[0] chargedPower 4000034.1358682
scalar OsgEarthNet.cs[0] chargedMobileNodes 877
scalar OsgEarthNet.cs[0] reservations 890
scalar OsgEarthNet.cs[1] usedPower 5707634.4814345
scalar OsgEarthNet.cs[1] chargedPower 5707634.4814345
scalar OsgEarthNet.cs[1] chargedMobileNodes 1365
scalar OsgEarthNet.cs[1] reservations 1414
scalar OsgEarthNet.cs[2] usedPower 6975714.7348059
scalar OsgEarthNet.cs[2] chargedPower 6975714.7348059
scalar OsgEarthNet.cs[2] chargedMobileNodes 1422
scalar OsgEarthNet.cs[2] reservations 1524

