version 2
run Szenario_Hotel_Gabelbach-238-20180719-09:43:56-7784
attr configname Szenario_Hotel_Gabelbach
attr datetime 20180719-09:43:56
attr experiment Szenario_Hotel_Gabelbach
attr inifile omnetpp.ini
attr iterationvars "$replM=2, $biWeight=0.35, $replSearchM=1, $numUAVs=68"
attr iterationvarsf replM=2,biWeight=0.35,replSearchM=1,numUAVs=68-
attr measurement "$replM=2, $biWeight=0.35, $replSearchM=1, $numUAVs=68"
attr network OsgEarthNet
attr processid 7784
attr repetition 22
attr replication #22
attr resultdir results
attr runnumber 238
attr seedset 238
itervar biWeight 0.35
itervar numUAVs 68
itervar replM 2
itervar replSearchM 1
param *.osgEarthScene.scene "\"Szenario_Hotel_Gabelbach.earth\""
param *.playgroundLatitude 50.6830269
param *.playgroundLongitude 10.8538055
param *.playgroundWidth 3500m
param *.playgroundHeight 3500m
param *.cs[0].posX 3537m
param *.cs[0].posY 965m
param *.cs[0].posZ 538m
param *.cs[1].posX 312m
param *.cs[1].posY 1262m
param *.cs[1].posZ 539m
param *.cs[2].posX 2185m
param *.cs[2].posY 3026m
param *.cs[2].posZ 777m
param *.cs[3].posX 10m
param *.cs[3].posY 2200m
param *.cs[3].posZ 560m
param *.cs[4].posX 750m
param *.cs[4].posY 200m
param *.cs[4].posZ 540m
param *.cs[5].posX 2450m
param *.cs[5].posY 180m
param *.cs[5].posZ 524m
param *.cs[6].posX 3140m
param *.cs[6].posY 1790m
param *.cs[6].posZ 606m
param *.numCSs 3
param *.uav[*].replacementMethod 2
param *.uav[*].weightedSumWeight 0.35
param *.missionControl.replacementSearchMethod 1
param *.numUAVs 68
param *.*.timeStep 10s
param *.uav[*].commandPreviewCommandCount 20
param *.missionControl.missionFiles "\"missions\\\\Szenario_WB_Hotel_Gabelbach_Mission_Hotel.waypoints,missions\\\\Szenario_WB_Hotel_Gabelbach_Mission_Kickelhahn.waypoints,missions\\\\Szenario_WB_Hotel_Gabelbach_Mission_Ilmenau_Sportplatz.waypoints,missions\\\\Szenario_WB_Hotel_Gabelbach_Mission_Manebach_Mitte.waypoints,missions\\\\Szenario_WB_Hotel_Gabelbach_Mission_Manebach_Sued.waypoints,missions\\\\Szenario_WB_Hotel_Gabelbach_Hover_HoheSchlaufe.waypoints,missions\\\\Szenario_WB_Hotel_Gabelbach_Hover_Kickelhahn.waypoints,missions\\\\Szenario_WB_Hotel_Gabelbach_Hover_Gabelbachskopf.waypoints,missions\\\\Szenario_WB_Hotel_Gabelbach_Hover_Dachskopf.waypoints\""
param *.uav[0].startX 3537m
param *.uav[0].startY 965m
param *.uav[0].startZ 539m
param *.uav[1].startX 312m
param *.uav[1].startY 1262m
param *.uav[1].startZ 540m
param *.uav[2].startX 2185m
param *.uav[2].startY 3026m
param *.uav[2].startZ 778m
param *.uav[3].startX 3537m
param *.uav[3].startY 965m
param *.uav[3].startZ 539m
param *.uav[4].startX 312m
param *.uav[4].startY 1262m
param *.uav[4].startZ 540m
param *.uav[5].startX 2185m
param *.uav[5].startY 3026m
param *.uav[5].startZ 778m
param *.uav[6].startX 3537m
param *.uav[6].startY 965m
param *.uav[6].startZ 539m
param *.uav[7].startX 312m
param *.uav[7].startY 1262m
param *.uav[7].startZ 540m
param *.uav[8].startX 2185m
param *.uav[8].startY 3026m
param *.uav[8].startZ 778m
param *.uav[9].startX 3537m
param *.uav[9].startY 965m
param *.uav[9].startZ 539m
param *.uav[10].startX 3537m
param *.uav[10].startY 965m
param *.uav[10].startZ 539m
param *.uav[11].startX 312m
param *.uav[11].startY 1262m
param *.uav[11].startZ 540m
param *.uav[12].startX 2185m
param *.uav[12].startY 3026m
param *.uav[12].startZ 778m
param *.uav[13].startX 3537m
param *.uav[13].startY 965m
param *.uav[13].startZ 539m
param *.uav[14].startX 312m
param *.uav[14].startY 1262m
param *.uav[14].startZ 540m
param *.uav[15].startX 2185m
param *.uav[15].startY 3026m
param *.uav[15].startZ 778m
param *.uav[16].startX 3537m
param *.uav[16].startY 965m
param *.uav[16].startZ 539m
param *.uav[17].startX 312m
param *.uav[17].startY 1262m
param *.uav[17].startZ 540m
param *.uav[18].startX 2185m
param *.uav[18].startY 3026m
param *.uav[18].startZ 778m
param *.uav[19].startX 3537m
param *.uav[19].startY 965m
param *.uav[19].startZ 539m
param *.uav[20].startX 3537m
param *.uav[20].startY 965m
param *.uav[20].startZ 539m
param *.uav[21].startX 312m
param *.uav[21].startY 1262m
param *.uav[21].startZ 540m
param *.uav[22].startX 2185m
param *.uav[22].startY 3026m
param *.uav[22].startZ 778m
param *.uav[23].startX 3537m
param *.uav[23].startY 965m
param *.uav[23].startZ 539m
param *.uav[24].startX 312m
param *.uav[24].startY 1262m
param *.uav[24].startZ 540m
param *.uav[25].startX 2185m
param *.uav[25].startY 3026m
param *.uav[25].startZ 778m
param *.uav[26].startX 3537m
param *.uav[26].startY 965m
param *.uav[26].startZ 539m
param *.uav[27].startX 312m
param *.uav[27].startY 1262m
param *.uav[27].startZ 540m
param *.uav[28].startX 2185m
param *.uav[28].startY 3026m
param *.uav[28].startZ 778m
param *.uav[29].startX 3537m
param *.uav[29].startY 965m
param *.uav[29].startZ 539m
param *.uav[30].startX 3537m
param *.uav[30].startY 965m
param *.uav[30].startZ 539m
param *.uav[31].startX 312m
param *.uav[31].startY 1262m
param *.uav[31].startZ 540m
param *.uav[32].startX 2185m
param *.uav[32].startY 3026m
param *.uav[32].startZ 778m
param *.uav[33].startX 3537m
param *.uav[33].startY 965m
param *.uav[33].startZ 539m
param *.uav[34].startX 312m
param *.uav[34].startY 1262m
param *.uav[34].startZ 540m
param *.uav[35].startX 2185m
param *.uav[35].startY 3026m
param *.uav[35].startZ 778m
param *.uav[36].startX 3537m
param *.uav[36].startY 965m
param *.uav[36].startZ 539m
param *.uav[37].startX 312m
param *.uav[37].startY 1262m
param *.uav[37].startZ 540m
param *.uav[38].startX 2185m
param *.uav[38].startY 3026m
param *.uav[38].startZ 778m
param *.uav[39].startX 3537m
param *.uav[39].startY 965m
param *.uav[39].startZ 539m
param *.uav[40].startX 3537m
param *.uav[40].startY 965m
param *.uav[40].startZ 539m
param *.uav[41].startX 312m
param *.uav[41].startY 1262m
param *.uav[41].startZ 540m
param *.uav[42].startX 2185m
param *.uav[42].startY 3026m
param *.uav[42].startZ 778m
param *.uav[43].startX 3537m
param *.uav[43].startY 965m
param *.uav[43].startZ 539m
param *.uav[44].startX 312m
param *.uav[44].startY 1262m
param *.uav[44].startZ 540m
param *.uav[45].startX 2185m
param *.uav[45].startY 3026m
param *.uav[45].startZ 778m
param *.uav[46].startX 3537m
param *.uav[46].startY 965m
param *.uav[46].startZ 539m
param *.uav[47].startX 312m
param *.uav[47].startY 1262m
param *.uav[47].startZ 540m
param *.uav[48].startX 2185m
param *.uav[48].startY 3026m
param *.uav[48].startZ 778m
param *.uav[49].startX 3537m
param *.uav[49].startY 965m
param *.uav[49].startZ 539m
param *.uav[50].startX 3537m
param *.uav[50].startY 965m
param *.uav[50].startZ 539m
param *.uav[51].startX 312m
param *.uav[51].startY 1262m
param *.uav[51].startZ 540m
param *.uav[52].startX 2185m
param *.uav[52].startY 3026m
param *.uav[52].startZ 778m
param *.uav[53].startX 3537m
param *.uav[53].startY 965m
param *.uav[53].startZ 539m
param *.uav[54].startX 312m
param *.uav[54].startY 1262m
param *.uav[54].startZ 540m
param *.uav[55].startX 2185m
param *.uav[55].startY 3026m
param *.uav[55].startZ 778m
param *.uav[56].startX 3537m
param *.uav[56].startY 965m
param *.uav[56].startZ 539m
param *.uav[57].startX 312m
param *.uav[57].startY 1262m
param *.uav[57].startZ 540m
param *.uav[58].startX 2185m
param *.uav[58].startY 3026m
param *.uav[58].startZ 778m
param *.uav[59].startX 3537m
param *.uav[59].startY 965m
param *.uav[59].startZ 539m
param *.uav[60].startX 3537m
param *.uav[60].startY 965m
param *.uav[60].startZ 539m
param *.uav[61].startX 312m
param *.uav[61].startY 1262m
param *.uav[61].startZ 540m
param *.uav[62].startX 2185m
param *.uav[62].startY 3026m
param *.uav[62].startZ 778m
param *.uav[63].startX 3537m
param *.uav[63].startY 965m
param *.uav[63].startZ 539m
param *.uav[64].startX 312m
param *.uav[64].startY 1262m
param *.uav[64].startZ 540m
param *.uav[65].startX 2185m
param *.uav[65].startY 3026m
param *.uav[65].startZ 778m
param *.uav[66].startX 3537m
param *.uav[66].startY 965m
param *.uav[66].startZ 539m
param *.uav[67].startX 312m
param *.uav[67].startY 1262m
param *.uav[67].startZ 540m
param *.uav[68].startX 2185m
param *.uav[68].startY 3026m
param *.uav[68].startZ 778m
param *.uav[69].startX 3537m
param *.uav[69].startY 965m
param *.uav[69].startZ 539m
param *.uav[70].startX 3537m
param *.uav[70].startY 965m
param *.uav[70].startZ 539m
param *.uav[71].startX 312m
param *.uav[71].startY 1262m
param *.uav[71].startZ 540m
param *.uav[72].startX 2185m
param *.uav[72].startY 3026m
param *.uav[72].startZ 778m
param *.uav[73].startX 3537m
param *.uav[73].startY 965m
param *.uav[73].startZ 539m
param *.uav[74].startX 312m
param *.uav[74].startY 1262m
param *.uav[74].startZ 540m
param *.uav[75].startX 2185m
param *.uav[75].startY 3026m
param *.uav[75].startZ 778m
param *.uav[76].startX 3537m
param *.uav[76].startY 965m
param *.uav[76].startZ 539m
param *.uav[77].startX 312m
param *.uav[77].startY 1262m
param *.uav[77].startZ 540m
param *.uav[78].startX 2185m
param *.uav[78].startY 3026m
param *.uav[78].startZ 778m
param *.uav[79].startX 3537m
param *.uav[79].startY 965m
param *.uav[79].startZ 539m
param *.uav[80].startX 3537m
param *.uav[80].startY 965m
param *.uav[80].startZ 539m
param *.uav[81].startX 312m
param *.uav[81].startY 1262m
param *.uav[81].startZ 540m
param *.uav[82].startX 2185m
param *.uav[82].startY 3026m
param *.uav[82].startZ 778m
param *.uav[83].startX 3537m
param *.uav[83].startY 965m
param *.uav[83].startZ 539m
param *.uav[84].startX 312m
param *.uav[84].startY 1262m
param *.uav[84].startZ 540m
param *.uav[85].startX 2185m
param *.uav[85].startY 3026m
param *.uav[85].startZ 778m
param *.uav[86].startX 3537m
param *.uav[86].startY 965m
param *.uav[86].startZ 539m
param *.uav[87].startX 312m
param *.uav[87].startY 1262m
param *.uav[87].startZ 540m
param *.uav[88].startX 2185m
param *.uav[88].startY 3026m
param *.uav[88].startZ 778m
param *.uav[89].startX 3537m
param *.uav[89].startY 965m
param *.uav[89].startZ 539m
param *.uav[90].startX 3537m
param *.uav[90].startY 965m
param *.uav[90].startZ 539m
param *.uav[91].startX 312m
param *.uav[91].startY 1262m
param *.uav[91].startZ 540m
param *.uav[92].startX 2185m
param *.uav[92].startY 3026m
param *.uav[92].startZ 778m
param *.uav[93].startX 3537m
param *.uav[93].startY 965m
param *.uav[93].startZ 539m
param *.uav[94].startX 312m
param *.uav[94].startY 1262m
param *.uav[94].startZ 540m
param *.uav[95].startX 2185m
param *.uav[95].startY 3026m
param *.uav[95].startZ 778m
param *.uav[96].startX 3537m
param *.uav[96].startY 965m
param *.uav[96].startZ 539m
param *.uav[97].startX 312m
param *.uav[97].startY 1262m
param *.uav[97].startZ 540m
param *.uav[98].startX 2185m
param *.uav[98].startY 3026m
param *.uav[98].startZ 778m
param *.uav[99].startX 3537m
param *.uav[99].startY 965m
param *.uav[99].startZ 539m
param *.osgEarthScene.scene "\"boston.earth\""
param *.playgroundLatitude 42.3558
param *.playgroundLongitude -71.0677
param *.playgroundWidth 400m
param *.playgroundHeight 200m
param *.channelController.connectionColor "\"#0000FF40\""
param *.channelController.showConnections false
param *.uav[*].modelURL "\"quadrocopter.small.obj.15.scale.0,0,90.rot\""
param *.uav[*].labelColor "\"#FF7C00CC\""
param *.uav[*].label2Color "\"#FF7C00EE\""
param *.uav[*].batteryCapacity 5200mAh
param *.uav[*].batteryRemaining uav[index].batteryCapacity
param *.uav[*].predictionQuantile 0.95
param *.uav[*].replacementMethod 2
param *.uav[*].weightedSumWeight 0.5
param *.cs[*].modelURL "\"chargingstation_v1.osgt.2.scale.0,0,0.rot.0,0,-15e-1.trans\""
param *.cs[*].spotsWaiting 999
param *.cs[*].spotsCharging 999
param *.cs[*].chargeEffectivenessPercentage 100
param *.cs[*].nonLinearPhaseStartPercentage 85
param *.cs[*].chargeCurrent 6.0A
param *.cs[*].prioritizeFastCharge true
param *.missionControl.replacementSearchMethod 0
param *.*.timeStep 9s

scalar OsgEarthNet.uav[0] utilizationSecMission 30453.753356766
scalar OsgEarthNet.uav[0] utilizationSecMaintenance 18042.216289784
scalar OsgEarthNet.uav[0] utilizationSecCharge 179662.02235345
scalar OsgEarthNet.uav[0] utilizationSecIdle 31042.007
scalar OsgEarthNet.uav[0] utilizationEnergyMission 147213.23756409
scalar OsgEarthNet.uav[0] utilizationEnergyMaintenance 85408.381813049
scalar OsgEarthNet.uav[0] utilizationEnergyCharge 231914.48730469
scalar OsgEarthNet.uav[0] utilizationEnergyOverdrawMission 0
scalar OsgEarthNet.uav[0] utilizationEnergyOverdrawMaintenance 0
scalar OsgEarthNet.uav[0] utilizationCountMissions 52
scalar OsgEarthNet.uav[0] utilizationCountManeuversMission 950
scalar OsgEarthNet.uav[0] utilizationCountManeuversMaintenance 104
scalar OsgEarthNet.uav[0] utilizationCountChargeState 52
scalar OsgEarthNet.uav[0] utilizationCountOverdrawnAfterMission 0
scalar OsgEarthNet.uav[0] utilizationCountIdleState 52
scalar OsgEarthNet.uav[0] utilizationFail 0
scalar OsgEarthNet.uav[0] simulationTime 259200
scalar OsgEarthNet.uav[1] utilizationSecMission 27851.560734601
scalar OsgEarthNet.uav[1] utilizationSecMaintenance 19543.283388349
scalar OsgEarthNet.uav[1] utilizationSecCharge 187410
scalar OsgEarthNet.uav[1] utilizationSecIdle 24395.15487705
scalar OsgEarthNet.uav[1] utilizationEnergyMission 137576.88677597
scalar OsgEarthNet.uav[1] utilizationEnergyMaintenance 93337.425186157
scalar OsgEarthNet.uav[1] utilizationEnergyCharge 229501.46044922
scalar OsgEarthNet.uav[1] utilizationEnergyOverdrawMission 0
scalar OsgEarthNet.uav[1] utilizationEnergyOverdrawMaintenance 0
scalar OsgEarthNet.uav[1] utilizationCountMissions 60
scalar OsgEarthNet.uav[1] utilizationCountManeuversMission 855
scalar OsgEarthNet.uav[1] utilizationCountManeuversMaintenance 120
scalar OsgEarthNet.uav[1] utilizationCountChargeState 60
scalar OsgEarthNet.uav[1] utilizationCountOverdrawnAfterMission 0
scalar OsgEarthNet.uav[1] utilizationCountIdleState 61
scalar OsgEarthNet.uav[1] utilizationFail 0
scalar OsgEarthNet.uav[1] simulationTime 259200
scalar OsgEarthNet.uav[2] utilizationSecMission 40086.405291279
scalar OsgEarthNet.uav[2] utilizationSecMaintenance 16164.518364295
scalar OsgEarthNet.uav[2] utilizationSecCharge 195169.90023401
scalar OsgEarthNet.uav[2] utilizationSecIdle 7779.1751104107
scalar OsgEarthNet.uav[2] utilizationEnergyMission 190801.88355255
scalar OsgEarthNet.uav[2] utilizationEnergyMaintenance 74655.830181122
scalar OsgEarthNet.uav[2] utilizationEnergyCharge 260996.18884277
scalar OsgEarthNet.uav[2] utilizationEnergyOverdrawMission 0
scalar OsgEarthNet.uav[2] utilizationEnergyOverdrawMaintenance 0
scalar OsgEarthNet.uav[2] utilizationCountMissions 57
scalar OsgEarthNet.uav[2] utilizationCountManeuversMission 1136
scalar OsgEarthNet.uav[2] utilizationCountManeuversMaintenance 114
scalar OsgEarthNet.uav[2] utilizationCountChargeState 57
scalar OsgEarthNet.uav[2] utilizationCountOverdrawnAfterMission 0
scalar OsgEarthNet.uav[2] utilizationCountIdleState 38
scalar OsgEarthNet.uav[2] utilizationFail 0
scalar OsgEarthNet.uav[2] simulationTime 259200
scalar OsgEarthNet.uav[3] utilizationSecMission 39311.64660742
scalar OsgEarthNet.uav[3] utilizationSecMaintenance 16055.992900508
scalar OsgEarthNet.uav[3] utilizationSecCharge 195600.57348203
scalar OsgEarthNet.uav[3] utilizationSecIdle 8231.7860100454
scalar OsgEarthNet.uav[3] utilizationEnergyMission 189649.52500916
scalar OsgEarthNet.uav[3] utilizationEnergyMaintenance 73764.879997253
scalar OsgEarthNet.uav[3] utilizationEnergyCharge 261406.55859375
scalar OsgEarthNet.uav[3] utilizationEnergyOverdrawMission 0
scalar OsgEarthNet.uav[3] utilizationEnergyOverdrawMaintenance 0
scalar OsgEarthNet.uav[3] utilizationCountMissions 57
scalar OsgEarthNet.uav[3] utilizationCountManeuversMission 1186
scalar OsgEarthNet.uav[3] utilizationCountManeuversMaintenance 114
scalar OsgEarthNet.uav[3] utilizationCountChargeState 57
scalar OsgEarthNet.uav[3] utilizationCountOverdrawnAfterMission 0
scalar OsgEarthNet.uav[3] utilizationCountIdleState 33
scalar OsgEarthNet.uav[3] utilizationFail 0
scalar OsgEarthNet.uav[3] simulationTime 259200
scalar OsgEarthNet.uav[4] utilizationSecMission 27739.562608724
scalar OsgEarthNet.uav[4] utilizationSecMaintenance 19923.627875029
scalar OsgEarthNet.uav[4] utilizationSecCharge 185289.49243442
scalar OsgEarthNet.uav[4] utilizationSecIdle 26247.316081831
scalar OsgEarthNet.uav[4] utilizationEnergyMission 138197.74392319
scalar OsgEarthNet.uav[4] utilizationEnergyMaintenance 94444.574203491
scalar OsgEarthNet.uav[4] utilizationEnergyCharge 229323.82202148
scalar OsgEarthNet.uav[4] utilizationEnergyOverdrawMission 0
scalar OsgEarthNet.uav[4] utilizationEnergyOverdrawMaintenance 0
scalar OsgEarthNet.uav[4] utilizationCountMissions 59
scalar OsgEarthNet.uav[4] utilizationCountManeuversMission 961
scalar OsgEarthNet.uav[4] utilizationCountManeuversMaintenance 118
scalar OsgEarthNet.uav[4] utilizationCountChargeState 59
scalar OsgEarthNet.uav[4] utilizationCountOverdrawnAfterMission 0
scalar OsgEarthNet.uav[4] utilizationCountIdleState 59
scalar OsgEarthNet.uav[4] utilizationFail 0
scalar OsgEarthNet.uav[4] simulationTime 259200
scalar OsgEarthNet.uav[5] utilizationSecMission 39467.122508449
scalar OsgEarthNet.uav[5] utilizationSecMaintenance 16454.690039651
scalar OsgEarthNet.uav[5] utilizationSecCharge 195588.96683798
scalar OsgEarthNet.uav[5] utilizationSecIdle 7689.2196139157
scalar OsgEarthNet.uav[5] utilizationEnergyMission 190550.65618896
scalar OsgEarthNet.uav[5] utilizationEnergyMaintenance 76721.501903534
scalar OsgEarthNet.uav[5] utilizationEnergyCharge 262888.98876953
scalar OsgEarthNet.uav[5] utilizationEnergyOverdrawMission 0
scalar OsgEarthNet.uav[5] utilizationEnergyOverdrawMaintenance 0
scalar OsgEarthNet.uav[5] utilizationCountMissions 57
scalar OsgEarthNet.uav[5] utilizationCountManeuversMission 1113
scalar OsgEarthNet.uav[5] utilizationCountManeuversMaintenance 114
scalar OsgEarthNet.uav[5] utilizationCountChargeState 57
scalar OsgEarthNet.uav[5] utilizationCountOverdrawnAfterMission 0
scalar OsgEarthNet.uav[5] utilizationCountIdleState 31
scalar OsgEarthNet.uav[5] utilizationFail 0
scalar OsgEarthNet.uav[5] simulationTime 259200
scalar OsgEarthNet.uav[6] utilizationSecMission 30565.261700677
scalar OsgEarthNet.uav[6] utilizationSecMaintenance 17207.956235896
scalar OsgEarthNet.uav[6] utilizationSecCharge 179084.95833905
scalar OsgEarthNet.uav[6] utilizationSecIdle 32341.822724378
scalar OsgEarthNet.uav[6] utilizationEnergyMission 146243.35427475
scalar OsgEarthNet.uav[6] utilizationEnergyMaintenance 82217.9492836
scalar OsgEarthNet.uav[6] utilizationEnergyCharge 230953.27246094
scalar OsgEarthNet.uav[6] utilizationEnergyOverdrawMission 0
scalar OsgEarthNet.uav[6] utilizationEnergyOverdrawMaintenance 0
scalar OsgEarthNet.uav[6] utilizationCountMissions 51
scalar OsgEarthNet.uav[6] utilizationCountManeuversMission 899
scalar OsgEarthNet.uav[6] utilizationCountManeuversMaintenance 102
scalar OsgEarthNet.uav[6] utilizationCountChargeState 51
scalar OsgEarthNet.uav[6] utilizationCountOverdrawnAfterMission 0
scalar OsgEarthNet.uav[6] utilizationCountIdleState 51
scalar OsgEarthNet.uav[6] utilizationFail 0
scalar OsgEarthNet.uav[6] simulationTime 259200
scalar OsgEarthNet.uav[7] utilizationSecMission 38792.910499991
scalar OsgEarthNet.uav[7] utilizationSecMaintenance 17070.574175497
scalar OsgEarthNet.uav[7] utilizationSecCharge 195841.07123582
scalar OsgEarthNet.uav[7] utilizationSecIdle 7495.443088691
scalar OsgEarthNet.uav[7] utilizationEnergyMission 187291.15949249
scalar OsgEarthNet.uav[7] utilizationEnergyMaintenance 78310.559669495
scalar OsgEarthNet.uav[7] utilizationEnergyCharge 261520.95611572
scalar OsgEarthNet.uav[7] utilizationEnergyOverdrawMission 0
scalar OsgEarthNet.uav[7] utilizationEnergyOverdrawMaintenance 0
scalar OsgEarthNet.uav[7] utilizationCountMissions 58
scalar OsgEarthNet.uav[7] utilizationCountManeuversMission 1161
scalar OsgEarthNet.uav[7] utilizationCountManeuversMaintenance 116
scalar OsgEarthNet.uav[7] utilizationCountChargeState 58
scalar OsgEarthNet.uav[7] utilizationCountOverdrawnAfterMission 0
scalar OsgEarthNet.uav[7] utilizationCountIdleState 32
scalar OsgEarthNet.uav[7] utilizationFail 0
scalar OsgEarthNet.uav[7] simulationTime 259200
scalar OsgEarthNet.uav[8] utilizationSecMission 38724.703698026
scalar OsgEarthNet.uav[8] utilizationSecMaintenance 17113.291301974
scalar OsgEarthNet.uav[8] utilizationSecCharge 195580
scalar OsgEarthNet.uav[8] utilizationSecIdle 7782.004
scalar OsgEarthNet.uav[8] utilizationEnergyMission 188044.20354142
scalar OsgEarthNet.uav[8] utilizationEnergyMaintenance 78962.466197968
scalar OsgEarthNet.uav[8] utilizationEnergyCharge 262116.9699707
scalar OsgEarthNet.uav[8] utilizationEnergyOverdrawMission 0
scalar OsgEarthNet.uav[8] utilizationEnergyOverdrawMaintenance 0
scalar OsgEarthNet.uav[8] utilizationCountMissions 57
scalar OsgEarthNet.uav[8] utilizationCountManeuversMission 1269
scalar OsgEarthNet.uav[8] utilizationCountManeuversMaintenance 115
scalar OsgEarthNet.uav[8] utilizationCountChargeState 57
scalar OsgEarthNet.uav[8] utilizationCountOverdrawnAfterMission 0
scalar OsgEarthNet.uav[8] utilizationCountIdleState 30
scalar OsgEarthNet.uav[8] utilizationFail 0
scalar OsgEarthNet.uav[8] simulationTime 259200
scalar OsgEarthNet.uav[9] utilizationSecMission 30743.203032662
scalar OsgEarthNet.uav[9] utilizationSecMaintenance 18499.551131788
scalar OsgEarthNet.uav[9] utilizationSecCharge 183130
scalar OsgEarthNet.uav[9] utilizationSecIdle 26827.24483555
scalar OsgEarthNet.uav[9] utilizationEnergyMission 150225.15258211
scalar OsgEarthNet.uav[9] utilizationEnergyMaintenance 87508.615585327
scalar OsgEarthNet.uav[9] utilizationEnergyCharge 236209.7734375
scalar OsgEarthNet.uav[9] utilizationEnergyOverdrawMission 0
scalar OsgEarthNet.uav[9] utilizationEnergyOverdrawMaintenance 0
scalar OsgEarthNet.uav[9] utilizationCountMissions 52
scalar OsgEarthNet.uav[9] utilizationCountManeuversMission 957
scalar OsgEarthNet.uav[9] utilizationCountManeuversMaintenance 105
scalar OsgEarthNet.uav[9] utilizationCountChargeState 52
scalar OsgEarthNet.uav[9] utilizationCountOverdrawnAfterMission 0
scalar OsgEarthNet.uav[9] utilizationCountIdleState 53
scalar OsgEarthNet.uav[9] utilizationFail 0
scalar OsgEarthNet.uav[9] simulationTime 259200
scalar OsgEarthNet.uav[10] utilizationSecMission 29890.627593865
scalar OsgEarthNet.uav[10] utilizationSecMaintenance 20187.732272253
scalar OsgEarthNet.uav[10] utilizationSecCharge 183831.69487514
scalar OsgEarthNet.uav[10] utilizationSecIdle 25289.944258743
scalar OsgEarthNet.uav[10] utilizationEnergyMission 146015.89073944
scalar OsgEarthNet.uav[10] utilizationEnergyMaintenance 95677.178749084
scalar OsgEarthNet.uav[10] utilizationEnergyCharge 237564.95605469
scalar OsgEarthNet.uav[10] utilizationEnergyOverdrawMission 0
scalar OsgEarthNet.uav[10] utilizationEnergyOverdrawMaintenance 0
scalar OsgEarthNet.uav[10] utilizationCountMissions 53
scalar OsgEarthNet.uav[10] utilizationCountManeuversMission 1052
scalar OsgEarthNet.uav[10] utilizationCountManeuversMaintenance 106
scalar OsgEarthNet.uav[10] utilizationCountChargeState 53
scalar OsgEarthNet.uav[10] utilizationCountOverdrawnAfterMission 0
scalar OsgEarthNet.uav[10] utilizationCountIdleState 53
scalar OsgEarthNet.uav[10] utilizationFail 0
scalar OsgEarthNet.uav[10] simulationTime 259200
scalar OsgEarthNet.uav[11] utilizationSecMission 28941.39477013
scalar OsgEarthNet.uav[11] utilizationSecMaintenance 19782.290464355
scalar OsgEarthNet.uav[11] utilizationSecCharge 187565.34977984
scalar OsgEarthNet.uav[11] utilizationSecIdle 22910.963985674
scalar OsgEarthNet.uav[11] utilizationEnergyMission 141720.14264679
scalar OsgEarthNet.uav[11] utilizationEnergyMaintenance 93467.298416138
scalar OsgEarthNet.uav[11] utilizationEnergyCharge 235229.91918945
scalar OsgEarthNet.uav[11] utilizationEnergyOverdrawMission 0
scalar OsgEarthNet.uav[11] utilizationEnergyOverdrawMaintenance 0
scalar OsgEarthNet.uav[11] utilizationCountMissions 58
scalar OsgEarthNet.uav[11] utilizationCountManeuversMission 993
scalar OsgEarthNet.uav[11] utilizationCountManeuversMaintenance 116
scalar OsgEarthNet.uav[11] utilizationCountChargeState 58
scalar OsgEarthNet.uav[11] utilizationCountOverdrawnAfterMission 0
scalar OsgEarthNet.uav[11] utilizationCountIdleState 58
scalar OsgEarthNet.uav[11] utilizationFail 0
scalar OsgEarthNet.uav[11] simulationTime 259200
scalar OsgEarthNet.uav[12] utilizationSecMission 39209.195873676
scalar OsgEarthNet.uav[12] utilizationSecMaintenance 16213.004635194
scalar OsgEarthNet.uav[12] utilizationSecCharge 195595.79649113
scalar OsgEarthNet.uav[12] utilizationSecIdle 8182.002
scalar OsgEarthNet.uav[12] utilizationEnergyMission 191983.12210846
scalar OsgEarthNet.uav[12] utilizationEnergyMaintenance 74043.481090546
scalar OsgEarthNet.uav[12] utilizationEnergyCharge 260979.94873047
scalar OsgEarthNet.uav[12] utilizationEnergyOverdrawMission 0
scalar OsgEarthNet.uav[12] utilizationEnergyOverdrawMaintenance 0
scalar OsgEarthNet.uav[12] utilizationCountMissions 57
scalar OsgEarthNet.uav[12] utilizationCountManeuversMission 1274
scalar OsgEarthNet.uav[12] utilizationCountManeuversMaintenance 114
scalar OsgEarthNet.uav[12] utilizationCountChargeState 57
scalar OsgEarthNet.uav[12] utilizationCountOverdrawnAfterMission 0
scalar OsgEarthNet.uav[12] utilizationCountIdleState 38
scalar OsgEarthNet.uav[12] utilizationFail 0
scalar OsgEarthNet.uav[12] simulationTime 259200
scalar OsgEarthNet.uav[13] utilizationSecMission 31645.886853258
scalar OsgEarthNet.uav[13] utilizationSecMaintenance 17857.95899367
scalar OsgEarthNet.uav[13] utilizationSecCharge 181774.15315307
scalar OsgEarthNet.uav[13] utilizationSecIdle 27922
scalar OsgEarthNet.uav[13] utilizationEnergyMission 151848.64483643
scalar OsgEarthNet.uav[13] utilizationEnergyMaintenance 84640.241065979
scalar OsgEarthNet.uav[13] utilizationEnergyCharge 235360.27001953
scalar OsgEarthNet.uav[13] utilizationEnergyOverdrawMission 0
scalar OsgEarthNet.uav[13] utilizationEnergyOverdrawMaintenance 0
scalar OsgEarthNet.uav[13] utilizationCountMissions 52
scalar OsgEarthNet.uav[13] utilizationCountManeuversMission 927
scalar OsgEarthNet.uav[13] utilizationCountManeuversMaintenance 104
scalar OsgEarthNet.uav[13] utilizationCountChargeState 52
scalar OsgEarthNet.uav[13] utilizationCountOverdrawnAfterMission 0
scalar OsgEarthNet.uav[13] utilizationCountIdleState 52
scalar OsgEarthNet.uav[13] utilizationFail 0
scalar OsgEarthNet.uav[13] simulationTime 259200
scalar OsgEarthNet.uav[14] utilizationSecMission 28075.525500672
scalar OsgEarthNet.uav[14] utilizationSecMaintenance 19454.453225183
scalar OsgEarthNet.uav[14] utilizationSecCharge 183310
scalar OsgEarthNet.uav[14] utilizationSecIdle 28360.020274145
scalar OsgEarthNet.uav[14] utilizationEnergyMission 134631.12996005
scalar OsgEarthNet.uav[14] utilizationEnergyMaintenance 92723.758865356
scalar OsgEarthNet.uav[14] utilizationEnergyCharge 223915.03930664
scalar OsgEarthNet.uav[14] utilizationEnergyOverdrawMission 0
scalar OsgEarthNet.uav[14] utilizationEnergyOverdrawMaintenance 0
scalar OsgEarthNet.uav[14] utilizationCountMissions 59
scalar OsgEarthNet.uav[14] utilizationCountManeuversMission 875
scalar OsgEarthNet.uav[14] utilizationCountManeuversMaintenance 119
scalar OsgEarthNet.uav[14] utilizationCountChargeState 59
scalar OsgEarthNet.uav[14] utilizationCountOverdrawnAfterMission 0
scalar OsgEarthNet.uav[14] utilizationCountIdleState 60
scalar OsgEarthNet.uav[14] utilizationFail 0
scalar OsgEarthNet.uav[14] simulationTime 259200
scalar OsgEarthNet.uav[15] utilizationSecMission 38166.781475293
scalar OsgEarthNet.uav[15] utilizationSecMaintenance 16891.76456599
scalar OsgEarthNet.uav[15] utilizationSecCharge 196930
scalar OsgEarthNet.uav[15] utilizationSecIdle 7211.4529587171
scalar OsgEarthNet.uav[15] utilizationEnergyMission 186446.99032974
scalar OsgEarthNet.uav[15] utilizationEnergyMaintenance 78233.694190346
scalar OsgEarthNet.uav[15] utilizationEnergyCharge 264367.13842773
scalar OsgEarthNet.uav[15] utilizationEnergyOverdrawMission 0
scalar OsgEarthNet.uav[15] utilizationEnergyOverdrawMaintenance 0
scalar OsgEarthNet.uav[15] utilizationCountMissions 57
scalar OsgEarthNet.uav[15] utilizationCountManeuversMission 1250
scalar OsgEarthNet.uav[15] utilizationCountManeuversMaintenance 115
scalar OsgEarthNet.uav[15] utilizationCountChargeState 57
scalar OsgEarthNet.uav[15] utilizationCountOverdrawnAfterMission 0
scalar OsgEarthNet.uav[15] utilizationCountIdleState 30
scalar OsgEarthNet.uav[15] utilizationFail 0
scalar OsgEarthNet.uav[15] simulationTime 259200
scalar OsgEarthNet.uav[16] utilizationSecMission 29982.245012855
scalar OsgEarthNet.uav[16] utilizationSecMaintenance 18923.268610845
scalar OsgEarthNet.uav[16] utilizationSecCharge 182312.4803763
scalar OsgEarthNet.uav[16] utilizationSecIdle 27982.005
scalar OsgEarthNet.uav[16] utilizationEnergyMission 143869.44121552
scalar OsgEarthNet.uav[16] utilizationEnergyMaintenance 90166.503627777
scalar OsgEarthNet.uav[16] utilizationEnergyCharge 236050.46191406
scalar OsgEarthNet.uav[16] utilizationEnergyOverdrawMission 0
scalar OsgEarthNet.uav[16] utilizationEnergyOverdrawMaintenance 0
scalar OsgEarthNet.uav[16] utilizationCountMissions 52
scalar OsgEarthNet.uav[16] utilizationCountManeuversMission 983
scalar OsgEarthNet.uav[16] utilizationCountManeuversMaintenance 104
scalar OsgEarthNet.uav[16] utilizationCountChargeState 52
scalar OsgEarthNet.uav[16] utilizationCountOverdrawnAfterMission 0
scalar OsgEarthNet.uav[16] utilizationCountIdleState 52
scalar OsgEarthNet.uav[16] utilizationFail 0
scalar OsgEarthNet.uav[16] simulationTime 259200
scalar OsgEarthNet.uav[17] utilizationSecMission 27211.560734601
scalar OsgEarthNet.uav[17] utilizationSecMaintenance 19293.732566363
scalar OsgEarthNet.uav[17] utilizationSecCharge 182940
scalar OsgEarthNet.uav[17] utilizationSecIdle 29754.705699036
scalar OsgEarthNet.uav[17] utilizationEnergyMission 131967.86691666
scalar OsgEarthNet.uav[17] utilizationEnergyMaintenance 91109.77366974
scalar OsgEarthNet.uav[17] utilizationEnergyCharge 223382.2109375
scalar OsgEarthNet.uav[17] utilizationEnergyOverdrawMission 0
scalar OsgEarthNet.uav[17] utilizationEnergyOverdrawMaintenance 0
scalar OsgEarthNet.uav[17] utilizationCountMissions 59
scalar OsgEarthNet.uav[17] utilizationCountManeuversMission 823
scalar OsgEarthNet.uav[17] utilizationCountManeuversMaintenance 119
scalar OsgEarthNet.uav[17] utilizationCountChargeState 59
scalar OsgEarthNet.uav[17] utilizationCountOverdrawnAfterMission 0
scalar OsgEarthNet.uav[17] utilizationCountIdleState 60
scalar OsgEarthNet.uav[17] utilizationFail 0
scalar OsgEarthNet.uav[17] simulationTime 259200
scalar OsgEarthNet.uav[18] utilizationSecMission 38585.74597326
scalar OsgEarthNet.uav[18] utilizationSecMaintenance 17414.240162839
scalar OsgEarthNet.uav[18] utilizationSecCharge 195900.38178324
scalar OsgEarthNet.uav[18] utilizationSecIdle 7299.6310806652
scalar OsgEarthNet.uav[18] utilizationEnergyMission 186171.24619675
scalar OsgEarthNet.uav[18] utilizationEnergyMaintenance 80077.36240387
scalar OsgEarthNet.uav[18] utilizationEnergyCharge 264153.47265625
scalar OsgEarthNet.uav[18] utilizationEnergyOverdrawMission 0
scalar OsgEarthNet.uav[18] utilizationEnergyOverdrawMaintenance 0
scalar OsgEarthNet.uav[18] utilizationCountMissions 58
scalar OsgEarthNet.uav[18] utilizationCountManeuversMission 1218
scalar OsgEarthNet.uav[18] utilizationCountManeuversMaintenance 116
scalar OsgEarthNet.uav[18] utilizationCountChargeState 58
scalar OsgEarthNet.uav[18] utilizationCountOverdrawnAfterMission 0
scalar OsgEarthNet.uav[18] utilizationCountIdleState 30
scalar OsgEarthNet.uav[18] utilizationFail 0
scalar OsgEarthNet.uav[18] simulationTime 259200
scalar OsgEarthNet.uav[19] utilizationSecMission 29350.736668944
scalar OsgEarthNet.uav[19] utilizationSecMaintenance 19397.48432206
scalar OsgEarthNet.uav[19] utilizationSecCharge 181859.770009
scalar OsgEarthNet.uav[19] utilizationSecIdle 28592.008
scalar OsgEarthNet.uav[19] utilizationEnergyMission 142304.75348663
scalar OsgEarthNet.uav[19] utilizationEnergyMaintenance 92244.479846954
scalar OsgEarthNet.uav[19] utilizationEnergyCharge 234361.23193359
scalar OsgEarthNet.uav[19] utilizationEnergyOverdrawMission 0
scalar OsgEarthNet.uav[19] utilizationEnergyOverdrawMaintenance 0
scalar OsgEarthNet.uav[19] utilizationCountMissions 52
scalar OsgEarthNet.uav[19] utilizationCountManeuversMission 1008
scalar OsgEarthNet.uav[19] utilizationCountManeuversMaintenance 104
scalar OsgEarthNet.uav[19] utilizationCountChargeState 52
scalar OsgEarthNet.uav[19] utilizationCountOverdrawnAfterMission 0
scalar OsgEarthNet.uav[19] utilizationCountIdleState 52
scalar OsgEarthNet.uav[19] utilizationFail 0
scalar OsgEarthNet.uav[19] simulationTime 259200
scalar OsgEarthNet.uav[20] utilizationSecMission 28277.868944793
scalar OsgEarthNet.uav[20] utilizationSecMaintenance 20790.969729019
scalar OsgEarthNet.uav[20] utilizationSecCharge 184679.96375702
scalar OsgEarthNet.uav[20] utilizationSecIdle 25451.196569166
scalar OsgEarthNet.uav[20] utilizationEnergyMission 139806.3369751
scalar OsgEarthNet.uav[20] utilizationEnergyMaintenance 98837.696468353
scalar OsgEarthNet.uav[20] utilizationEnergyCharge 239258.89306641
scalar OsgEarthNet.uav[20] utilizationEnergyOverdrawMission 0
scalar OsgEarthNet.uav[20] utilizationEnergyOverdrawMaintenance 0
scalar OsgEarthNet.uav[20] utilizationCountMissions 53
scalar OsgEarthNet.uav[20] utilizationCountManeuversMission 1080
scalar OsgEarthNet.uav[20] utilizationCountManeuversMaintenance 106
scalar OsgEarthNet.uav[20] utilizationCountChargeState 53
scalar OsgEarthNet.uav[20] utilizationCountOverdrawnAfterMission 0
scalar OsgEarthNet.uav[20] utilizationCountIdleState 53
scalar OsgEarthNet.uav[20] utilizationFail 0
scalar OsgEarthNet.uav[20] simulationTime 259200
scalar OsgEarthNet.uav[21] utilizationSecMission 27900.057879233
scalar OsgEarthNet.uav[21] utilizationSecMaintenance 19810.815734512
scalar OsgEarthNet.uav[21] utilizationSecCharge 185510
scalar OsgEarthNet.uav[21] utilizationSecIdle 25979.125386255
scalar OsgEarthNet.uav[21] utilizationEnergyMission 136958.93883514
scalar OsgEarthNet.uav[21] utilizationEnergyMaintenance 93977.27488327
scalar OsgEarthNet.uav[21] utilizationEnergyCharge 231685.19580078
scalar OsgEarthNet.uav[21] utilizationEnergyOverdrawMission 0
scalar OsgEarthNet.uav[21] utilizationEnergyOverdrawMaintenance 0
scalar OsgEarthNet.uav[21] utilizationCountMissions 57
scalar OsgEarthNet.uav[21] utilizationCountManeuversMission 1044
scalar OsgEarthNet.uav[21] utilizationCountManeuversMaintenance 114
scalar OsgEarthNet.uav[21] utilizationCountChargeState 57
scalar OsgEarthNet.uav[21] utilizationCountOverdrawnAfterMission 0
scalar OsgEarthNet.uav[21] utilizationCountIdleState 58
scalar OsgEarthNet.uav[21] utilizationFail 0
scalar OsgEarthNet.uav[21] simulationTime 259200
scalar OsgEarthNet.uav[22] utilizationSecMission 38655.174293602
scalar OsgEarthNet.uav[22] utilizationSecMaintenance 16735.264273395
scalar OsgEarthNet.uav[22] utilizationSecCharge 195402.8550706
scalar OsgEarthNet.uav[22] utilizationSecIdle 8406.7053624037
scalar OsgEarthNet.uav[22] utilizationEnergyMission 186349.84449387
scalar OsgEarthNet.uav[22] utilizationEnergyMaintenance 76227.985206604
scalar OsgEarthNet.uav[22] utilizationEnergyCharge 261531.56689453
scalar OsgEarthNet.uav[22] utilizationEnergyOverdrawMission 0
scalar OsgEarthNet.uav[22] utilizationEnergyOverdrawMaintenance 0
scalar OsgEarthNet.uav[22] utilizationCountMissions 57
scalar OsgEarthNet.uav[22] utilizationCountManeuversMission 1091
scalar OsgEarthNet.uav[22] utilizationCountManeuversMaintenance 114
scalar OsgEarthNet.uav[22] utilizationCountChargeState 57
scalar OsgEarthNet.uav[22] utilizationCountOverdrawnAfterMission 0
scalar OsgEarthNet.uav[22] utilizationCountIdleState 31
scalar OsgEarthNet.uav[22] utilizationFail 0
scalar OsgEarthNet.uav[22] simulationTime 259200
scalar OsgEarthNet.uav[23] utilizationSecMission 36611.091086968
scalar OsgEarthNet.uav[23] utilizationSecMaintenance 18127.957657368
scalar OsgEarthNet.uav[23] utilizationSecCharge 196200
scalar OsgEarthNet.uav[23] utilizationSecIdle 8260.9502556647
scalar OsgEarthNet.uav[23] utilizationEnergyMission 178398.85529397
scalar OsgEarthNet.uav[23] utilizationEnergyMaintenance 83414.531703949
scalar OsgEarthNet.uav[23] utilizationEnergyCharge 262248.73144531
scalar OsgEarthNet.uav[23] utilizationEnergyOverdrawMission 0
scalar OsgEarthNet.uav[23] utilizationEnergyOverdrawMaintenance 0
scalar OsgEarthNet.uav[23] utilizationCountMissions 57
scalar OsgEarthNet.uav[23] utilizationCountManeuversMission 1156
scalar OsgEarthNet.uav[23] utilizationCountManeuversMaintenance 115
scalar OsgEarthNet.uav[23] utilizationCountChargeState 57
scalar OsgEarthNet.uav[23] utilizationCountOverdrawnAfterMission 0
scalar OsgEarthNet.uav[23] utilizationCountIdleState 28
scalar OsgEarthNet.uav[23] utilizationFail 0
scalar OsgEarthNet.uav[23] simulationTime 259200
scalar OsgEarthNet.uav[24] utilizationSecMission 28466.196233425
scalar OsgEarthNet.uav[24] utilizationSecMaintenance 19241.795766575
scalar OsgEarthNet.uav[24] utilizationSecCharge 184330
scalar OsgEarthNet.uav[24] utilizationSecIdle 27162.007
scalar OsgEarthNet.uav[24] utilizationEnergyMission 138495.04875062
scalar OsgEarthNet.uav[24] utilizationEnergyMaintenance 92468.811332703
scalar OsgEarthNet.uav[24] utilizationEnergyCharge 227628.73339844
scalar OsgEarthNet.uav[24] utilizationEnergyOverdrawMission 0
scalar OsgEarthNet.uav[24] utilizationEnergyOverdrawMaintenance 0
scalar OsgEarthNet.uav[24] utilizationCountMissions 58
scalar OsgEarthNet.uav[24] utilizationCountManeuversMission 895
scalar OsgEarthNet.uav[24] utilizationCountManeuversMaintenance 117
scalar OsgEarthNet.uav[24] utilizationCountChargeState 58
scalar OsgEarthNet.uav[24] utilizationCountOverdrawnAfterMission 0
scalar OsgEarthNet.uav[24] utilizationCountIdleState 59
scalar OsgEarthNet.uav[24] utilizationFail 0
scalar OsgEarthNet.uav[24] simulationTime 259200
scalar OsgEarthNet.uav[25] utilizationSecMission 39944.047711148
scalar OsgEarthNet.uav[25] utilizationSecMaintenance 15887.028185954
scalar OsgEarthNet.uav[25] utilizationSecCharge 196236.9201029
scalar OsgEarthNet.uav[25] utilizationSecIdle 7132.003
scalar OsgEarthNet.uav[25] utilizationEnergyMission 189364.33786011
scalar OsgEarthNet.uav[25] utilizationEnergyMaintenance 73795.719387054
scalar OsgEarthNet.uav[25] utilizationEnergyCharge 263819.94897461
scalar OsgEarthNet.uav[25] utilizationEnergyOverdrawMission 0
scalar OsgEarthNet.uav[25] utilizationEnergyOverdrawMaintenance 0
scalar OsgEarthNet.uav[25] utilizationCountMissions 57
scalar OsgEarthNet.uav[25] utilizationCountManeuversMission 1166
scalar OsgEarthNet.uav[25] utilizationCountManeuversMaintenance 114
scalar OsgEarthNet.uav[25] utilizationCountChargeState 57
scalar OsgEarthNet.uav[25] utilizationCountOverdrawnAfterMission 0
scalar OsgEarthNet.uav[25] utilizationCountIdleState 33
scalar OsgEarthNet.uav[25] utilizationFail 0
scalar OsgEarthNet.uav[25] simulationTime 259200
scalar OsgEarthNet.uav[26] utilizationSecMission 32206.512005838
scalar OsgEarthNet.uav[26] utilizationSecMaintenance 17062.916580208
scalar OsgEarthNet.uav[26] utilizationSecCharge 179240
scalar OsgEarthNet.uav[26] utilizationSecIdle 30690.570413954
scalar OsgEarthNet.uav[26] utilizationEnergyMission 155084.90471268
scalar OsgEarthNet.uav[26] utilizationEnergyMaintenance 80811.590675659
scalar OsgEarthNet.uav[26] utilizationEnergyCharge 230847.04980469
scalar OsgEarthNet.uav[26] utilizationEnergyOverdrawMission 0
scalar OsgEarthNet.uav[26] utilizationEnergyOverdrawMaintenance 0
scalar OsgEarthNet.uav[26] utilizationCountMissions 52
scalar OsgEarthNet.uav[26] utilizationCountManeuversMission 929
scalar OsgEarthNet.uav[26] utilizationCountManeuversMaintenance 104
scalar OsgEarthNet.uav[26] utilizationCountChargeState 51
scalar OsgEarthNet.uav[26] utilizationCountOverdrawnAfterMission 0
scalar OsgEarthNet.uav[26] utilizationCountIdleState 52
scalar OsgEarthNet.uav[26] utilizationFail 0
scalar OsgEarthNet.uav[26] simulationTime 259200
scalar OsgEarthNet.uav[27] utilizationSecMission 28330.098714624
scalar OsgEarthNet.uav[27] utilizationSecMaintenance 20063.372862618
scalar OsgEarthNet.uav[27] utilizationSecCharge 187244.52242276
scalar OsgEarthNet.uav[27] utilizationSecIdle 23562.005
scalar OsgEarthNet.uav[27] utilizationEnergyMission 138692.83891296
scalar OsgEarthNet.uav[27] utilizationEnergyMaintenance 96713.704040527
scalar OsgEarthNet.uav[27] utilizationEnergyCharge 236810.04443359
scalar OsgEarthNet.uav[27] utilizationEnergyOverdrawMission 0
scalar OsgEarthNet.uav[27] utilizationEnergyOverdrawMaintenance 0
scalar OsgEarthNet.uav[27] utilizationCountMissions 56
scalar OsgEarthNet.uav[27] utilizationCountManeuversMission 1126
scalar OsgEarthNet.uav[27] utilizationCountManeuversMaintenance 112
scalar OsgEarthNet.uav[27] utilizationCountChargeState 56
scalar OsgEarthNet.uav[27] utilizationCountOverdrawnAfterMission 0
scalar OsgEarthNet.uav[27] utilizationCountIdleState 56
scalar OsgEarthNet.uav[27] utilizationFail 0
scalar OsgEarthNet.uav[27] simulationTime 259200
scalar OsgEarthNet.uav[28] utilizationSecMission 38619.251656667
scalar OsgEarthNet.uav[28] utilizationSecMaintenance 17212.445171245
scalar OsgEarthNet.uav[28] utilizationSecCharge 197790.85190806
scalar OsgEarthNet.uav[28] utilizationSecIdle 5577.4502640309
scalar OsgEarthNet.uav[28] utilizationEnergyMission 186767.0659256
scalar OsgEarthNet.uav[28] utilizationEnergyMaintenance 80599.667606354
scalar OsgEarthNet.uav[28] utilizationEnergyCharge 265270.12561035
scalar OsgEarthNet.uav[28] utilizationEnergyOverdrawMission 0
scalar OsgEarthNet.uav[28] utilizationEnergyOverdrawMaintenance 0
scalar OsgEarthNet.uav[28] utilizationCountMissions 58
scalar OsgEarthNet.uav[28] utilizationCountManeuversMission 1196
scalar OsgEarthNet.uav[28] utilizationCountManeuversMaintenance 116
scalar OsgEarthNet.uav[28] utilizationCountChargeState 58
scalar OsgEarthNet.uav[28] utilizationCountOverdrawnAfterMission 0
scalar OsgEarthNet.uav[28] utilizationCountIdleState 30
scalar OsgEarthNet.uav[28] utilizationFail 0
scalar OsgEarthNet.uav[28] simulationTime 259200
scalar OsgEarthNet.uav[29] utilizationSecMission 28348.643061045
scalar OsgEarthNet.uav[29] utilizationSecMaintenance 20963.775633445
scalar OsgEarthNet.uav[29] utilizationSecCharge 187460
scalar OsgEarthNet.uav[29] utilizationSecIdle 22427.58030551
scalar OsgEarthNet.uav[29] utilizationEnergyMission 137869.89198303
scalar OsgEarthNet.uav[29] utilizationEnergyMaintenance 100289.28928375
scalar OsgEarthNet.uav[29] utilizationEnergyCharge 242188.78662109
scalar OsgEarthNet.uav[29] utilizationEnergyOverdrawMission 0
scalar OsgEarthNet.uav[29] utilizationEnergyOverdrawMaintenance 0
scalar OsgEarthNet.uav[29] utilizationCountMissions 53
scalar OsgEarthNet.uav[29] utilizationCountManeuversMission 1070
scalar OsgEarthNet.uav[29] utilizationCountManeuversMaintenance 106
scalar OsgEarthNet.uav[29] utilizationCountChargeState 53
scalar OsgEarthNet.uav[29] utilizationCountOverdrawnAfterMission 0
scalar OsgEarthNet.uav[29] utilizationCountIdleState 54
scalar OsgEarthNet.uav[29] utilizationFail 0
scalar OsgEarthNet.uav[29] simulationTime 259200
scalar OsgEarthNet.uav[30] utilizationSecMission 37986.340693101
scalar OsgEarthNet.uav[30] utilizationSecMaintenance 17011.502522341
scalar OsgEarthNet.uav[30] utilizationSecCharge 196445.37949763
scalar OsgEarthNet.uav[30] utilizationSecIdle 7756.7762869274
scalar OsgEarthNet.uav[30] utilizationEnergyMission 182660.52678299
scalar OsgEarthNet.uav[30] utilizationEnergyMaintenance 78859.592876434
scalar OsgEarthNet.uav[30] utilizationEnergyCharge 263866.22387695
scalar OsgEarthNet.uav[30] utilizationEnergyOverdrawMission 0
scalar OsgEarthNet.uav[30] utilizationEnergyOverdrawMaintenance 0
scalar OsgEarthNet.uav[30] utilizationCountMissions 57
scalar OsgEarthNet.uav[30] utilizationCountManeuversMission 1114
scalar OsgEarthNet.uav[30] utilizationCountManeuversMaintenance 114
scalar OsgEarthNet.uav[30] utilizationCountChargeState 57
scalar OsgEarthNet.uav[30] utilizationCountOverdrawnAfterMission 0
scalar OsgEarthNet.uav[30] utilizationCountIdleState 31
scalar OsgEarthNet.uav[30] utilizationFail 0
scalar OsgEarthNet.uav[30] simulationTime 259200
scalar OsgEarthNet.uav[31] utilizationSecMission 28178.653738489
scalar OsgEarthNet.uav[31] utilizationSecMaintenance 19925.776901287
scalar OsgEarthNet.uav[31] utilizationSecCharge 186663.56536022
scalar OsgEarthNet.uav[31] utilizationSecIdle 24432.003
scalar OsgEarthNet.uav[31] utilizationEnergyMission 139566.99690247
scalar OsgEarthNet.uav[31] utilizationEnergyMaintenance 95288.867465973
scalar OsgEarthNet.uav[31] utilizationEnergyCharge 231809.15698242
scalar OsgEarthNet.uav[31] utilizationEnergyOverdrawMission 0
scalar OsgEarthNet.uav[31] utilizationEnergyOverdrawMaintenance 0
scalar OsgEarthNet.uav[31] utilizationCountMissions 59
scalar OsgEarthNet.uav[31] utilizationCountManeuversMission 954
scalar OsgEarthNet.uav[31] utilizationCountManeuversMaintenance 118
scalar OsgEarthNet.uav[31] utilizationCountChargeState 59
scalar OsgEarthNet.uav[31] utilizationCountOverdrawnAfterMission 0
scalar OsgEarthNet.uav[31] utilizationCountIdleState 59
scalar OsgEarthNet.uav[31] utilizationFail 0
scalar OsgEarthNet.uav[31] simulationTime 259200
scalar OsgEarthNet.uav[32] utilizationSecMission 39171.910151343
scalar OsgEarthNet.uav[32] utilizationSecMaintenance 16885.946138119
scalar OsgEarthNet.uav[32] utilizationSecCharge 198810.14271054
scalar OsgEarthNet.uav[32] utilizationSecIdle 4332
scalar OsgEarthNet.uav[32] utilizationEnergyMission 190458.95204163
scalar OsgEarthNet.uav[32] utilizationEnergyMaintenance 78187.690391541
scalar OsgEarthNet.uav[32] utilizationEnergyCharge 266901.22558594
scalar OsgEarthNet.uav[32] utilizationEnergyOverdrawMission 0
scalar OsgEarthNet.uav[32] utilizationEnergyOverdrawMaintenance 0
scalar OsgEarthNet.uav[32] utilizationCountMissions 58
scalar OsgEarthNet.uav[32] utilizationCountManeuversMission 1163
scalar OsgEarthNet.uav[32] utilizationCountManeuversMaintenance 116
scalar OsgEarthNet.uav[32] utilizationCountChargeState 58
scalar OsgEarthNet.uav[32] utilizationCountOverdrawnAfterMission 0
scalar OsgEarthNet.uav[32] utilizationCountIdleState 31
scalar OsgEarthNet.uav[32] utilizationFail 0
scalar OsgEarthNet.uav[32] simulationTime 259200
scalar OsgEarthNet.uav[33] utilizationSecMission 38927.262893993
scalar OsgEarthNet.uav[33] utilizationSecMaintenance 16519.576344662
scalar OsgEarthNet.uav[33] utilizationSecCharge 194552.21150568
scalar OsgEarthNet.uav[33] utilizationSecIdle 9200.9482556647
scalar OsgEarthNet.uav[33] utilizationEnergyMission 189260.14478302
scalar OsgEarthNet.uav[33] utilizationEnergyMaintenance 76551.772960663
scalar OsgEarthNet.uav[33] utilizationEnergyCharge 260718.41833496
scalar OsgEarthNet.uav[33] utilizationEnergyOverdrawMission 0
scalar OsgEarthNet.uav[33] utilizationEnergyOverdrawMaintenance 0
scalar OsgEarthNet.uav[33] utilizationCountMissions 57
scalar OsgEarthNet.uav[33] utilizationCountManeuversMission 1156
scalar OsgEarthNet.uav[33] utilizationCountManeuversMaintenance 114
scalar OsgEarthNet.uav[33] utilizationCountChargeState 57
scalar OsgEarthNet.uav[33] utilizationCountOverdrawnAfterMission 0
scalar OsgEarthNet.uav[33] utilizationCountIdleState 35
scalar OsgEarthNet.uav[33] utilizationFail 0
scalar OsgEarthNet.uav[33] simulationTime 259200
scalar OsgEarthNet.uav[34] utilizationSecMission 29976.83599802
scalar OsgEarthNet.uav[34] utilizationSecMaintenance 19554.783506795
scalar OsgEarthNet.uav[34] utilizationSecCharge 187346.37949519
scalar OsgEarthNet.uav[34] utilizationSecIdle 22322
scalar OsgEarthNet.uav[34] utilizationEnergyMission 147782.26066208
scalar OsgEarthNet.uav[34] utilizationEnergyMaintenance 93210.725883484
scalar OsgEarthNet.uav[34] utilizationEnergyCharge 234542.50537109
scalar OsgEarthNet.uav[34] utilizationEnergyOverdrawMission 0
scalar OsgEarthNet.uav[34] utilizationEnergyOverdrawMaintenance 0
scalar OsgEarthNet.uav[34] utilizationCountMissions 58
scalar OsgEarthNet.uav[34] utilizationCountManeuversMission 986
scalar OsgEarthNet.uav[34] utilizationCountManeuversMaintenance 116
scalar OsgEarthNet.uav[34] utilizationCountChargeState 58
scalar OsgEarthNet.uav[34] utilizationCountOverdrawnAfterMission 0
scalar OsgEarthNet.uav[34] utilizationCountIdleState 58
scalar OsgEarthNet.uav[34] utilizationFail 0
scalar OsgEarthNet.uav[34] simulationTime 259200
scalar OsgEarthNet.uav[35] utilizationSecMission 39988.206321618
scalar OsgEarthNet.uav[35] utilizationSecMaintenance 15699.012048184
scalar OsgEarthNet.uav[35] utilizationSecCharge 195943.35528291
scalar OsgEarthNet.uav[35] utilizationSecIdle 7569.4253472904
scalar OsgEarthNet.uav[35] utilizationEnergyMission 190194.96846008
scalar OsgEarthNet.uav[35] utilizationEnergyMaintenance 73242.271537781
scalar OsgEarthNet.uav[35] utilizationEnergyCharge 262547.02441406
scalar OsgEarthNet.uav[35] utilizationEnergyOverdrawMission 0
scalar OsgEarthNet.uav[35] utilizationEnergyOverdrawMaintenance 0
scalar OsgEarthNet.uav[35] utilizationCountMissions 57
scalar OsgEarthNet.uav[35] utilizationCountManeuversMission 1079
scalar OsgEarthNet.uav[35] utilizationCountManeuversMaintenance 114
scalar OsgEarthNet.uav[35] utilizationCountChargeState 57
scalar OsgEarthNet.uav[35] utilizationCountOverdrawnAfterMission 0
scalar OsgEarthNet.uav[35] utilizationCountIdleState 36
scalar OsgEarthNet.uav[35] utilizationFail 0
scalar OsgEarthNet.uav[35] simulationTime 259200
scalar OsgEarthNet.uav[36] utilizationSecMission 28837.876827684
scalar OsgEarthNet.uav[36] utilizationSecMaintenance 21170.349521003
scalar OsgEarthNet.uav[36] utilizationSecCharge 185296.22574205
scalar OsgEarthNet.uav[36] utilizationSecIdle 23895.546909258
scalar OsgEarthNet.uav[36] utilizationEnergyMission 141801.1298027
scalar OsgEarthNet.uav[36] utilizationEnergyMaintenance 100908.48697662
scalar OsgEarthNet.uav[36] utilizationEnergyCharge 238430.82098389
scalar OsgEarthNet.uav[36] utilizationEnergyOverdrawMission 0
scalar OsgEarthNet.uav[36] utilizationEnergyOverdrawMaintenance 0
scalar OsgEarthNet.uav[36] utilizationCountMissions 54
scalar OsgEarthNet.uav[36] utilizationCountManeuversMission 1086
scalar OsgEarthNet.uav[36] utilizationCountManeuversMaintenance 108
scalar OsgEarthNet.uav[36] utilizationCountChargeState 54
scalar OsgEarthNet.uav[36] utilizationCountOverdrawnAfterMission 0
scalar OsgEarthNet.uav[36] utilizationCountIdleState 53
scalar OsgEarthNet.uav[36] utilizationFail 0
scalar OsgEarthNet.uav[36] simulationTime 259200
scalar OsgEarthNet.uav[37] utilizationSecMission 28691.353934738
scalar OsgEarthNet.uav[37] utilizationSecMaintenance 19796.643065262
scalar OsgEarthNet.uav[37] utilizationSecCharge 186300
scalar OsgEarthNet.uav[37] utilizationSecIdle 24412.002
scalar OsgEarthNet.uav[37] utilizationEnergyMission 138558.40587616
scalar OsgEarthNet.uav[37] utilizationEnergyMaintenance 94283.133680944
scalar OsgEarthNet.uav[37] utilizationEnergyCharge 229579.95288086
scalar OsgEarthNet.uav[37] utilizationEnergyOverdrawMission 0
scalar OsgEarthNet.uav[37] utilizationEnergyOverdrawMaintenance 0
scalar OsgEarthNet.uav[37] utilizationCountMissions 60
scalar OsgEarthNet.uav[37] utilizationCountManeuversMission 920
scalar OsgEarthNet.uav[37] utilizationCountManeuversMaintenance 120
scalar OsgEarthNet.uav[37] utilizationCountChargeState 59
scalar OsgEarthNet.uav[37] utilizationCountOverdrawnAfterMission 0
scalar OsgEarthNet.uav[37] utilizationCountIdleState 60
scalar OsgEarthNet.uav[37] utilizationFail 0
scalar OsgEarthNet.uav[37] simulationTime 259200
scalar OsgEarthNet.uav[38] utilizationSecMission 39065.818250014
scalar OsgEarthNet.uav[38] utilizationSecMaintenance 16602.180749986
scalar OsgEarthNet.uav[38] utilizationSecCharge 196380
scalar OsgEarthNet.uav[38] utilizationSecIdle 7152
scalar OsgEarthNet.uav[38] utilizationEnergyMission 189935.48666441
scalar OsgEarthNet.uav[38] utilizationEnergyMaintenance 76203.110637665
scalar OsgEarthNet.uav[38] utilizationEnergyCharge 263990.86767578
scalar OsgEarthNet.uav[38] utilizationEnergyOverdrawMission 0
scalar OsgEarthNet.uav[38] utilizationEnergyOverdrawMaintenance 0
scalar OsgEarthNet.uav[38] utilizationCountMissions 57
scalar OsgEarthNet.uav[38] utilizationCountManeuversMission 1133
scalar OsgEarthNet.uav[38] utilizationCountManeuversMaintenance 114
scalar OsgEarthNet.uav[38] utilizationCountChargeState 57
scalar OsgEarthNet.uav[38] utilizationCountOverdrawnAfterMission 0
scalar OsgEarthNet.uav[38] utilizationCountIdleState 33
scalar OsgEarthNet.uav[38] utilizationFail 0
scalar OsgEarthNet.uav[38] simulationTime 259200
scalar OsgEarthNet.uav[39] utilizationSecMission 29460.369555114
scalar OsgEarthNet.uav[39] utilizationSecMaintenance 19881.334921927
scalar OsgEarthNet.uav[39] utilizationSecCharge 184296.28852296
scalar OsgEarthNet.uav[39] utilizationSecIdle 25562.006
scalar OsgEarthNet.uav[39] utilizationEnergyMission 146317.11084747
scalar OsgEarthNet.uav[39] utilizationEnergyMaintenance 94726.093280792
scalar OsgEarthNet.uav[39] utilizationEnergyCharge 238059.75390625
scalar OsgEarthNet.uav[39] utilizationEnergyOverdrawMission 0
scalar OsgEarthNet.uav[39] utilizationEnergyOverdrawMaintenance 0
scalar OsgEarthNet.uav[39] utilizationCountMissions 53
scalar OsgEarthNet.uav[39] utilizationCountManeuversMission 1035
scalar OsgEarthNet.uav[39] utilizationCountManeuversMaintenance 106
scalar OsgEarthNet.uav[39] utilizationCountChargeState 53
scalar OsgEarthNet.uav[39] utilizationCountOverdrawnAfterMission 0
scalar OsgEarthNet.uav[39] utilizationCountIdleState 53
scalar OsgEarthNet.uav[39] utilizationFail 0
scalar OsgEarthNet.uav[39] simulationTime 259200
scalar OsgEarthNet.uav[40] utilizationSecMission 38063.926855372
scalar OsgEarthNet.uav[40] utilizationSecMaintenance 17004.710703221
scalar OsgEarthNet.uav[40] utilizationSecCharge 195950.41218574
scalar OsgEarthNet.uav[40] utilizationSecIdle 8180.9492556647
scalar OsgEarthNet.uav[40] utilizationEnergyMission 181549.15831375
scalar OsgEarthNet.uav[40] utilizationEnergyMaintenance 78828.665340424
scalar OsgEarthNet.uav[40] utilizationEnergyCharge 261474.34228516
scalar OsgEarthNet.uav[40] utilizationEnergyOverdrawMission 0
scalar OsgEarthNet.uav[40] utilizationEnergyOverdrawMaintenance 0
scalar OsgEarthNet.uav[40] utilizationCountMissions 57
scalar OsgEarthNet.uav[40] utilizationCountManeuversMission 1191
scalar OsgEarthNet.uav[40] utilizationCountManeuversMaintenance 114
scalar OsgEarthNet.uav[40] utilizationCountChargeState 57
scalar OsgEarthNet.uav[40] utilizationCountOverdrawnAfterMission 0
scalar OsgEarthNet.uav[40] utilizationCountIdleState 36
scalar OsgEarthNet.uav[40] utilizationFail 0
scalar OsgEarthNet.uav[40] simulationTime 259200
scalar OsgEarthNet.uav[41] utilizationSecMission 28974.590236888
scalar OsgEarthNet.uav[41] utilizationSecMaintenance 19602.191843284
scalar OsgEarthNet.uav[41] utilizationSecCharge 187304.86331695
scalar OsgEarthNet.uav[41] utilizationSecIdle 23318.353602879
scalar OsgEarthNet.uav[41] utilizationEnergyMission 142230.74759293
scalar OsgEarthNet.uav[41] utilizationEnergyMaintenance 92888.57219696
scalar OsgEarthNet.uav[41] utilizationEnergyCharge 235489.95898438
scalar OsgEarthNet.uav[41] utilizationEnergyOverdrawMission 0
scalar OsgEarthNet.uav[41] utilizationEnergyOverdrawMaintenance 0
scalar OsgEarthNet.uav[41] utilizationCountMissions 57
scalar OsgEarthNet.uav[41] utilizationCountManeuversMission 1010
scalar OsgEarthNet.uav[41] utilizationCountManeuversMaintenance 114
scalar OsgEarthNet.uav[41] utilizationCountChargeState 57
scalar OsgEarthNet.uav[41] utilizationCountOverdrawnAfterMission 0
scalar OsgEarthNet.uav[41] utilizationCountIdleState 57
scalar OsgEarthNet.uav[41] utilizationFail 0
scalar OsgEarthNet.uav[41] simulationTime 259200
scalar OsgEarthNet.uav[42] utilizationSecMission 39350.616411858
scalar OsgEarthNet.uav[42] utilizationSecMaintenance 16145.034583394
scalar OsgEarthNet.uav[42] utilizationSecCharge 196712.34500475
scalar OsgEarthNet.uav[42] utilizationSecIdle 6992.003
scalar OsgEarthNet.uav[42] utilizationEnergyMission 190189.23010254
scalar OsgEarthNet.uav[42] utilizationEnergyMaintenance 73998.362407684
scalar OsgEarthNet.uav[42] utilizationEnergyCharge 263020.03125
scalar OsgEarthNet.uav[42] utilizationEnergyOverdrawMission 0
scalar OsgEarthNet.uav[42] utilizationEnergyOverdrawMaintenance 0
scalar OsgEarthNet.uav[42] utilizationCountMissions 57
scalar OsgEarthNet.uav[42] utilizationCountManeuversMission 1152
scalar OsgEarthNet.uav[42] utilizationCountManeuversMaintenance 114
scalar OsgEarthNet.uav[42] utilizationCountChargeState 57
scalar OsgEarthNet.uav[42] utilizationCountOverdrawnAfterMission 0
scalar OsgEarthNet.uav[42] utilizationCountIdleState 33
scalar OsgEarthNet.uav[42] utilizationFail 0
scalar OsgEarthNet.uav[42] simulationTime 259200
scalar OsgEarthNet.uav[43] utilizationSecMission 30825.546754602
scalar OsgEarthNet.uav[43] utilizationSecMaintenance 17602.443245398
scalar OsgEarthNet.uav[43] utilizationSecCharge 179250
scalar OsgEarthNet.uav[43] utilizationSecIdle 31522.009
scalar OsgEarthNet.uav[43] utilizationEnergyMission 150702.27031635
scalar OsgEarthNet.uav[43] utilizationEnergyMaintenance 83886.967746734
scalar OsgEarthNet.uav[43] utilizationEnergyCharge 231193.94140625
scalar OsgEarthNet.uav[43] utilizationEnergyOverdrawMission 0
scalar OsgEarthNet.uav[43] utilizationEnergyOverdrawMaintenance 0
scalar OsgEarthNet.uav[43] utilizationCountMissions 51
scalar OsgEarthNet.uav[43] utilizationCountManeuversMission 908
scalar OsgEarthNet.uav[43] utilizationCountManeuversMaintenance 103
scalar OsgEarthNet.uav[43] utilizationCountChargeState 51
scalar OsgEarthNet.uav[43] utilizationCountOverdrawnAfterMission 0
scalar OsgEarthNet.uav[43] utilizationCountIdleState 52
scalar OsgEarthNet.uav[43] utilizationFail 0
scalar OsgEarthNet.uav[43] simulationTime 259200
scalar OsgEarthNet.uav[44] utilizationSecMission 29391.642405384
scalar OsgEarthNet.uav[44] utilizationSecMaintenance 19709.348395285
scalar OsgEarthNet.uav[44] utilizationSecCharge 185075.34002134
scalar OsgEarthNet.uav[44] utilizationSecIdle 25023.668177988
scalar OsgEarthNet.uav[44] utilizationEnergyMission 144356.06323242
scalar OsgEarthNet.uav[44] utilizationEnergyMaintenance 92923.759727478
scalar OsgEarthNet.uav[44] utilizationEnergyCharge 232620.02783203
scalar OsgEarthNet.uav[44] utilizationEnergyOverdrawMission 0
scalar OsgEarthNet.uav[44] utilizationEnergyOverdrawMaintenance 0
scalar OsgEarthNet.uav[44] utilizationCountMissions 57
scalar OsgEarthNet.uav[44] utilizationCountManeuversMission 1053
scalar OsgEarthNet.uav[44] utilizationCountManeuversMaintenance 114
scalar OsgEarthNet.uav[44] utilizationCountChargeState 57
scalar OsgEarthNet.uav[44] utilizationCountOverdrawnAfterMission 0
scalar OsgEarthNet.uav[44] utilizationCountIdleState 57
scalar OsgEarthNet.uav[44] utilizationFail 0
scalar OsgEarthNet.uav[44] simulationTime 259200
scalar OsgEarthNet.uav[45] utilizationSecMission 39018.469967702
scalar OsgEarthNet.uav[45] utilizationSecMaintenance 17053.236223409
scalar OsgEarthNet.uav[45] utilizationSecCharge 197516.29180889
scalar OsgEarthNet.uav[45] utilizationSecIdle 5612.001
scalar OsgEarthNet.uav[45] utilizationEnergyMission 191298.38034821
scalar OsgEarthNet.uav[45] utilizationEnergyMaintenance 78204.936161041
scalar OsgEarthNet.uav[45] utilizationEnergyCharge 264132.54705811
scalar OsgEarthNet.uav[45] utilizationEnergyOverdrawMission 0
scalar OsgEarthNet.uav[45] utilizationEnergyOverdrawMaintenance 0
scalar OsgEarthNet.uav[45] utilizationCountMissions 58
scalar OsgEarthNet.uav[45] utilizationCountManeuversMission 1293
scalar OsgEarthNet.uav[45] utilizationCountManeuversMaintenance 116
scalar OsgEarthNet.uav[45] utilizationCountChargeState 58
scalar OsgEarthNet.uav[45] utilizationCountOverdrawnAfterMission 0
scalar OsgEarthNet.uav[45] utilizationCountIdleState 32
scalar OsgEarthNet.uav[45] utilizationFail 0
scalar OsgEarthNet.uav[45] simulationTime 259200
scalar OsgEarthNet.uav[46] utilizationSecMission 30402.245012855
scalar OsgEarthNet.uav[46] utilizationSecMaintenance 19273.333015726
scalar OsgEarthNet.uav[46] utilizationSecCharge 183832.41997142
scalar OsgEarthNet.uav[46] utilizationSecIdle 25692.001
scalar OsgEarthNet.uav[46] utilizationEnergyMission 147730.26182556
scalar OsgEarthNet.uav[46] utilizationEnergyMaintenance 91845.863765716
scalar OsgEarthNet.uav[46] utilizationEnergyCharge 237464.89172363
scalar OsgEarthNet.uav[46] utilizationEnergyOverdrawMission 0
scalar OsgEarthNet.uav[46] utilizationEnergyOverdrawMaintenance 0
scalar OsgEarthNet.uav[46] utilizationCountMissions 53
scalar OsgEarthNet.uav[46] utilizationCountManeuversMission 1004
scalar OsgEarthNet.uav[46] utilizationCountManeuversMaintenance 106
scalar OsgEarthNet.uav[46] utilizationCountChargeState 53
scalar OsgEarthNet.uav[46] utilizationCountOverdrawnAfterMission 0
scalar OsgEarthNet.uav[46] utilizationCountIdleState 53
scalar OsgEarthNet.uav[46] utilizationFail 0
scalar OsgEarthNet.uav[46] simulationTime 259200
scalar OsgEarthNet.uav[47] utilizationSecMission 27855.210636476
scalar OsgEarthNet.uav[47] utilizationSecMaintenance 19772.939372167
scalar OsgEarthNet.uav[47] utilizationSecCharge 186199.84499136
scalar OsgEarthNet.uav[47] utilizationSecIdle 25372.004
scalar OsgEarthNet.uav[47] utilizationEnergyMission 136005.81352615
scalar OsgEarthNet.uav[47] utilizationEnergyMaintenance 93991.996883392
scalar OsgEarthNet.uav[47] utilizationEnergyCharge 229300.04101562
scalar OsgEarthNet.uav[47] utilizationEnergyOverdrawMission 0
scalar OsgEarthNet.uav[47] utilizationEnergyOverdrawMaintenance 0
scalar OsgEarthNet.uav[47] utilizationCountMissions 60
scalar OsgEarthNet.uav[47] utilizationCountManeuversMission 885
scalar OsgEarthNet.uav[47] utilizationCountManeuversMaintenance 120
scalar OsgEarthNet.uav[47] utilizationCountChargeState 60
scalar OsgEarthNet.uav[47] utilizationCountOverdrawnAfterMission 0
scalar OsgEarthNet.uav[47] utilizationCountIdleState 60
scalar OsgEarthNet.uav[47] utilizationFail 0
scalar OsgEarthNet.uav[47] simulationTime 259200
scalar OsgEarthNet.uav[48] utilizationSecMission 30707.411774245
scalar OsgEarthNet.uav[48] utilizationSecMaintenance 18225.083366814
scalar OsgEarthNet.uav[48] utilizationSecCharge 181710
scalar OsgEarthNet.uav[48] utilizationSecIdle 28557.503858941
scalar OsgEarthNet.uav[48] utilizationEnergyMission 149760.13883209
scalar OsgEarthNet.uav[48] utilizationEnergyMaintenance 85908.698482513
scalar OsgEarthNet.uav[48] utilizationEnergyCharge 233744.25390625
scalar OsgEarthNet.uav[48] utilizationEnergyOverdrawMission 0
scalar OsgEarthNet.uav[48] utilizationEnergyOverdrawMaintenance 0
scalar OsgEarthNet.uav[48] utilizationCountMissions 52
scalar OsgEarthNet.uav[48] utilizationCountManeuversMission 956
scalar OsgEarthNet.uav[48] utilizationCountManeuversMaintenance 104
scalar OsgEarthNet.uav[48] utilizationCountChargeState 52
scalar OsgEarthNet.uav[48] utilizationCountOverdrawnAfterMission 0
scalar OsgEarthNet.uav[48] utilizationCountIdleState 53
scalar OsgEarthNet.uav[48] utilizationFail 0
scalar OsgEarthNet.uav[48] simulationTime 259200
scalar OsgEarthNet.uav[49] utilizationSecMission 32106.621080917
scalar OsgEarthNet.uav[49] utilizationSecMaintenance 17220.917315821
scalar OsgEarthNet.uav[49] utilizationSecCharge 181300.45860326
scalar OsgEarthNet.uav[49] utilizationSecIdle 28572.002
scalar OsgEarthNet.uav[49] utilizationEnergyMission 154102.99856949
scalar OsgEarthNet.uav[49] utilizationEnergyMaintenance 81469.074661255
scalar OsgEarthNet.uav[49] utilizationEnergyCharge 234416.40185547
scalar OsgEarthNet.uav[49] utilizationEnergyOverdrawMission 0
scalar OsgEarthNet.uav[49] utilizationEnergyOverdrawMaintenance 0
scalar OsgEarthNet.uav[49] utilizationCountMissions 52
scalar OsgEarthNet.uav[49] utilizationCountManeuversMission 907
scalar OsgEarthNet.uav[49] utilizationCountManeuversMaintenance 104
scalar OsgEarthNet.uav[49] utilizationCountChargeState 52
scalar OsgEarthNet.uav[49] utilizationCountOverdrawnAfterMission 0
scalar OsgEarthNet.uav[49] utilizationCountIdleState 52
scalar OsgEarthNet.uav[49] utilizationFail 0
scalar OsgEarthNet.uav[49] simulationTime 259200
scalar OsgEarthNet.uav[50] utilizationSecMission 38818.450299003
scalar OsgEarthNet.uav[50] utilizationSecMaintenance 16507.178214999
scalar OsgEarthNet.uav[50] utilizationSecCharge 193010
scalar OsgEarthNet.uav[50] utilizationSecIdle 10864.370485999
scalar OsgEarthNet.uav[50] utilizationEnergyMission 187629.20887071
scalar OsgEarthNet.uav[50] utilizationEnergyMaintenance 76263.829235077
scalar OsgEarthNet.uav[50] utilizationEnergyCharge 258538.92626953
scalar OsgEarthNet.uav[50] utilizationEnergyOverdrawMission 0
scalar OsgEarthNet.uav[50] utilizationEnergyOverdrawMaintenance 0
scalar OsgEarthNet.uav[50] utilizationCountMissions 56
scalar OsgEarthNet.uav[50] utilizationCountManeuversMission 1120
scalar OsgEarthNet.uav[50] utilizationCountManeuversMaintenance 113
scalar OsgEarthNet.uav[50] utilizationCountChargeState 56
scalar OsgEarthNet.uav[50] utilizationCountOverdrawnAfterMission 0
scalar OsgEarthNet.uav[50] utilizationCountIdleState 32
scalar OsgEarthNet.uav[50] utilizationFail 0
scalar OsgEarthNet.uav[50] simulationTime 259200
scalar OsgEarthNet.uav[51] utilizationSecMission 37750.567229766
scalar OsgEarthNet.uav[51] utilizationSecMaintenance 18226.973660808
scalar OsgEarthNet.uav[51] utilizationSecCharge 195887.01602074
scalar OsgEarthNet.uav[51] utilizationSecIdle 7335.4420886909
scalar OsgEarthNet.uav[51] utilizationEnergyMission 184295.54105377
scalar OsgEarthNet.uav[51] utilizationEnergyMaintenance 84138.309135437
scalar OsgEarthNet.uav[51] utilizationEnergyCharge 262389.46582031
scalar OsgEarthNet.uav[51] utilizationEnergyOverdrawMission 0
scalar OsgEarthNet.uav[51] utilizationEnergyOverdrawMaintenance 0
scalar OsgEarthNet.uav[51] utilizationCountMissions 58
scalar OsgEarthNet.uav[51] utilizationCountManeuversMission 1255
scalar OsgEarthNet.uav[51] utilizationCountManeuversMaintenance 116
scalar OsgEarthNet.uav[51] utilizationCountChargeState 58
scalar OsgEarthNet.uav[51] utilizationCountOverdrawnAfterMission 0
scalar OsgEarthNet.uav[51] utilizationCountIdleState 28
scalar OsgEarthNet.uav[51] utilizationFail 0
scalar OsgEarthNet.uav[51] simulationTime 259200
scalar OsgEarthNet.uav[52] utilizationSecMission 40599.943506303
scalar OsgEarthNet.uav[52] utilizationSecMaintenance 15573.705272876
scalar OsgEarthNet.uav[52] utilizationSecCharge 194160
scalar OsgEarthNet.uav[52] utilizationSecIdle 8866.3502208215
scalar OsgEarthNet.uav[52] utilizationEnergyMission 194019.49612045
scalar OsgEarthNet.uav[52] utilizationEnergyMaintenance 71091.560141733
scalar OsgEarthNet.uav[52] utilizationEnergyCharge 260147.67285156
scalar OsgEarthNet.uav[52] utilizationEnergyOverdrawMission 0
scalar OsgEarthNet.uav[52] utilizationEnergyOverdrawMaintenance 0
scalar OsgEarthNet.uav[52] utilizationCountMissions 57
scalar OsgEarthNet.uav[52] utilizationCountManeuversMission 1052
scalar OsgEarthNet.uav[52] utilizationCountManeuversMaintenance 114
scalar OsgEarthNet.uav[52] utilizationCountChargeState 56
scalar OsgEarthNet.uav[52] utilizationCountOverdrawnAfterMission 0
scalar OsgEarthNet.uav[52] utilizationCountIdleState 31
scalar OsgEarthNet.uav[52] utilizationFail 0
scalar OsgEarthNet.uav[52] simulationTime 259200
scalar OsgEarthNet.uav[53] utilizationSecMission 39303.215990727
scalar OsgEarthNet.uav[53] utilizationSecMaintenance 16407.538782687
scalar OsgEarthNet.uav[53] utilizationSecCharge 197847.24422659
scalar OsgEarthNet.uav[53] utilizationSecIdle 5642
scalar OsgEarthNet.uav[53] utilizationEnergyMission 186316.99918747
scalar OsgEarthNet.uav[53] utilizationEnergyMaintenance 75197.157848358
scalar OsgEarthNet.uav[53] utilizationEnergyCharge 263759.90771484
scalar OsgEarthNet.uav[53] utilizationEnergyOverdrawMission 0
scalar OsgEarthNet.uav[53] utilizationEnergyOverdrawMaintenance 0
scalar OsgEarthNet.uav[53] utilizationCountMissions 57
scalar OsgEarthNet.uav[53] utilizationCountManeuversMission 1063
scalar OsgEarthNet.uav[53] utilizationCountManeuversMaintenance 113
scalar OsgEarthNet.uav[53] utilizationCountChargeState 57
scalar OsgEarthNet.uav[53] utilizationCountOverdrawnAfterMission 0
scalar OsgEarthNet.uav[53] utilizationCountIdleState 33
scalar OsgEarthNet.uav[53] utilizationFail 0
scalar OsgEarthNet.uav[53] simulationTime 259200
scalar OsgEarthNet.uav[54] utilizationSecMission 39174.808038866
scalar OsgEarthNet.uav[54] utilizationSecMaintenance 16109.002832203
scalar OsgEarthNet.uav[54] utilizationSecCharge 194870
scalar OsgEarthNet.uav[54] utilizationSecIdle 9046.1881289308
scalar OsgEarthNet.uav[54] utilizationEnergyMission 189637.81266825
scalar OsgEarthNet.uav[54] utilizationEnergyMaintenance 74017.762481689
scalar OsgEarthNet.uav[54] utilizationEnergyCharge 260118.359375
scalar OsgEarthNet.uav[54] utilizationEnergyOverdrawMission 0
scalar OsgEarthNet.uav[54] utilizationEnergyOverdrawMaintenance 0
scalar OsgEarthNet.uav[54] utilizationCountMissions 56
scalar OsgEarthNet.uav[54] utilizationCountManeuversMission 1170
scalar OsgEarthNet.uav[54] utilizationCountManeuversMaintenance 113
scalar OsgEarthNet.uav[54] utilizationCountChargeState 56
scalar OsgEarthNet.uav[54] utilizationCountOverdrawnAfterMission 0
scalar OsgEarthNet.uav[54] utilizationCountIdleState 35
scalar OsgEarthNet.uav[54] utilizationFail 0
scalar OsgEarthNet.uav[54] simulationTime 259200
scalar OsgEarthNet.uav[55] utilizationSecMission 39394.169739737
scalar OsgEarthNet.uav[55] utilizationSecMaintenance 17024.773257252
scalar OsgEarthNet.uav[55] utilizationSecCharge 198249.05600301
scalar OsgEarthNet.uav[55] utilizationSecIdle 4532
scalar OsgEarthNet.uav[55] utilizationEnergyMission 192358.50911331
scalar OsgEarthNet.uav[55] utilizationEnergyMaintenance 78519.781730652
scalar OsgEarthNet.uav[55] utilizationEnergyCharge 266984.02685547
scalar OsgEarthNet.uav[55] utilizationEnergyOverdrawMission 0
scalar OsgEarthNet.uav[55] utilizationEnergyOverdrawMaintenance 0
scalar OsgEarthNet.uav[55] utilizationCountMissions 58
scalar OsgEarthNet.uav[55] utilizationCountManeuversMission 1278
scalar OsgEarthNet.uav[55] utilizationCountManeuversMaintenance 116
scalar OsgEarthNet.uav[55] utilizationCountChargeState 58
scalar OsgEarthNet.uav[55] utilizationCountOverdrawnAfterMission 0
scalar OsgEarthNet.uav[55] utilizationCountIdleState 33
scalar OsgEarthNet.uav[55] utilizationFail 0
scalar OsgEarthNet.uav[55] simulationTime 259200
scalar OsgEarthNet.uav[56] utilizationSecMission 38993.802236662
scalar OsgEarthNet.uav[56] utilizationSecMaintenance 15774.700161332
scalar OsgEarthNet.uav[56] utilizationSecCharge 194489.14514897
scalar OsgEarthNet.uav[56] utilizationSecIdle 9942.3514530398
scalar OsgEarthNet.uav[56] utilizationEnergyMission 187983.87102127
scalar OsgEarthNet.uav[56] utilizationEnergyMaintenance 72404.670513153
scalar OsgEarthNet.uav[56] utilizationEnergyCharge 260078.13476562
scalar OsgEarthNet.uav[56] utilizationEnergyOverdrawMission 0
scalar OsgEarthNet.uav[56] utilizationEnergyOverdrawMaintenance 0
scalar OsgEarthNet.uav[56] utilizationCountMissions 56
scalar OsgEarthNet.uav[56] utilizationCountManeuversMission 1078
scalar OsgEarthNet.uav[56] utilizationCountManeuversMaintenance 112
scalar OsgEarthNet.uav[56] utilizationCountChargeState 56
scalar OsgEarthNet.uav[56] utilizationCountOverdrawnAfterMission 0
scalar OsgEarthNet.uav[56] utilizationCountIdleState 36
scalar OsgEarthNet.uav[56] utilizationFail 0
scalar OsgEarthNet.uav[56] simulationTime 259200
scalar OsgEarthNet.uav[57] utilizationSecMission 28649.949793994
scalar OsgEarthNet.uav[57] utilizationSecMaintenance 18866.49863189
scalar OsgEarthNet.uav[57] utilizationSecCharge 184312.49277892
scalar OsgEarthNet.uav[57] utilizationSecIdle 27371.057795193
scalar OsgEarthNet.uav[57] utilizationEnergyMission 137437.69306183
scalar OsgEarthNet.uav[57] utilizationEnergyMaintenance 89516.332748413
scalar OsgEarthNet.uav[57] utilizationEnergyCharge 227207.26660156
scalar OsgEarthNet.uav[57] utilizationEnergyOverdrawMission 0
scalar OsgEarthNet.uav[57] utilizationEnergyOverdrawMaintenance 0
scalar OsgEarthNet.uav[57] utilizationCountMissions 59
scalar OsgEarthNet.uav[57] utilizationCountManeuversMission 814
scalar OsgEarthNet.uav[57] utilizationCountManeuversMaintenance 118
scalar OsgEarthNet.uav[57] utilizationCountChargeState 59
scalar OsgEarthNet.uav[57] utilizationCountOverdrawnAfterMission 0
scalar OsgEarthNet.uav[57] utilizationCountIdleState 59
scalar OsgEarthNet.uav[57] utilizationFail 0
scalar OsgEarthNet.uav[57] simulationTime 259200
scalar OsgEarthNet.uav[58] utilizationSecMission 39874.489658712
scalar OsgEarthNet.uav[58] utilizationSecMaintenance 16490.940039953
scalar OsgEarthNet.uav[58] utilizationSecCharge 197642.56930134
scalar OsgEarthNet.uav[58] utilizationSecIdle 5192
scalar OsgEarthNet.uav[58] utilizationEnergyMission 192940.46594392
scalar OsgEarthNet.uav[58] utilizationEnergyMaintenance 75235.232139587
scalar OsgEarthNet.uav[58] utilizationEnergyCharge 263612.96411133
scalar OsgEarthNet.uav[58] utilizationEnergyOverdrawMission 0
scalar OsgEarthNet.uav[58] utilizationEnergyOverdrawMaintenance 0
scalar OsgEarthNet.uav[58] utilizationCountMissions 58
scalar OsgEarthNet.uav[58] utilizationCountManeuversMission 1162
scalar OsgEarthNet.uav[58] utilizationCountManeuversMaintenance 115
scalar OsgEarthNet.uav[58] utilizationCountChargeState 58
scalar OsgEarthNet.uav[58] utilizationCountOverdrawnAfterMission 0
scalar OsgEarthNet.uav[58] utilizationCountIdleState 30
scalar OsgEarthNet.uav[58] utilizationFail 0
scalar OsgEarthNet.uav[58] simulationTime 259200
scalar OsgEarthNet.uav[59] utilizationSecMission 29078.385022294
scalar OsgEarthNet.uav[59] utilizationSecMaintenance 21172.197394145
scalar OsgEarthNet.uav[59] utilizationSecCharge 185757.41358356
scalar OsgEarthNet.uav[59] utilizationSecIdle 23192.003
scalar OsgEarthNet.uav[59] utilizationEnergyMission 144266.6366806
scalar OsgEarthNet.uav[59] utilizationEnergyMaintenance 100393.42749786
scalar OsgEarthNet.uav[59] utilizationEnergyCharge 239115.30603027
scalar OsgEarthNet.uav[59] utilizationEnergyOverdrawMission 0
scalar OsgEarthNet.uav[59] utilizationEnergyOverdrawMaintenance 0
scalar OsgEarthNet.uav[59] utilizationCountMissions 54
scalar OsgEarthNet.uav[59] utilizationCountManeuversMission 1111
scalar OsgEarthNet.uav[59] utilizationCountManeuversMaintenance 108
scalar OsgEarthNet.uav[59] utilizationCountChargeState 54
scalar OsgEarthNet.uav[59] utilizationCountOverdrawnAfterMission 0
scalar OsgEarthNet.uav[59] utilizationCountIdleState 54
scalar OsgEarthNet.uav[59] utilizationFail 0
scalar OsgEarthNet.uav[59] simulationTime 259200
scalar OsgEarthNet.uav[60] utilizationSecMission 38196.041483195
scalar OsgEarthNet.uav[60] utilizationSecMaintenance 17029.999469944
scalar OsgEarthNet.uav[60] utilizationSecCharge 195730
scalar OsgEarthNet.uav[60] utilizationSecIdle 8243.958046861
scalar OsgEarthNet.uav[60] utilizationEnergyMission 186218.35744858
scalar OsgEarthNet.uav[60] utilizationEnergyMaintenance 79064.312025205
scalar OsgEarthNet.uav[60] utilizationEnergyCharge 263199.84985352
scalar OsgEarthNet.uav[60] utilizationEnergyOverdrawMission 0
scalar OsgEarthNet.uav[60] utilizationEnergyOverdrawMaintenance 0
scalar OsgEarthNet.uav[60] utilizationCountMissions 57
scalar OsgEarthNet.uav[60] utilizationCountManeuversMission 1246
scalar OsgEarthNet.uav[60] utilizationCountManeuversMaintenance 115
scalar OsgEarthNet.uav[60] utilizationCountChargeState 57
scalar OsgEarthNet.uav[60] utilizationCountOverdrawnAfterMission 0
scalar OsgEarthNet.uav[60] utilizationCountIdleState 31
scalar OsgEarthNet.uav[60] utilizationFail 0
scalar OsgEarthNet.uav[60] simulationTime 259200
scalar OsgEarthNet.uav[61] utilizationSecMission 28467.001962491
scalar OsgEarthNet.uav[61] utilizationSecMaintenance 19345.582468485
scalar OsgEarthNet.uav[61] utilizationSecCharge 186885.4130623
scalar OsgEarthNet.uav[61] utilizationSecIdle 24502.001506722
scalar OsgEarthNet.uav[61] utilizationEnergyMission 138470.25721359
scalar OsgEarthNet.uav[61] utilizationEnergyMaintenance 92570.502498627
scalar OsgEarthNet.uav[61] utilizationEnergyCharge 229932.1875
scalar OsgEarthNet.uav[61] utilizationEnergyOverdrawMission 0
scalar OsgEarthNet.uav[61] utilizationEnergyOverdrawMaintenance 0
scalar OsgEarthNet.uav[61] utilizationCountMissions 60
scalar OsgEarthNet.uav[61] utilizationCountManeuversMission 827
scalar OsgEarthNet.uav[61] utilizationCountManeuversMaintenance 120
scalar OsgEarthNet.uav[61] utilizationCountChargeState 60
scalar OsgEarthNet.uav[61] utilizationCountOverdrawnAfterMission 0
scalar OsgEarthNet.uav[61] utilizationCountIdleState 60
scalar OsgEarthNet.uav[61] utilizationFail 0
scalar OsgEarthNet.uav[61] simulationTime 259200
scalar OsgEarthNet.uav[62] utilizationSecMission 39007.688436318
scalar OsgEarthNet.uav[62] utilizationSecMaintenance 16471.47099191
scalar OsgEarthNet.uav[62] utilizationSecCharge 197278.83857177
scalar OsgEarthNet.uav[62] utilizationSecIdle 6442.001
scalar OsgEarthNet.uav[62] utilizationEnergyMission 186804.09585571
scalar OsgEarthNet.uav[62] utilizationEnergyMaintenance 75765.792346954
scalar OsgEarthNet.uav[62] utilizationEnergyCharge 263850.20849609
scalar OsgEarthNet.uav[62] utilizationEnergyOverdrawMission 0
scalar OsgEarthNet.uav[62] utilizationEnergyOverdrawMaintenance 0
scalar OsgEarthNet.uav[62] utilizationCountMissions 57
scalar OsgEarthNet.uav[62] utilizationCountManeuversMission 1178
scalar OsgEarthNet.uav[62] utilizationCountManeuversMaintenance 114
scalar OsgEarthNet.uav[62] utilizationCountChargeState 57
scalar OsgEarthNet.uav[62] utilizationCountOverdrawnAfterMission 0
scalar OsgEarthNet.uav[62] utilizationCountIdleState 35
scalar OsgEarthNet.uav[62] utilizationFail 0
scalar OsgEarthNet.uav[62] simulationTime 259200
scalar OsgEarthNet.uav[63] utilizationSecMission 38722.516365142
scalar OsgEarthNet.uav[63] utilizationSecMaintenance 17227.115100071
scalar OsgEarthNet.uav[63] utilizationSecCharge 197298.36753479
scalar OsgEarthNet.uav[63] utilizationSecIdle 5952
scalar OsgEarthNet.uav[63] utilizationEnergyMission 184737.53503036
scalar OsgEarthNet.uav[63] utilizationEnergyMaintenance 79232.82598114
scalar OsgEarthNet.uav[63] utilizationEnergyCharge 265587.73022461
scalar OsgEarthNet.uav[63] utilizationEnergyOverdrawMission 0
scalar OsgEarthNet.uav[63] utilizationEnergyOverdrawMaintenance 0
scalar OsgEarthNet.uav[63] utilizationCountMissions 58
scalar OsgEarthNet.uav[63] utilizationCountManeuversMission 1151
scalar OsgEarthNet.uav[63] utilizationCountManeuversMaintenance 115
scalar OsgEarthNet.uav[63] utilizationCountChargeState 58
scalar OsgEarthNet.uav[63] utilizationCountOverdrawnAfterMission 0
scalar OsgEarthNet.uav[63] utilizationCountIdleState 32
scalar OsgEarthNet.uav[63] utilizationFail 0
scalar OsgEarthNet.uav[63] simulationTime 259200
scalar OsgEarthNet.uav[64] utilizationSecMission 29642.576049987
scalar OsgEarthNet.uav[64] utilizationSecMaintenance 20281.591451048
scalar OsgEarthNet.uav[64] utilizationSecCharge 190123.83149896
scalar OsgEarthNet.uav[64] utilizationSecIdle 19152
scalar OsgEarthNet.uav[64] utilizationEnergyMission 146425.79862213
scalar OsgEarthNet.uav[64] utilizationEnergyMaintenance 95724.097545624
scalar OsgEarthNet.uav[64] utilizationEnergyCharge 241555.64038086
scalar OsgEarthNet.uav[64] utilizationEnergyOverdrawMission 0
scalar OsgEarthNet.uav[64] utilizationEnergyOverdrawMaintenance 0
scalar OsgEarthNet.uav[64] utilizationCountMissions 57
scalar OsgEarthNet.uav[64] utilizationCountManeuversMission 1152
scalar OsgEarthNet.uav[64] utilizationCountManeuversMaintenance 113
scalar OsgEarthNet.uav[64] utilizationCountChargeState 57
scalar OsgEarthNet.uav[64] utilizationCountOverdrawnAfterMission 0
scalar OsgEarthNet.uav[64] utilizationCountIdleState 56
scalar OsgEarthNet.uav[64] utilizationFail 0
scalar OsgEarthNet.uav[64] simulationTime 259200
scalar OsgEarthNet.uav[65] utilizationSecMission 39416.281428019
scalar OsgEarthNet.uav[65] utilizationSecMaintenance 16175.813478636
scalar OsgEarthNet.uav[65] utilizationSecCharge 195275.90209335
scalar OsgEarthNet.uav[65] utilizationSecIdle 8332.002
scalar OsgEarthNet.uav[65] utilizationEnergyMission 189796.60245895
scalar OsgEarthNet.uav[65] utilizationEnergyMaintenance 72980.442741394
scalar OsgEarthNet.uav[65] utilizationEnergyCharge 261849.09423828
scalar OsgEarthNet.uav[65] utilizationEnergyOverdrawMission 0
scalar OsgEarthNet.uav[65] utilizationEnergyOverdrawMaintenance 0
scalar OsgEarthNet.uav[65] utilizationCountMissions 57
scalar OsgEarthNet.uav[65] utilizationCountManeuversMission 1057
scalar OsgEarthNet.uav[65] utilizationCountManeuversMaintenance 114
scalar OsgEarthNet.uav[65] utilizationCountChargeState 57
scalar OsgEarthNet.uav[65] utilizationCountOverdrawnAfterMission 0
scalar OsgEarthNet.uav[65] utilizationCountIdleState 34
scalar OsgEarthNet.uav[65] utilizationFail 0
scalar OsgEarthNet.uav[65] simulationTime 259200
scalar OsgEarthNet.uav[66] utilizationSecMission 39924.525783372
scalar OsgEarthNet.uav[66] utilizationSecMaintenance 16141.513744984
scalar OsgEarthNet.uav[66] utilizationSecCharge 194060.36880994
scalar OsgEarthNet.uav[66] utilizationSecIdle 9073.5906617084
scalar OsgEarthNet.uav[66] utilizationEnergyMission 190365.901577
scalar OsgEarthNet.uav[66] utilizationEnergyMaintenance 73316.160697937
scalar OsgEarthNet.uav[66] utilizationEnergyCharge 257850.62304688
scalar OsgEarthNet.uav[66] utilizationEnergyOverdrawMission 0
scalar OsgEarthNet.uav[66] utilizationEnergyOverdrawMaintenance 0
scalar OsgEarthNet.uav[66] utilizationCountMissions 57
scalar OsgEarthNet.uav[66] utilizationCountManeuversMission 1046
scalar OsgEarthNet.uav[66] utilizationCountManeuversMaintenance 114
scalar OsgEarthNet.uav[66] utilizationCountChargeState 57
scalar OsgEarthNet.uav[66] utilizationCountOverdrawnAfterMission 0
scalar OsgEarthNet.uav[66] utilizationCountIdleState 36
scalar OsgEarthNet.uav[66] utilizationFail 0
scalar OsgEarthNet.uav[66] simulationTime 259200
scalar OsgEarthNet.uav[67] utilizationSecMission 28461.601569993
scalar OsgEarthNet.uav[67] utilizationSecMaintenance 19829.108919052
scalar OsgEarthNet.uav[67] utilizationSecCharge 188454.67662144
scalar OsgEarthNet.uav[67] utilizationSecIdle 22454.611889516
scalar OsgEarthNet.uav[67] utilizationEnergyMission 140659.04010391
scalar OsgEarthNet.uav[67] utilizationEnergyMaintenance 94572.54536438
scalar OsgEarthNet.uav[67] utilizationEnergyCharge 234571.00830078
scalar OsgEarthNet.uav[67] utilizationEnergyOverdrawMission 0
scalar OsgEarthNet.uav[67] utilizationEnergyOverdrawMaintenance 0
scalar OsgEarthNet.uav[67] utilizationCountMissions 59
scalar OsgEarthNet.uav[67] utilizationCountManeuversMission 946
scalar OsgEarthNet.uav[67] utilizationCountManeuversMaintenance 118
scalar OsgEarthNet.uav[67] utilizationCountChargeState 59
scalar OsgEarthNet.uav[67] utilizationCountOverdrawnAfterMission 0
scalar OsgEarthNet.uav[67] utilizationCountIdleState 59
scalar OsgEarthNet.uav[67] utilizationFail 0
scalar OsgEarthNet.uav[67] simulationTime 259200
scalar OsgEarthNet.cs[0] usedPower 4012228.3126694
scalar OsgEarthNet.cs[0] chargedPower 4012228.3126694
scalar OsgEarthNet.cs[0] chargedMobileNodes 877
scalar OsgEarthNet.cs[0] reservations 892
scalar OsgEarthNet.cs[1] usedPower 4164473.6172572
scalar OsgEarthNet.cs[1] chargedPower 4164473.6172572
scalar OsgEarthNet.cs[1] chargedMobileNodes 1039
scalar OsgEarthNet.cs[1] reservations 1052
scalar OsgEarthNet.cs[2] usedPower 8661520.3260684
scalar OsgEarthNet.cs[2] chargedPower 8661520.3260684
scalar OsgEarthNet.cs[2] chargedMobileNodes 1060
scalar OsgEarthNet.cs[2] reservations 1886

