version 2
run Szenario_Hotel_Gabelbach-193-20180719-08:08:20-12220
attr configname Szenario_Hotel_Gabelbach
attr datetime 20180719-08:08:20
attr experiment Szenario_Hotel_Gabelbach
attr inifile omnetpp.ini
attr iterationvars "$replM=2, $biWeight=0.35, $replSearchM=1, $numUAVs=66"
attr iterationvarsf replM=2,biWeight=0.35,replSearchM=1,numUAVs=66-
attr measurement "$replM=2, $biWeight=0.35, $replSearchM=1, $numUAVs=66"
attr network OsgEarthNet
attr processid 12220
attr repetition 1
attr replication #1
attr resultdir results
attr runnumber 193
attr seedset 193
itervar biWeight 0.35
itervar numUAVs 66
itervar replM 2
itervar replSearchM 1
param *.osgEarthScene.scene "\"Szenario_Hotel_Gabelbach.earth\""
param *.playgroundLatitude 50.6830269
param *.playgroundLongitude 10.8538055
param *.playgroundWidth 3500m
param *.playgroundHeight 3500m
param *.cs[0].posX 3537m
param *.cs[0].posY 965m
param *.cs[0].posZ 538m
param *.cs[1].posX 312m
param *.cs[1].posY 1262m
param *.cs[1].posZ 539m
param *.cs[2].posX 2185m
param *.cs[2].posY 3026m
param *.cs[2].posZ 777m
param *.cs[3].posX 10m
param *.cs[3].posY 2200m
param *.cs[3].posZ 560m
param *.cs[4].posX 750m
param *.cs[4].posY 200m
param *.cs[4].posZ 540m
param *.cs[5].posX 2450m
param *.cs[5].posY 180m
param *.cs[5].posZ 524m
param *.cs[6].posX 3140m
param *.cs[6].posY 1790m
param *.cs[6].posZ 606m
param *.numCSs 3
param *.uav[*].replacementMethod 2
param *.uav[*].weightedSumWeight 0.35
param *.missionControl.replacementSearchMethod 1
param *.numUAVs 66
param *.*.timeStep 10s
param *.uav[*].commandPreviewCommandCount 20
param *.missionControl.missionFiles "\"missions\\\\Szenario_WB_Hotel_Gabelbach_Mission_Hotel.waypoints,missions\\\\Szenario_WB_Hotel_Gabelbach_Mission_Kickelhahn.waypoints,missions\\\\Szenario_WB_Hotel_Gabelbach_Mission_Ilmenau_Sportplatz.waypoints,missions\\\\Szenario_WB_Hotel_Gabelbach_Mission_Manebach_Mitte.waypoints,missions\\\\Szenario_WB_Hotel_Gabelbach_Mission_Manebach_Sued.waypoints,missions\\\\Szenario_WB_Hotel_Gabelbach_Hover_HoheSchlaufe.waypoints,missions\\\\Szenario_WB_Hotel_Gabelbach_Hover_Kickelhahn.waypoints,missions\\\\Szenario_WB_Hotel_Gabelbach_Hover_Gabelbachskopf.waypoints,missions\\\\Szenario_WB_Hotel_Gabelbach_Hover_Dachskopf.waypoints\""
param *.uav[0].startX 3537m
param *.uav[0].startY 965m
param *.uav[0].startZ 539m
param *.uav[1].startX 312m
param *.uav[1].startY 1262m
param *.uav[1].startZ 540m
param *.uav[2].startX 2185m
param *.uav[2].startY 3026m
param *.uav[2].startZ 778m
param *.uav[3].startX 3537m
param *.uav[3].startY 965m
param *.uav[3].startZ 539m
param *.uav[4].startX 312m
param *.uav[4].startY 1262m
param *.uav[4].startZ 540m
param *.uav[5].startX 2185m
param *.uav[5].startY 3026m
param *.uav[5].startZ 778m
param *.uav[6].startX 3537m
param *.uav[6].startY 965m
param *.uav[6].startZ 539m
param *.uav[7].startX 312m
param *.uav[7].startY 1262m
param *.uav[7].startZ 540m
param *.uav[8].startX 2185m
param *.uav[8].startY 3026m
param *.uav[8].startZ 778m
param *.uav[9].startX 3537m
param *.uav[9].startY 965m
param *.uav[9].startZ 539m
param *.uav[10].startX 3537m
param *.uav[10].startY 965m
param *.uav[10].startZ 539m
param *.uav[11].startX 312m
param *.uav[11].startY 1262m
param *.uav[11].startZ 540m
param *.uav[12].startX 2185m
param *.uav[12].startY 3026m
param *.uav[12].startZ 778m
param *.uav[13].startX 3537m
param *.uav[13].startY 965m
param *.uav[13].startZ 539m
param *.uav[14].startX 312m
param *.uav[14].startY 1262m
param *.uav[14].startZ 540m
param *.uav[15].startX 2185m
param *.uav[15].startY 3026m
param *.uav[15].startZ 778m
param *.uav[16].startX 3537m
param *.uav[16].startY 965m
param *.uav[16].startZ 539m
param *.uav[17].startX 312m
param *.uav[17].startY 1262m
param *.uav[17].startZ 540m
param *.uav[18].startX 2185m
param *.uav[18].startY 3026m
param *.uav[18].startZ 778m
param *.uav[19].startX 3537m
param *.uav[19].startY 965m
param *.uav[19].startZ 539m
param *.uav[20].startX 3537m
param *.uav[20].startY 965m
param *.uav[20].startZ 539m
param *.uav[21].startX 312m
param *.uav[21].startY 1262m
param *.uav[21].startZ 540m
param *.uav[22].startX 2185m
param *.uav[22].startY 3026m
param *.uav[22].startZ 778m
param *.uav[23].startX 3537m
param *.uav[23].startY 965m
param *.uav[23].startZ 539m
param *.uav[24].startX 312m
param *.uav[24].startY 1262m
param *.uav[24].startZ 540m
param *.uav[25].startX 2185m
param *.uav[25].startY 3026m
param *.uav[25].startZ 778m
param *.uav[26].startX 3537m
param *.uav[26].startY 965m
param *.uav[26].startZ 539m
param *.uav[27].startX 312m
param *.uav[27].startY 1262m
param *.uav[27].startZ 540m
param *.uav[28].startX 2185m
param *.uav[28].startY 3026m
param *.uav[28].startZ 778m
param *.uav[29].startX 3537m
param *.uav[29].startY 965m
param *.uav[29].startZ 539m
param *.uav[30].startX 3537m
param *.uav[30].startY 965m
param *.uav[30].startZ 539m
param *.uav[31].startX 312m
param *.uav[31].startY 1262m
param *.uav[31].startZ 540m
param *.uav[32].startX 2185m
param *.uav[32].startY 3026m
param *.uav[32].startZ 778m
param *.uav[33].startX 3537m
param *.uav[33].startY 965m
param *.uav[33].startZ 539m
param *.uav[34].startX 312m
param *.uav[34].startY 1262m
param *.uav[34].startZ 540m
param *.uav[35].startX 2185m
param *.uav[35].startY 3026m
param *.uav[35].startZ 778m
param *.uav[36].startX 3537m
param *.uav[36].startY 965m
param *.uav[36].startZ 539m
param *.uav[37].startX 312m
param *.uav[37].startY 1262m
param *.uav[37].startZ 540m
param *.uav[38].startX 2185m
param *.uav[38].startY 3026m
param *.uav[38].startZ 778m
param *.uav[39].startX 3537m
param *.uav[39].startY 965m
param *.uav[39].startZ 539m
param *.uav[40].startX 3537m
param *.uav[40].startY 965m
param *.uav[40].startZ 539m
param *.uav[41].startX 312m
param *.uav[41].startY 1262m
param *.uav[41].startZ 540m
param *.uav[42].startX 2185m
param *.uav[42].startY 3026m
param *.uav[42].startZ 778m
param *.uav[43].startX 3537m
param *.uav[43].startY 965m
param *.uav[43].startZ 539m
param *.uav[44].startX 312m
param *.uav[44].startY 1262m
param *.uav[44].startZ 540m
param *.uav[45].startX 2185m
param *.uav[45].startY 3026m
param *.uav[45].startZ 778m
param *.uav[46].startX 3537m
param *.uav[46].startY 965m
param *.uav[46].startZ 539m
param *.uav[47].startX 312m
param *.uav[47].startY 1262m
param *.uav[47].startZ 540m
param *.uav[48].startX 2185m
param *.uav[48].startY 3026m
param *.uav[48].startZ 778m
param *.uav[49].startX 3537m
param *.uav[49].startY 965m
param *.uav[49].startZ 539m
param *.uav[50].startX 3537m
param *.uav[50].startY 965m
param *.uav[50].startZ 539m
param *.uav[51].startX 312m
param *.uav[51].startY 1262m
param *.uav[51].startZ 540m
param *.uav[52].startX 2185m
param *.uav[52].startY 3026m
param *.uav[52].startZ 778m
param *.uav[53].startX 3537m
param *.uav[53].startY 965m
param *.uav[53].startZ 539m
param *.uav[54].startX 312m
param *.uav[54].startY 1262m
param *.uav[54].startZ 540m
param *.uav[55].startX 2185m
param *.uav[55].startY 3026m
param *.uav[55].startZ 778m
param *.uav[56].startX 3537m
param *.uav[56].startY 965m
param *.uav[56].startZ 539m
param *.uav[57].startX 312m
param *.uav[57].startY 1262m
param *.uav[57].startZ 540m
param *.uav[58].startX 2185m
param *.uav[58].startY 3026m
param *.uav[58].startZ 778m
param *.uav[59].startX 3537m
param *.uav[59].startY 965m
param *.uav[59].startZ 539m
param *.uav[60].startX 3537m
param *.uav[60].startY 965m
param *.uav[60].startZ 539m
param *.uav[61].startX 312m
param *.uav[61].startY 1262m
param *.uav[61].startZ 540m
param *.uav[62].startX 2185m
param *.uav[62].startY 3026m
param *.uav[62].startZ 778m
param *.uav[63].startX 3537m
param *.uav[63].startY 965m
param *.uav[63].startZ 539m
param *.uav[64].startX 312m
param *.uav[64].startY 1262m
param *.uav[64].startZ 540m
param *.uav[65].startX 2185m
param *.uav[65].startY 3026m
param *.uav[65].startZ 778m
param *.uav[66].startX 3537m
param *.uav[66].startY 965m
param *.uav[66].startZ 539m
param *.uav[67].startX 312m
param *.uav[67].startY 1262m
param *.uav[67].startZ 540m
param *.uav[68].startX 2185m
param *.uav[68].startY 3026m
param *.uav[68].startZ 778m
param *.uav[69].startX 3537m
param *.uav[69].startY 965m
param *.uav[69].startZ 539m
param *.uav[70].startX 3537m
param *.uav[70].startY 965m
param *.uav[70].startZ 539m
param *.uav[71].startX 312m
param *.uav[71].startY 1262m
param *.uav[71].startZ 540m
param *.uav[72].startX 2185m
param *.uav[72].startY 3026m
param *.uav[72].startZ 778m
param *.uav[73].startX 3537m
param *.uav[73].startY 965m
param *.uav[73].startZ 539m
param *.uav[74].startX 312m
param *.uav[74].startY 1262m
param *.uav[74].startZ 540m
param *.uav[75].startX 2185m
param *.uav[75].startY 3026m
param *.uav[75].startZ 778m
param *.uav[76].startX 3537m
param *.uav[76].startY 965m
param *.uav[76].startZ 539m
param *.uav[77].startX 312m
param *.uav[77].startY 1262m
param *.uav[77].startZ 540m
param *.uav[78].startX 2185m
param *.uav[78].startY 3026m
param *.uav[78].startZ 778m
param *.uav[79].startX 3537m
param *.uav[79].startY 965m
param *.uav[79].startZ 539m
param *.uav[80].startX 3537m
param *.uav[80].startY 965m
param *.uav[80].startZ 539m
param *.uav[81].startX 312m
param *.uav[81].startY 1262m
param *.uav[81].startZ 540m
param *.uav[82].startX 2185m
param *.uav[82].startY 3026m
param *.uav[82].startZ 778m
param *.uav[83].startX 3537m
param *.uav[83].startY 965m
param *.uav[83].startZ 539m
param *.uav[84].startX 312m
param *.uav[84].startY 1262m
param *.uav[84].startZ 540m
param *.uav[85].startX 2185m
param *.uav[85].startY 3026m
param *.uav[85].startZ 778m
param *.uav[86].startX 3537m
param *.uav[86].startY 965m
param *.uav[86].startZ 539m
param *.uav[87].startX 312m
param *.uav[87].startY 1262m
param *.uav[87].startZ 540m
param *.uav[88].startX 2185m
param *.uav[88].startY 3026m
param *.uav[88].startZ 778m
param *.uav[89].startX 3537m
param *.uav[89].startY 965m
param *.uav[89].startZ 539m
param *.uav[90].startX 3537m
param *.uav[90].startY 965m
param *.uav[90].startZ 539m
param *.uav[91].startX 312m
param *.uav[91].startY 1262m
param *.uav[91].startZ 540m
param *.uav[92].startX 2185m
param *.uav[92].startY 3026m
param *.uav[92].startZ 778m
param *.uav[93].startX 3537m
param *.uav[93].startY 965m
param *.uav[93].startZ 539m
param *.uav[94].startX 312m
param *.uav[94].startY 1262m
param *.uav[94].startZ 540m
param *.uav[95].startX 2185m
param *.uav[95].startY 3026m
param *.uav[95].startZ 778m
param *.uav[96].startX 3537m
param *.uav[96].startY 965m
param *.uav[96].startZ 539m
param *.uav[97].startX 312m
param *.uav[97].startY 1262m
param *.uav[97].startZ 540m
param *.uav[98].startX 2185m
param *.uav[98].startY 3026m
param *.uav[98].startZ 778m
param *.uav[99].startX 3537m
param *.uav[99].startY 965m
param *.uav[99].startZ 539m
param *.osgEarthScene.scene "\"boston.earth\""
param *.playgroundLatitude 42.3558
param *.playgroundLongitude -71.0677
param *.playgroundWidth 400m
param *.playgroundHeight 200m
param *.channelController.connectionColor "\"#0000FF40\""
param *.channelController.showConnections false
param *.uav[*].modelURL "\"quadrocopter.small.obj.15.scale.0,0,90.rot\""
param *.uav[*].labelColor "\"#FF7C00CC\""
param *.uav[*].label2Color "\"#FF7C00EE\""
param *.uav[*].batteryCapacity 5200mAh
param *.uav[*].batteryRemaining uav[index].batteryCapacity
param *.uav[*].predictionQuantile 0.95
param *.uav[*].replacementMethod 2
param *.uav[*].weightedSumWeight 0.5
param *.cs[*].modelURL "\"chargingstation_v1.osgt.2.scale.0,0,0.rot.0,0,-15e-1.trans\""
param *.cs[*].spotsWaiting 999
param *.cs[*].spotsCharging 999
param *.cs[*].chargeEffectivenessPercentage 100
param *.cs[*].nonLinearPhaseStartPercentage 85
param *.cs[*].chargeCurrent 6.0A
param *.cs[*].prioritizeFastCharge true
param *.missionControl.replacementSearchMethod 0
param *.*.timeStep 9s

scalar OsgEarthNet.uav[0] utilizationSecMission 39977.761972483
scalar OsgEarthNet.uav[0] utilizationSecMaintenance 16421.228083147
scalar OsgEarthNet.uav[0] utilizationSecCharge 197519.00894437
scalar OsgEarthNet.uav[0] utilizationSecIdle 5282
scalar OsgEarthNet.uav[0] utilizationEnergyMission 194674.38341141
scalar OsgEarthNet.uav[0] utilizationEnergyMaintenance 75713.229942322
scalar OsgEarthNet.uav[0] utilizationEnergyCharge 265542.18005371
scalar OsgEarthNet.uav[0] utilizationEnergyOverdrawMission 0
scalar OsgEarthNet.uav[0] utilizationEnergyOverdrawMaintenance 0
scalar OsgEarthNet.uav[0] utilizationCountMissions 58
scalar OsgEarthNet.uav[0] utilizationCountManeuversMission 1220
scalar OsgEarthNet.uav[0] utilizationCountManeuversMaintenance 115
scalar OsgEarthNet.uav[0] utilizationCountChargeState 58
scalar OsgEarthNet.uav[0] utilizationCountOverdrawnAfterMission 0
scalar OsgEarthNet.uav[0] utilizationCountIdleState 27
scalar OsgEarthNet.uav[0] utilizationFail 0
scalar OsgEarthNet.uav[0] simulationTime 259200
scalar OsgEarthNet.uav[1] utilizationSecMission 29168.199303372
scalar OsgEarthNet.uav[1] utilizationSecMaintenance 19961.90051566
scalar OsgEarthNet.uav[1] utilizationSecCharge 186657.89718097
scalar OsgEarthNet.uav[1] utilizationSecIdle 23412.002
scalar OsgEarthNet.uav[1] utilizationEnergyMission 141576.97612381
scalar OsgEarthNet.uav[1] utilizationEnergyMaintenance 94453.194221497
scalar OsgEarthNet.uav[1] utilizationEnergyCharge 232220.18969727
scalar OsgEarthNet.uav[1] utilizationEnergyOverdrawMission 0
scalar OsgEarthNet.uav[1] utilizationEnergyOverdrawMaintenance 0
scalar OsgEarthNet.uav[1] utilizationCountMissions 59
scalar OsgEarthNet.uav[1] utilizationCountManeuversMission 989
scalar OsgEarthNet.uav[1] utilizationCountManeuversMaintenance 118
scalar OsgEarthNet.uav[1] utilizationCountChargeState 59
scalar OsgEarthNet.uav[1] utilizationCountOverdrawnAfterMission 0
scalar OsgEarthNet.uav[1] utilizationCountIdleState 59
scalar OsgEarthNet.uav[1] utilizationFail 0
scalar OsgEarthNet.uav[1] simulationTime 259200
scalar OsgEarthNet.uav[2] utilizationSecMission 39275.442282689
scalar OsgEarthNet.uav[2] utilizationSecMaintenance 17290.520555971
scalar OsgEarthNet.uav[2] utilizationSecCharge 196742.03416134
scalar OsgEarthNet.uav[2] utilizationSecIdle 5892.002
scalar OsgEarthNet.uav[2] utilizationEnergyMission 189170.6578598
scalar OsgEarthNet.uav[2] utilizationEnergyMaintenance 80372.925926209
scalar OsgEarthNet.uav[2] utilizationEnergyCharge 266400.21801758
scalar OsgEarthNet.uav[2] utilizationEnergyOverdrawMission 0
scalar OsgEarthNet.uav[2] utilizationEnergyOverdrawMaintenance 0
scalar OsgEarthNet.uav[2] utilizationCountMissions 58
scalar OsgEarthNet.uav[2] utilizationCountManeuversMission 1080
scalar OsgEarthNet.uav[2] utilizationCountManeuversMaintenance 116
scalar OsgEarthNet.uav[2] utilizationCountChargeState 58
scalar OsgEarthNet.uav[2] utilizationCountOverdrawnAfterMission 0
scalar OsgEarthNet.uav[2] utilizationCountIdleState 24
scalar OsgEarthNet.uav[2] utilizationFail 0
scalar OsgEarthNet.uav[2] simulationTime 259200
scalar OsgEarthNet.uav[3] utilizationSecMission 32999.855819636
scalar OsgEarthNet.uav[3] utilizationSecMaintenance 20280.397626515
scalar OsgEarthNet.uav[3] utilizationSecCharge 193607.6057407
scalar OsgEarthNet.uav[3] utilizationSecIdle 12312.139813144
scalar OsgEarthNet.uav[3] utilizationEnergyMission 158929.26268387
scalar OsgEarthNet.uav[3] utilizationEnergyMaintenance 96496.794345856
scalar OsgEarthNet.uav[3] utilizationEnergyCharge 256331.10668945
scalar OsgEarthNet.uav[3] utilizationEnergyOverdrawMission 0
scalar OsgEarthNet.uav[3] utilizationEnergyOverdrawMaintenance 0
scalar OsgEarthNet.uav[3] utilizationCountMissions 58
scalar OsgEarthNet.uav[3] utilizationCountManeuversMission 1010
scalar OsgEarthNet.uav[3] utilizationCountManeuversMaintenance 116
scalar OsgEarthNet.uav[3] utilizationCountChargeState 58
scalar OsgEarthNet.uav[3] utilizationCountOverdrawnAfterMission 0
scalar OsgEarthNet.uav[3] utilizationCountIdleState 33
scalar OsgEarthNet.uav[3] utilizationFail 0
scalar OsgEarthNet.uav[3] simulationTime 259200
scalar OsgEarthNet.uav[4] utilizationSecMission 28568.704458963
scalar OsgEarthNet.uav[4] utilizationSecMaintenance 19090.330555363
scalar OsgEarthNet.uav[4] utilizationSecCharge 184040
scalar OsgEarthNet.uav[4] utilizationSecIdle 27500.963985674
scalar OsgEarthNet.uav[4] utilizationEnergyMission 135883.07645249
scalar OsgEarthNet.uav[4] utilizationEnergyMaintenance 90467.261257172
scalar OsgEarthNet.uav[4] utilizationEnergyCharge 223963.37988281
scalar OsgEarthNet.uav[4] utilizationEnergyOverdrawMission 0
scalar OsgEarthNet.uav[4] utilizationEnergyOverdrawMaintenance 0
scalar OsgEarthNet.uav[4] utilizationCountMissions 60
scalar OsgEarthNet.uav[4] utilizationCountManeuversMission 777
scalar OsgEarthNet.uav[4] utilizationCountManeuversMaintenance 121
scalar OsgEarthNet.uav[4] utilizationCountChargeState 60
scalar OsgEarthNet.uav[4] utilizationCountOverdrawnAfterMission 0
scalar OsgEarthNet.uav[4] utilizationCountIdleState 59
scalar OsgEarthNet.uav[4] utilizationFail 0
scalar OsgEarthNet.uav[4] simulationTime 259200
scalar OsgEarthNet.uav[5] utilizationSecMission 38631.528111599
scalar OsgEarthNet.uav[5] utilizationSecMaintenance 16969.04554111
scalar OsgEarthNet.uav[5] utilizationSecCharge 196140
scalar OsgEarthNet.uav[5] utilizationSecIdle 7459.4253472904
scalar OsgEarthNet.uav[5] utilizationEnergyMission 186463.24777278
scalar OsgEarthNet.uav[5] utilizationEnergyMaintenance 79609.245159149
scalar OsgEarthNet.uav[5] utilizationEnergyCharge 263580.52441406
scalar OsgEarthNet.uav[5] utilizationEnergyOverdrawMission 0
scalar OsgEarthNet.uav[5] utilizationEnergyOverdrawMaintenance 0
scalar OsgEarthNet.uav[5] utilizationCountMissions 57
scalar OsgEarthNet.uav[5] utilizationCountManeuversMission 1203
scalar OsgEarthNet.uav[5] utilizationCountManeuversMaintenance 115
scalar OsgEarthNet.uav[5] utilizationCountChargeState 57
scalar OsgEarthNet.uav[5] utilizationCountOverdrawnAfterMission 0
scalar OsgEarthNet.uav[5] utilizationCountIdleState 29
scalar OsgEarthNet.uav[5] utilizationFail 0
scalar OsgEarthNet.uav[5] simulationTime 259200
scalar OsgEarthNet.uav[6] utilizationSecMission 40505.092032163
scalar OsgEarthNet.uav[6] utilizationSecMaintenance 15239.591664967
scalar OsgEarthNet.uav[6] utilizationSecCharge 192951.15152996
scalar OsgEarthNet.uav[6] utilizationSecIdle 10504.163772908
scalar OsgEarthNet.uav[6] utilizationEnergyMission 190868.59470749
scalar OsgEarthNet.uav[6] utilizationEnergyMaintenance 69694.052257538
scalar OsgEarthNet.uav[6] utilizationEnergyCharge 256851.12084961
scalar OsgEarthNet.uav[6] utilizationEnergyOverdrawMission 0
scalar OsgEarthNet.uav[6] utilizationEnergyOverdrawMaintenance 0
scalar OsgEarthNet.uav[6] utilizationCountMissions 56
scalar OsgEarthNet.uav[6] utilizationCountManeuversMission 992
scalar OsgEarthNet.uav[6] utilizationCountManeuversMaintenance 112
scalar OsgEarthNet.uav[6] utilizationCountChargeState 56
scalar OsgEarthNet.uav[6] utilizationCountOverdrawnAfterMission 0
scalar OsgEarthNet.uav[6] utilizationCountIdleState 39
scalar OsgEarthNet.uav[6] utilizationFail 0
scalar OsgEarthNet.uav[6] simulationTime 259200
scalar OsgEarthNet.uav[7] utilizationSecMission 27873.460145854
scalar OsgEarthNet.uav[7] utilizationSecMaintenance 20080.341789777
scalar OsgEarthNet.uav[7] utilizationSecCharge 183712.52888638
scalar OsgEarthNet.uav[7] utilizationSecIdle 27533.668177988
scalar OsgEarthNet.uav[7] utilizationEnergyMission 136390.41796112
scalar OsgEarthNet.uav[7] utilizationEnergyMaintenance 94477.16437149
scalar OsgEarthNet.uav[7] utilizationEnergyCharge 228619.9543457
scalar OsgEarthNet.uav[7] utilizationEnergyOverdrawMission 0
scalar OsgEarthNet.uav[7] utilizationEnergyOverdrawMaintenance 0
scalar OsgEarthNet.uav[7] utilizationCountMissions 58
scalar OsgEarthNet.uav[7] utilizationCountManeuversMission 1035
scalar OsgEarthNet.uav[7] utilizationCountManeuversMaintenance 116
scalar OsgEarthNet.uav[7] utilizationCountChargeState 58
scalar OsgEarthNet.uav[7] utilizationCountOverdrawnAfterMission 0
scalar OsgEarthNet.uav[7] utilizationCountIdleState 57
scalar OsgEarthNet.uav[7] utilizationFail 0
scalar OsgEarthNet.uav[7] simulationTime 259200
scalar OsgEarthNet.uav[8] utilizationSecMission 39831.709631485
scalar OsgEarthNet.uav[8] utilizationSecMaintenance 16146.289368515
scalar OsgEarthNet.uav[8] utilizationSecCharge 197460
scalar OsgEarthNet.uav[8] utilizationSecIdle 5762
scalar OsgEarthNet.uav[8] utilizationEnergyMission 195640.85038908
scalar OsgEarthNet.uav[8] utilizationEnergyMaintenance 74095.461528778
scalar OsgEarthNet.uav[8] utilizationEnergyCharge 264246.0703125
scalar OsgEarthNet.uav[8] utilizationEnergyOverdrawMission 0
scalar OsgEarthNet.uav[8] utilizationEnergyOverdrawMaintenance 0
scalar OsgEarthNet.uav[8] utilizationCountMissions 57
scalar OsgEarthNet.uav[8] utilizationCountManeuversMission 1290
scalar OsgEarthNet.uav[8] utilizationCountManeuversMaintenance 114
scalar OsgEarthNet.uav[8] utilizationCountChargeState 57
scalar OsgEarthNet.uav[8] utilizationCountOverdrawnAfterMission 0
scalar OsgEarthNet.uav[8] utilizationCountIdleState 31
scalar OsgEarthNet.uav[8] utilizationFail 0
scalar OsgEarthNet.uav[8] simulationTime 259200
scalar OsgEarthNet.uav[9] utilizationSecMission 35725.838134658
scalar OsgEarthNet.uav[9] utilizationSecMaintenance 18780.768747808
scalar OsgEarthNet.uav[9] utilizationSecCharge 194570
scalar OsgEarthNet.uav[9] utilizationSecIdle 10123.392117534
scalar OsgEarthNet.uav[9] utilizationEnergyMission 171935.9323717
scalar OsgEarthNet.uav[9] utilizationEnergyMaintenance 89653.915622711
scalar OsgEarthNet.uav[9] utilizationEnergyCharge 259597.36572266
scalar OsgEarthNet.uav[9] utilizationEnergyOverdrawMission 0
scalar OsgEarthNet.uav[9] utilizationEnergyOverdrawMaintenance 0
scalar OsgEarthNet.uav[9] utilizationCountMissions 58
scalar OsgEarthNet.uav[9] utilizationCountManeuversMission 993
scalar OsgEarthNet.uav[9] utilizationCountManeuversMaintenance 117
scalar OsgEarthNet.uav[9] utilizationCountChargeState 58
scalar OsgEarthNet.uav[9] utilizationCountOverdrawnAfterMission 0
scalar OsgEarthNet.uav[9] utilizationCountIdleState 30
scalar OsgEarthNet.uav[9] utilizationFail 0
scalar OsgEarthNet.uav[9] simulationTime 259200
scalar OsgEarthNet.uav[10] utilizationSecMission 38544.913697689
scalar OsgEarthNet.uav[10] utilizationSecMaintenance 16770.505345408
scalar OsgEarthNet.uav[10] utilizationSecCharge 195790
scalar OsgEarthNet.uav[10] utilizationSecIdle 8094.5799569032
scalar OsgEarthNet.uav[10] utilizationEnergyMission 184476.03498077
scalar OsgEarthNet.uav[10] utilizationEnergyMaintenance 77604.09551239
scalar OsgEarthNet.uav[10] utilizationEnergyCharge 263310.45556641
scalar OsgEarthNet.uav[10] utilizationEnergyOverdrawMission 0
scalar OsgEarthNet.uav[10] utilizationEnergyOverdrawMaintenance 0
scalar OsgEarthNet.uav[10] utilizationCountMissions 57
scalar OsgEarthNet.uav[10] utilizationCountManeuversMission 1100
scalar OsgEarthNet.uav[10] utilizationCountManeuversMaintenance 114
scalar OsgEarthNet.uav[10] utilizationCountChargeState 57
scalar OsgEarthNet.uav[10] utilizationCountOverdrawnAfterMission 0
scalar OsgEarthNet.uav[10] utilizationCountIdleState 29
scalar OsgEarthNet.uav[10] utilizationFail 0
scalar OsgEarthNet.uav[10] simulationTime 259200
scalar OsgEarthNet.uav[11] utilizationSecMission 28728.901373743
scalar OsgEarthNet.uav[11] utilizationSecMaintenance 19862.834832217
scalar OsgEarthNet.uav[11] utilizationSecCharge 186966.25979404
scalar OsgEarthNet.uav[11] utilizationSecIdle 23642.003
scalar OsgEarthNet.uav[11] utilizationEnergyMission 143864.09976196
scalar OsgEarthNet.uav[11] utilizationEnergyMaintenance 93717.424369812
scalar OsgEarthNet.uav[11] utilizationEnergyCharge 234209.94213867
scalar OsgEarthNet.uav[11] utilizationEnergyOverdrawMission 0
scalar OsgEarthNet.uav[11] utilizationEnergyOverdrawMaintenance 0
scalar OsgEarthNet.uav[11] utilizationCountMissions 58
scalar OsgEarthNet.uav[11] utilizationCountManeuversMission 1019
scalar OsgEarthNet.uav[11] utilizationCountManeuversMaintenance 116
scalar OsgEarthNet.uav[11] utilizationCountChargeState 58
scalar OsgEarthNet.uav[11] utilizationCountOverdrawnAfterMission 0
scalar OsgEarthNet.uav[11] utilizationCountIdleState 57
scalar OsgEarthNet.uav[11] utilizationFail 0
scalar OsgEarthNet.uav[11] simulationTime 259200
scalar OsgEarthNet.uav[12] utilizationSecMission 38272.863311597
scalar OsgEarthNet.uav[12] utilizationSecMaintenance 17715.135688403
scalar OsgEarthNet.uav[12] utilizationSecCharge 198950
scalar OsgEarthNet.uav[12] utilizationSecIdle 4262
scalar OsgEarthNet.uav[12] utilizationEnergyMission 186191.83654219
scalar OsgEarthNet.uav[12] utilizationEnergyMaintenance 82637.131626129
scalar OsgEarthNet.uav[12] utilizationEnergyCharge 268133.80566406
scalar OsgEarthNet.uav[12] utilizationEnergyOverdrawMission 0
scalar OsgEarthNet.uav[12] utilizationEnergyOverdrawMaintenance 0
scalar OsgEarthNet.uav[12] utilizationCountMissions 58
scalar OsgEarthNet.uav[12] utilizationCountManeuversMission 1192
scalar OsgEarthNet.uav[12] utilizationCountManeuversMaintenance 117
scalar OsgEarthNet.uav[12] utilizationCountChargeState 58
scalar OsgEarthNet.uav[12] utilizationCountOverdrawnAfterMission 0
scalar OsgEarthNet.uav[12] utilizationCountIdleState 24
scalar OsgEarthNet.uav[12] utilizationFail 0
scalar OsgEarthNet.uav[12] simulationTime 259200
scalar OsgEarthNet.uav[13] utilizationSecMission 34079.609368433
scalar OsgEarthNet.uav[13] utilizationSecMaintenance 21407.623666228
scalar OsgEarthNet.uav[13] utilizationSecCharge 195840
scalar OsgEarthNet.uav[13] utilizationSecIdle 7872.765965339
scalar OsgEarthNet.uav[13] utilizationEnergyMission 168404.3936093
scalar OsgEarthNet.uav[13] utilizationEnergyMaintenance 101580.46873474
scalar OsgEarthNet.uav[13] utilizationEnergyCharge 265585.51953125
scalar OsgEarthNet.uav[13] utilizationEnergyOverdrawMission 0
scalar OsgEarthNet.uav[13] utilizationEnergyOverdrawMaintenance 0
scalar OsgEarthNet.uav[13] utilizationCountMissions 59
scalar OsgEarthNet.uav[13] utilizationCountManeuversMission 1125
scalar OsgEarthNet.uav[13] utilizationCountManeuversMaintenance 119
scalar OsgEarthNet.uav[13] utilizationCountChargeState 59
scalar OsgEarthNet.uav[13] utilizationCountOverdrawnAfterMission 0
scalar OsgEarthNet.uav[13] utilizationCountIdleState 21
scalar OsgEarthNet.uav[13] utilizationFail 0
scalar OsgEarthNet.uav[13] simulationTime 259200
scalar OsgEarthNet.uav[14] utilizationSecMission 38452.226093971
scalar OsgEarthNet.uav[14] utilizationSecMaintenance 16822.330817338
scalar OsgEarthNet.uav[14] utilizationSecCharge 195080
scalar OsgEarthNet.uav[14] utilizationSecIdle 8845.4420886909
scalar OsgEarthNet.uav[14] utilizationEnergyMission 184947.07990646
scalar OsgEarthNet.uav[14] utilizationEnergyMaintenance 77981.835673169
scalar OsgEarthNet.uav[14] utilizationEnergyCharge 262404.8203125
scalar OsgEarthNet.uav[14] utilizationEnergyOverdrawMission 0
scalar OsgEarthNet.uav[14] utilizationEnergyOverdrawMaintenance 0
scalar OsgEarthNet.uav[14] utilizationCountMissions 58
scalar OsgEarthNet.uav[14] utilizationCountManeuversMission 1266
scalar OsgEarthNet.uav[14] utilizationCountManeuversMaintenance 116
scalar OsgEarthNet.uav[14] utilizationCountChargeState 57
scalar OsgEarthNet.uav[14] utilizationCountOverdrawnAfterMission 0
scalar OsgEarthNet.uav[14] utilizationCountIdleState 32
scalar OsgEarthNet.uav[14] utilizationFail 0
scalar OsgEarthNet.uav[14] simulationTime 259200
scalar OsgEarthNet.uav[15] utilizationSecMission 39357.022614187
scalar OsgEarthNet.uav[15] utilizationSecMaintenance 16806.833464948
scalar OsgEarthNet.uav[15] utilizationSecCharge 196199.79270004
scalar OsgEarthNet.uav[15] utilizationSecIdle 6836.3502208215
scalar OsgEarthNet.uav[15] utilizationEnergyMission 189024.1121521
scalar OsgEarthNet.uav[15] utilizationEnergyMaintenance 76550.040138245
scalar OsgEarthNet.uav[15] utilizationEnergyCharge 264729.63208008
scalar OsgEarthNet.uav[15] utilizationEnergyOverdrawMission 0
scalar OsgEarthNet.uav[15] utilizationEnergyOverdrawMaintenance 0
scalar OsgEarthNet.uav[15] utilizationCountMissions 58
scalar OsgEarthNet.uav[15] utilizationCountManeuversMission 1136
scalar OsgEarthNet.uav[15] utilizationCountManeuversMaintenance 116
scalar OsgEarthNet.uav[15] utilizationCountChargeState 58
scalar OsgEarthNet.uav[15] utilizationCountOverdrawnAfterMission 0
scalar OsgEarthNet.uav[15] utilizationCountIdleState 25
scalar OsgEarthNet.uav[15] utilizationFail 0
scalar OsgEarthNet.uav[15] simulationTime 259200
scalar OsgEarthNet.uav[16] utilizationSecMission 28033.806495733
scalar OsgEarthNet.uav[16] utilizationSecMaintenance 19302.075303707
scalar OsgEarthNet.uav[16] utilizationSecCharge 185046.03422077
scalar OsgEarthNet.uav[16] utilizationSecIdle 26818.082979789
scalar OsgEarthNet.uav[16] utilizationEnergyMission 136043.82479095
scalar OsgEarthNet.uav[16] utilizationEnergyMaintenance 92041.813838959
scalar OsgEarthNet.uav[16] utilizationEnergyCharge 226232.95043945
scalar OsgEarthNet.uav[16] utilizationEnergyOverdrawMission 0
scalar OsgEarthNet.uav[16] utilizationEnergyOverdrawMaintenance 0
scalar OsgEarthNet.uav[16] utilizationCountMissions 60
scalar OsgEarthNet.uav[16] utilizationCountManeuversMission 790
scalar OsgEarthNet.uav[16] utilizationCountManeuversMaintenance 120
scalar OsgEarthNet.uav[16] utilizationCountChargeState 60
scalar OsgEarthNet.uav[16] utilizationCountOverdrawnAfterMission 0
scalar OsgEarthNet.uav[16] utilizationCountIdleState 57
scalar OsgEarthNet.uav[16] utilizationFail 0
scalar OsgEarthNet.uav[16] simulationTime 259200
scalar OsgEarthNet.uav[17] utilizationSecMission 30261.657804708
scalar OsgEarthNet.uav[17] utilizationSecMaintenance 19142.257295568
scalar OsgEarthNet.uav[17] utilizationSecCharge 187964.08389972
scalar OsgEarthNet.uav[17] utilizationSecIdle 21832
scalar OsgEarthNet.uav[17] utilizationEnergyMission 148703.40236282
scalar OsgEarthNet.uav[17] utilizationEnergyMaintenance 90054.651706696
scalar OsgEarthNet.uav[17] utilizationEnergyCharge 234660.48352051
scalar OsgEarthNet.uav[17] utilizationEnergyOverdrawMission 0
scalar OsgEarthNet.uav[17] utilizationEnergyOverdrawMaintenance 0
scalar OsgEarthNet.uav[17] utilizationCountMissions 59
scalar OsgEarthNet.uav[17] utilizationCountManeuversMission 1031
scalar OsgEarthNet.uav[17] utilizationCountManeuversMaintenance 118
scalar OsgEarthNet.uav[17] utilizationCountChargeState 59
scalar OsgEarthNet.uav[17] utilizationCountOverdrawnAfterMission 0
scalar OsgEarthNet.uav[17] utilizationCountIdleState 57
scalar OsgEarthNet.uav[17] utilizationFail 0
scalar OsgEarthNet.uav[17] simulationTime 259200
scalar OsgEarthNet.uav[18] utilizationSecMission 38025.101548575
scalar OsgEarthNet.uav[18] utilizationSecMaintenance 17927.125040402
scalar OsgEarthNet.uav[18] utilizationSecCharge 195848.92424903
scalar OsgEarthNet.uav[18] utilizationSecIdle 7398.8481619971
scalar OsgEarthNet.uav[18] utilizationEnergyMission 183994.76306915
scalar OsgEarthNet.uav[18] utilizationEnergyMaintenance 81948.161148071
scalar OsgEarthNet.uav[18] utilizationEnergyCharge 263780.44726562
scalar OsgEarthNet.uav[18] utilizationEnergyOverdrawMission 0
scalar OsgEarthNet.uav[18] utilizationEnergyOverdrawMaintenance 0
scalar OsgEarthNet.uav[18] utilizationCountMissions 58
scalar OsgEarthNet.uav[18] utilizationCountManeuversMission 1174
scalar OsgEarthNet.uav[18] utilizationCountManeuversMaintenance 116
scalar OsgEarthNet.uav[18] utilizationCountChargeState 58
scalar OsgEarthNet.uav[18] utilizationCountOverdrawnAfterMission 0
scalar OsgEarthNet.uav[18] utilizationCountIdleState 27
scalar OsgEarthNet.uav[18] utilizationFail 0
scalar OsgEarthNet.uav[18] simulationTime 259200
scalar OsgEarthNet.uav[19] utilizationSecMission 39308.746314614
scalar OsgEarthNet.uav[19] utilizationSecMaintenance 15489.009336508
scalar OsgEarthNet.uav[19] utilizationSecCharge 192990.25161279
scalar OsgEarthNet.uav[19] utilizationSecIdle 11411.991736092
scalar OsgEarthNet.uav[19] utilizationEnergyMission 188600.54911041
scalar OsgEarthNet.uav[19] utilizationEnergyMaintenance 71552.710186005
scalar OsgEarthNet.uav[19] utilizationEnergyCharge 260079.17138672
scalar OsgEarthNet.uav[19] utilizationEnergyOverdrawMission 0
scalar OsgEarthNet.uav[19] utilizationEnergyOverdrawMaintenance 0
scalar OsgEarthNet.uav[19] utilizationCountMissions 56
scalar OsgEarthNet.uav[19] utilizationCountManeuversMission 1149
scalar OsgEarthNet.uav[19] utilizationCountManeuversMaintenance 112
scalar OsgEarthNet.uav[19] utilizationCountChargeState 56
scalar OsgEarthNet.uav[19] utilizationCountOverdrawnAfterMission 0
scalar OsgEarthNet.uav[19] utilizationCountIdleState 35
scalar OsgEarthNet.uav[19] utilizationFail 0
scalar OsgEarthNet.uav[19] simulationTime 259200
scalar OsgEarthNet.uav[20] utilizationSecMission 37703.394679433
scalar OsgEarthNet.uav[20] utilizationSecMaintenance 17820.801350293
scalar OsgEarthNet.uav[20] utilizationSecCharge 195944.85171461
scalar OsgEarthNet.uav[20] utilizationSecIdle 7730.9512556647
scalar OsgEarthNet.uav[20] utilizationEnergyMission 184769.61225891
scalar OsgEarthNet.uav[20] utilizationEnergyMaintenance 81245.615787506
scalar OsgEarthNet.uav[20] utilizationEnergyCharge 264297.38378906
scalar OsgEarthNet.uav[20] utilizationEnergyOverdrawMission 0
scalar OsgEarthNet.uav[20] utilizationEnergyOverdrawMaintenance 0
scalar OsgEarthNet.uav[20] utilizationCountMissions 58
scalar OsgEarthNet.uav[20] utilizationCountManeuversMission 1268
scalar OsgEarthNet.uav[20] utilizationCountManeuversMaintenance 116
scalar OsgEarthNet.uav[20] utilizationCountChargeState 58
scalar OsgEarthNet.uav[20] utilizationCountOverdrawnAfterMission 0
scalar OsgEarthNet.uav[20] utilizationCountIdleState 23
scalar OsgEarthNet.uav[20] utilizationFail 0
scalar OsgEarthNet.uav[20] simulationTime 259200
scalar OsgEarthNet.uav[21] utilizationSecMission 36603.759447484
scalar OsgEarthNet.uav[21] utilizationSecMaintenance 16101.220146348
scalar OsgEarthNet.uav[21] utilizationSecCharge 192760
scalar OsgEarthNet.uav[21] utilizationSecIdle 13735.019406168
scalar OsgEarthNet.uav[21] utilizationEnergyMission 176032.51573181
scalar OsgEarthNet.uav[21] utilizationEnergyMaintenance 74871.48513031
scalar OsgEarthNet.uav[21] utilizationEnergyCharge 251349.86450195
scalar OsgEarthNet.uav[21] utilizationEnergyOverdrawMission 0
scalar OsgEarthNet.uav[21] utilizationEnergyOverdrawMaintenance 0
scalar OsgEarthNet.uav[21] utilizationCountMissions 57
scalar OsgEarthNet.uav[21] utilizationCountManeuversMission 994
scalar OsgEarthNet.uav[21] utilizationCountManeuversMaintenance 114
scalar OsgEarthNet.uav[21] utilizationCountChargeState 57
scalar OsgEarthNet.uav[21] utilizationCountOverdrawnAfterMission 0
scalar OsgEarthNet.uav[21] utilizationCountIdleState 43
scalar OsgEarthNet.uav[21] utilizationFail 0
scalar OsgEarthNet.uav[21] simulationTime 259200
scalar OsgEarthNet.uav[22] utilizationSecMission 38997.240213313
scalar OsgEarthNet.uav[22] utilizationSecMaintenance 17337.136622225
scalar OsgEarthNet.uav[22] utilizationSecCharge 196033.61816446
scalar OsgEarthNet.uav[22] utilizationSecIdle 6832.004
scalar OsgEarthNet.uav[22] utilizationEnergyMission 190747.01231384
scalar OsgEarthNet.uav[22] utilizationEnergyMaintenance 79628.635398865
scalar OsgEarthNet.uav[22] utilizationEnergyCharge 264144.16552734
scalar OsgEarthNet.uav[22] utilizationEnergyOverdrawMission 0
scalar OsgEarthNet.uav[22] utilizationEnergyOverdrawMaintenance 0
scalar OsgEarthNet.uav[22] utilizationCountMissions 58
scalar OsgEarthNet.uav[22] utilizationCountManeuversMission 1160
scalar OsgEarthNet.uav[22] utilizationCountManeuversMaintenance 116
scalar OsgEarthNet.uav[22] utilizationCountChargeState 58
scalar OsgEarthNet.uav[22] utilizationCountOverdrawnAfterMission 0
scalar OsgEarthNet.uav[22] utilizationCountIdleState 32
scalar OsgEarthNet.uav[22] utilizationFail 0
scalar OsgEarthNet.uav[22] simulationTime 259200
scalar OsgEarthNet.uav[23] utilizationSecMission 35647.762310998
scalar OsgEarthNet.uav[23] utilizationSecMaintenance 20042.541208082
scalar OsgEarthNet.uav[23] utilizationSecCharge 195088.18181997
scalar OsgEarthNet.uav[23] utilizationSecIdle 8421.5136609497
scalar OsgEarthNet.uav[23] utilizationEnergyMission 171876.23662567
scalar OsgEarthNet.uav[23] utilizationEnergyMaintenance 94839.306442261
scalar OsgEarthNet.uav[23] utilizationEnergyCharge 264111.49731445
scalar OsgEarthNet.uav[23] utilizationEnergyOverdrawMission 0
scalar OsgEarthNet.uav[23] utilizationEnergyOverdrawMaintenance 0
scalar OsgEarthNet.uav[23] utilizationCountMissions 59
scalar OsgEarthNet.uav[23] utilizationCountManeuversMission 1049
scalar OsgEarthNet.uav[23] utilizationCountManeuversMaintenance 118
scalar OsgEarthNet.uav[23] utilizationCountChargeState 59
scalar OsgEarthNet.uav[23] utilizationCountOverdrawnAfterMission 0
scalar OsgEarthNet.uav[23] utilizationCountIdleState 29
scalar OsgEarthNet.uav[23] utilizationFail 0
scalar OsgEarthNet.uav[23] simulationTime 259200
scalar OsgEarthNet.uav[24] utilizationSecMission 29325.539942514
scalar OsgEarthNet.uav[24] utilizationSecMaintenance 19855.964107546
scalar OsgEarthNet.uav[24] utilizationSecCharge 185146.48794994
scalar OsgEarthNet.uav[24] utilizationSecIdle 24872.007
scalar OsgEarthNet.uav[24] utilizationEnergyMission 148878.72059631
scalar OsgEarthNet.uav[24] utilizationEnergyMaintenance 94174.761108398
scalar OsgEarthNet.uav[24] utilizationEnergyCharge 235008.40087891
scalar OsgEarthNet.uav[24] utilizationEnergyOverdrawMission 0
scalar OsgEarthNet.uav[24] utilizationEnergyOverdrawMaintenance 0
scalar OsgEarthNet.uav[24] utilizationCountMissions 56
scalar OsgEarthNet.uav[24] utilizationCountManeuversMission 1117
scalar OsgEarthNet.uav[24] utilizationCountManeuversMaintenance 112
scalar OsgEarthNet.uav[24] utilizationCountChargeState 56
scalar OsgEarthNet.uav[24] utilizationCountOverdrawnAfterMission 0
scalar OsgEarthNet.uav[24] utilizationCountIdleState 54
scalar OsgEarthNet.uav[24] utilizationFail 0
scalar OsgEarthNet.uav[24] simulationTime 259200
scalar OsgEarthNet.uav[25] utilizationSecMission 38392.191696298
scalar OsgEarthNet.uav[25] utilizationSecMaintenance 17618.587689787
scalar OsgEarthNet.uav[25] utilizationSecCharge 196810
scalar OsgEarthNet.uav[25] utilizationSecIdle 6379.2196139157
scalar OsgEarthNet.uav[25] utilizationEnergyMission 185141.33616634
scalar OsgEarthNet.uav[25] utilizationEnergyMaintenance 81452.025444031
scalar OsgEarthNet.uav[25] utilizationEnergyCharge 265632.94091797
scalar OsgEarthNet.uav[25] utilizationEnergyOverdrawMission 0
scalar OsgEarthNet.uav[25] utilizationEnergyOverdrawMaintenance 0
scalar OsgEarthNet.uav[25] utilizationCountMissions 58
scalar OsgEarthNet.uav[25] utilizationCountManeuversMission 1282
scalar OsgEarthNet.uav[25] utilizationCountManeuversMaintenance 117
scalar OsgEarthNet.uav[25] utilizationCountChargeState 58
scalar OsgEarthNet.uav[25] utilizationCountOverdrawnAfterMission 0
scalar OsgEarthNet.uav[25] utilizationCountIdleState 31
scalar OsgEarthNet.uav[25] utilizationFail 0
scalar OsgEarthNet.uav[25] simulationTime 259200
scalar OsgEarthNet.uav[26] utilizationSecMission 31819.119249954
scalar OsgEarthNet.uav[26] utilizationSecMaintenance 23511.848043302
scalar OsgEarthNet.uav[26] utilizationSecCharge 197607.02670674
scalar OsgEarthNet.uav[26] utilizationSecIdle 6262.005
scalar OsgEarthNet.uav[26] utilizationEnergyMission 157034.24740601
scalar OsgEarthNet.uav[26] utilizationEnergyMaintenance 111192.71163559
scalar OsgEarthNet.uav[26] utilizationEnergyCharge 267076.46899414
scalar OsgEarthNet.uav[26] utilizationEnergyOverdrawMission 0
scalar OsgEarthNet.uav[26] utilizationEnergyOverdrawMaintenance 0
scalar OsgEarthNet.uav[26] utilizationCountMissions 60
scalar OsgEarthNet.uav[26] utilizationCountManeuversMission 1205
scalar OsgEarthNet.uav[26] utilizationCountManeuversMaintenance 120
scalar OsgEarthNet.uav[26] utilizationCountChargeState 60
scalar OsgEarthNet.uav[26] utilizationCountOverdrawnAfterMission 0
scalar OsgEarthNet.uav[26] utilizationCountIdleState 19
scalar OsgEarthNet.uav[26] utilizationFail 0
scalar OsgEarthNet.uav[26] simulationTime 259200
scalar OsgEarthNet.uav[27] utilizationSecMission 28014.45570195
scalar OsgEarthNet.uav[27] utilizationSecMaintenance 20015.269334116
scalar OsgEarthNet.uav[27] utilizationSecCharge 185498.26896393
scalar OsgEarthNet.uav[27] utilizationSecIdle 25672.005
scalar OsgEarthNet.uav[27] utilizationEnergyMission 139662.26524353
scalar OsgEarthNet.uav[27] utilizationEnergyMaintenance 94367.170768738
scalar OsgEarthNet.uav[27] utilizationEnergyCharge 233443.99658203
scalar OsgEarthNet.uav[27] utilizationEnergyOverdrawMission 0
scalar OsgEarthNet.uav[27] utilizationEnergyOverdrawMaintenance 0
scalar OsgEarthNet.uav[27] utilizationCountMissions 57
scalar OsgEarthNet.uav[27] utilizationCountManeuversMission 1044
scalar OsgEarthNet.uav[27] utilizationCountManeuversMaintenance 114
scalar OsgEarthNet.uav[27] utilizationCountChargeState 57
scalar OsgEarthNet.uav[27] utilizationCountOverdrawnAfterMission 0
scalar OsgEarthNet.uav[27] utilizationCountIdleState 56
scalar OsgEarthNet.uav[27] utilizationFail 0
scalar OsgEarthNet.uav[27] simulationTime 259200
scalar OsgEarthNet.uav[28] utilizationSecMission 38926.204076607
scalar OsgEarthNet.uav[28] utilizationSecMaintenance 16523.031390343
scalar OsgEarthNet.uav[28] utilizationSecCharge 196288.76253305
scalar OsgEarthNet.uav[28] utilizationSecIdle 7462.001
scalar OsgEarthNet.uav[28] utilizationEnergyMission 187698.83107376
scalar OsgEarthNet.uav[28] utilizationEnergyMaintenance 76566.528190613
scalar OsgEarthNet.uav[28] utilizationEnergyCharge 264483.73486328
scalar OsgEarthNet.uav[28] utilizationEnergyOverdrawMission 0
scalar OsgEarthNet.uav[28] utilizationEnergyOverdrawMaintenance 0
scalar OsgEarthNet.uav[28] utilizationCountMissions 57
scalar OsgEarthNet.uav[28] utilizationCountManeuversMission 1132
scalar OsgEarthNet.uav[28] utilizationCountManeuversMaintenance 114
scalar OsgEarthNet.uav[28] utilizationCountChargeState 57
scalar OsgEarthNet.uav[28] utilizationCountOverdrawnAfterMission 0
scalar OsgEarthNet.uav[28] utilizationCountIdleState 33
scalar OsgEarthNet.uav[28] utilizationFail 0
scalar OsgEarthNet.uav[28] simulationTime 259200
scalar OsgEarthNet.uav[29] utilizationSecMission 31929.377288704
scalar OsgEarthNet.uav[29] utilizationSecMaintenance 23216.058960632
scalar OsgEarthNet.uav[29] utilizationSecCharge 194742.55475066
scalar OsgEarthNet.uav[29] utilizationSecIdle 9312.008
scalar OsgEarthNet.uav[29] utilizationEnergyMission 156436.47767639
scalar OsgEarthNet.uav[29] utilizationEnergyMaintenance 110474.74914169
scalar OsgEarthNet.uav[29] utilizationEnergyCharge 264896.421875
scalar OsgEarthNet.uav[29] utilizationEnergyOverdrawMission 0
scalar OsgEarthNet.uav[29] utilizationEnergyOverdrawMaintenance 0
scalar OsgEarthNet.uav[29] utilizationCountMissions 59
scalar OsgEarthNet.uav[29] utilizationCountManeuversMission 1206
scalar OsgEarthNet.uav[29] utilizationCountManeuversMaintenance 118
scalar OsgEarthNet.uav[29] utilizationCountChargeState 59
scalar OsgEarthNet.uav[29] utilizationCountOverdrawnAfterMission 0
scalar OsgEarthNet.uav[29] utilizationCountIdleState 21
scalar OsgEarthNet.uav[29] utilizationFail 0
scalar OsgEarthNet.uav[29] simulationTime 259200
scalar OsgEarthNet.uav[30] utilizationSecMission 33724.745623176
scalar OsgEarthNet.uav[30] utilizationSecMaintenance 20678.275547601
scalar OsgEarthNet.uav[30] utilizationSecCharge 193322.3334073
scalar OsgEarthNet.uav[30] utilizationSecIdle 11474.644421923
scalar OsgEarthNet.uav[30] utilizationEnergyMission 162433.29779053
scalar OsgEarthNet.uav[30] utilizationEnergyMaintenance 98413.0117836
scalar OsgEarthNet.uav[30] utilizationEnergyCharge 261964.68969727
scalar OsgEarthNet.uav[30] utilizationEnergyOverdrawMission 0
scalar OsgEarthNet.uav[30] utilizationEnergyOverdrawMaintenance 0
scalar OsgEarthNet.uav[30] utilizationCountMissions 58
scalar OsgEarthNet.uav[30] utilizationCountManeuversMission 1066
scalar OsgEarthNet.uav[30] utilizationCountManeuversMaintenance 116
scalar OsgEarthNet.uav[30] utilizationCountChargeState 58
scalar OsgEarthNet.uav[30] utilizationCountOverdrawnAfterMission 0
scalar OsgEarthNet.uav[30] utilizationCountIdleState 30
scalar OsgEarthNet.uav[30] utilizationFail 0
scalar OsgEarthNet.uav[30] simulationTime 259200
scalar OsgEarthNet.uav[31] utilizationSecMission 28774.094966379
scalar OsgEarthNet.uav[31] utilizationSecMaintenance 19378.587951791
scalar OsgEarthNet.uav[31] utilizationSecCharge 187150
scalar OsgEarthNet.uav[31] utilizationSecIdle 23897.316081831
scalar OsgEarthNet.uav[31] utilizationEnergyMission 140232.74663925
scalar OsgEarthNet.uav[31] utilizationEnergyMaintenance 93198.123509485
scalar OsgEarthNet.uav[31] utilizationEnergyCharge 232916.58203125
scalar OsgEarthNet.uav[31] utilizationEnergyOverdrawMission 0
scalar OsgEarthNet.uav[31] utilizationEnergyOverdrawMaintenance 0
scalar OsgEarthNet.uav[31] utilizationCountMissions 58
scalar OsgEarthNet.uav[31] utilizationCountManeuversMission 925
scalar OsgEarthNet.uav[31] utilizationCountManeuversMaintenance 117
scalar OsgEarthNet.uav[31] utilizationCountChargeState 58
scalar OsgEarthNet.uav[31] utilizationCountOverdrawnAfterMission 0
scalar OsgEarthNet.uav[31] utilizationCountIdleState 58
scalar OsgEarthNet.uav[31] utilizationFail 0
scalar OsgEarthNet.uav[31] simulationTime 259200
scalar OsgEarthNet.uav[32] utilizationSecMission 38510.018947192
scalar OsgEarthNet.uav[32] utilizationSecMaintenance 17496.366415797
scalar OsgEarthNet.uav[32] utilizationSecCharge 195101.61063701
scalar OsgEarthNet.uav[32] utilizationSecIdle 8092.003
scalar OsgEarthNet.uav[32] utilizationEnergyMission 186479.32897568
scalar OsgEarthNet.uav[32] utilizationEnergyMaintenance 80247.537128449
scalar OsgEarthNet.uav[32] utilizationEnergyCharge 262196.47595215
scalar OsgEarthNet.uav[32] utilizationEnergyOverdrawMission 0
scalar OsgEarthNet.uav[32] utilizationEnergyOverdrawMaintenance 0
scalar OsgEarthNet.uav[32] utilizationCountMissions 58
scalar OsgEarthNet.uav[32] utilizationCountManeuversMission 1261
scalar OsgEarthNet.uav[32] utilizationCountManeuversMaintenance 116
scalar OsgEarthNet.uav[32] utilizationCountChargeState 58
scalar OsgEarthNet.uav[32] utilizationCountOverdrawnAfterMission 0
scalar OsgEarthNet.uav[32] utilizationCountIdleState 34
scalar OsgEarthNet.uav[32] utilizationFail 0
scalar OsgEarthNet.uav[32] simulationTime 259200
scalar OsgEarthNet.uav[33] utilizationSecMission 38842.698240375
scalar OsgEarthNet.uav[33] utilizationSecMaintenance 16920.972629021
scalar OsgEarthNet.uav[33] utilizationSecCharge 194905.37787494
scalar OsgEarthNet.uav[33] utilizationSecIdle 8530.9502556647
scalar OsgEarthNet.uav[33] utilizationEnergyMission 188115.53791809
scalar OsgEarthNet.uav[33] utilizationEnergyMaintenance 76747.845149994
scalar OsgEarthNet.uav[33] utilizationEnergyCharge 261633.74536133
scalar OsgEarthNet.uav[33] utilizationEnergyOverdrawMission 0
scalar OsgEarthNet.uav[33] utilizationEnergyOverdrawMaintenance 0
scalar OsgEarthNet.uav[33] utilizationCountMissions 57
scalar OsgEarthNet.uav[33] utilizationCountManeuversMission 1138
scalar OsgEarthNet.uav[33] utilizationCountManeuversMaintenance 114
scalar OsgEarthNet.uav[33] utilizationCountChargeState 57
scalar OsgEarthNet.uav[33] utilizationCountOverdrawnAfterMission 0
scalar OsgEarthNet.uav[33] utilizationCountIdleState 26
scalar OsgEarthNet.uav[33] utilizationFail 0
scalar OsgEarthNet.uav[33] simulationTime 259200
scalar OsgEarthNet.uav[34] utilizationSecMission 29191.147134875
scalar OsgEarthNet.uav[34] utilizationSecMaintenance 19825.134330937
scalar OsgEarthNet.uav[34] utilizationSecCharge 188881.71653419
scalar OsgEarthNet.uav[34] utilizationSecIdle 21302.001
scalar OsgEarthNet.uav[34] utilizationEnergyMission 143548.91001511
scalar OsgEarthNet.uav[34] utilizationEnergyMaintenance 94178.701206207
scalar OsgEarthNet.uav[34] utilizationEnergyCharge 236141.04272461
scalar OsgEarthNet.uav[34] utilizationEnergyOverdrawMission 0
scalar OsgEarthNet.uav[34] utilizationEnergyOverdrawMaintenance 0
scalar OsgEarthNet.uav[34] utilizationCountMissions 59
scalar OsgEarthNet.uav[34] utilizationCountManeuversMission 968
scalar OsgEarthNet.uav[34] utilizationCountManeuversMaintenance 118
scalar OsgEarthNet.uav[34] utilizationCountChargeState 59
scalar OsgEarthNet.uav[34] utilizationCountOverdrawnAfterMission 0
scalar OsgEarthNet.uav[34] utilizationCountIdleState 58
scalar OsgEarthNet.uav[34] utilizationFail 0
scalar OsgEarthNet.uav[34] simulationTime 259200
scalar OsgEarthNet.uav[35] utilizationSecMission 38943.372379053
scalar OsgEarthNet.uav[35] utilizationSecMaintenance 17121.737373008
scalar OsgEarthNet.uav[35] utilizationSecCharge 197612.88824794
scalar OsgEarthNet.uav[35] utilizationSecIdle 5522.001
scalar OsgEarthNet.uav[35] utilizationEnergyMission 188138.86737823
scalar OsgEarthNet.uav[35] utilizationEnergyMaintenance 80181.301200867
scalar OsgEarthNet.uav[35] utilizationEnergyCharge 267939.2734375
scalar OsgEarthNet.uav[35] utilizationEnergyOverdrawMission 0
scalar OsgEarthNet.uav[35] utilizationEnergyOverdrawMaintenance 0
scalar OsgEarthNet.uav[35] utilizationCountMissions 58
scalar OsgEarthNet.uav[35] utilizationCountManeuversMission 1159
scalar OsgEarthNet.uav[35] utilizationCountManeuversMaintenance 116
scalar OsgEarthNet.uav[35] utilizationCountChargeState 58
scalar OsgEarthNet.uav[35] utilizationCountOverdrawnAfterMission 0
scalar OsgEarthNet.uav[35] utilizationCountIdleState 27
scalar OsgEarthNet.uav[35] utilizationFail 0
scalar OsgEarthNet.uav[35] simulationTime 259200
scalar OsgEarthNet.uav[36] utilizationSecMission 34064.636548097
scalar OsgEarthNet.uav[36] utilizationSecMaintenance 21401.104793075
scalar OsgEarthNet.uav[36] utilizationSecCharge 195562.25065883
scalar OsgEarthNet.uav[36] utilizationSecIdle 8172.007
scalar OsgEarthNet.uav[36] utilizationEnergyMission 164903.79476929
scalar OsgEarthNet.uav[36] utilizationEnergyMaintenance 100671.30030823
scalar OsgEarthNet.uav[36] utilizationEnergyCharge 265699.26953125
scalar OsgEarthNet.uav[36] utilizationEnergyOverdrawMission 0
scalar OsgEarthNet.uav[36] utilizationEnergyOverdrawMaintenance 0
scalar OsgEarthNet.uav[36] utilizationCountMissions 59
scalar OsgEarthNet.uav[36] utilizationCountManeuversMission 1100
scalar OsgEarthNet.uav[36] utilizationCountManeuversMaintenance 118
scalar OsgEarthNet.uav[36] utilizationCountChargeState 59
scalar OsgEarthNet.uav[36] utilizationCountOverdrawnAfterMission 0
scalar OsgEarthNet.uav[36] utilizationCountIdleState 19
scalar OsgEarthNet.uav[36] utilizationFail 0
scalar OsgEarthNet.uav[36] simulationTime 259200
scalar OsgEarthNet.uav[37] utilizationSecMission 29549.04092376
scalar OsgEarthNet.uav[37] utilizationSecMaintenance 19251.063512508
scalar OsgEarthNet.uav[37] utilizationSecCharge 188607.89305701
scalar OsgEarthNet.uav[37] utilizationSecIdle 21792.001506722
scalar OsgEarthNet.uav[37] utilizationEnergyMission 143599.25827789
scalar OsgEarthNet.uav[37] utilizationEnergyMaintenance 91519.061183929
scalar OsgEarthNet.uav[37] utilizationEnergyCharge 233557.28955078
scalar OsgEarthNet.uav[37] utilizationEnergyOverdrawMission 0
scalar OsgEarthNet.uav[37] utilizationEnergyOverdrawMaintenance 0
scalar OsgEarthNet.uav[37] utilizationCountMissions 60
scalar OsgEarthNet.uav[37] utilizationCountManeuversMission 830
scalar OsgEarthNet.uav[37] utilizationCountManeuversMaintenance 120
scalar OsgEarthNet.uav[37] utilizationCountChargeState 60
scalar OsgEarthNet.uav[37] utilizationCountOverdrawnAfterMission 0
scalar OsgEarthNet.uav[37] utilizationCountIdleState 58
scalar OsgEarthNet.uav[37] utilizationFail 0
scalar OsgEarthNet.uav[37] simulationTime 259200
scalar OsgEarthNet.uav[38] utilizationSecMission 39280.62974981
scalar OsgEarthNet.uav[38] utilizationSecMaintenance 17095.752874221
scalar OsgEarthNet.uav[38] utilizationSecCharge 197141.61637597
scalar OsgEarthNet.uav[38] utilizationSecIdle 5682
scalar OsgEarthNet.uav[38] utilizationEnergyMission 189729.0214386
scalar OsgEarthNet.uav[38] utilizationEnergyMaintenance 77714.758857727
scalar OsgEarthNet.uav[38] utilizationEnergyCharge 264388.28399658
scalar OsgEarthNet.uav[38] utilizationEnergyOverdrawMission 0
scalar OsgEarthNet.uav[38] utilizationEnergyOverdrawMaintenance 0
scalar OsgEarthNet.uav[38] utilizationCountMissions 58
scalar OsgEarthNet.uav[38] utilizationCountManeuversMission 1144
scalar OsgEarthNet.uav[38] utilizationCountManeuversMaintenance 116
scalar OsgEarthNet.uav[38] utilizationCountChargeState 58
scalar OsgEarthNet.uav[38] utilizationCountOverdrawnAfterMission 0
scalar OsgEarthNet.uav[38] utilizationCountIdleState 32
scalar OsgEarthNet.uav[38] utilizationFail 0
scalar OsgEarthNet.uav[38] simulationTime 259200
scalar OsgEarthNet.uav[39] utilizationSecMission 33102.761090356
scalar OsgEarthNet.uav[39] utilizationSecMaintenance 21979.106699277
scalar OsgEarthNet.uav[39] utilizationSecCharge 194436.12221037
scalar OsgEarthNet.uav[39] utilizationSecIdle 9682.009
scalar OsgEarthNet.uav[39] utilizationEnergyMission 161367.52423096
scalar OsgEarthNet.uav[39] utilizationEnergyMaintenance 104772.66583633
scalar OsgEarthNet.uav[39] utilizationEnergyCharge 263952.55932617
scalar OsgEarthNet.uav[39] utilizationEnergyOverdrawMission 0
scalar OsgEarthNet.uav[39] utilizationEnergyOverdrawMaintenance 0
scalar OsgEarthNet.uav[39] utilizationCountMissions 59
scalar OsgEarthNet.uav[39] utilizationCountManeuversMission 1130
scalar OsgEarthNet.uav[39] utilizationCountManeuversMaintenance 118
scalar OsgEarthNet.uav[39] utilizationCountChargeState 59
scalar OsgEarthNet.uav[39] utilizationCountOverdrawnAfterMission 0
scalar OsgEarthNet.uav[39] utilizationCountIdleState 26
scalar OsgEarthNet.uav[39] utilizationFail 0
scalar OsgEarthNet.uav[39] simulationTime 259200
scalar OsgEarthNet.uav[40] utilizationSecMission 33753.644281687
scalar OsgEarthNet.uav[40] utilizationSecMaintenance 21953.871148713
scalar OsgEarthNet.uav[40] utilizationSecCharge 195750.4775696
scalar OsgEarthNet.uav[40] utilizationSecIdle 7742.006
scalar OsgEarthNet.uav[40] utilizationEnergyMission 163919.73019409
scalar OsgEarthNet.uav[40] utilizationEnergyMaintenance 104909.72247696
scalar OsgEarthNet.uav[40] utilizationEnergyCharge 267307.72509766
scalar OsgEarthNet.uav[40] utilizationEnergyOverdrawMission 0
scalar OsgEarthNet.uav[40] utilizationEnergyOverdrawMaintenance 0
scalar OsgEarthNet.uav[40] utilizationCountMissions 59
scalar OsgEarthNet.uav[40] utilizationCountManeuversMission 1132
scalar OsgEarthNet.uav[40] utilizationCountManeuversMaintenance 118
scalar OsgEarthNet.uav[40] utilizationCountChargeState 59
scalar OsgEarthNet.uav[40] utilizationCountOverdrawnAfterMission 0
scalar OsgEarthNet.uav[40] utilizationCountIdleState 22
scalar OsgEarthNet.uav[40] utilizationFail 0
scalar OsgEarthNet.uav[40] simulationTime 259200
scalar OsgEarthNet.uav[41] utilizationSecMission 29040.36736526
scalar OsgEarthNet.uav[41] utilizationSecMaintenance 19417.62763474
scalar OsgEarthNet.uav[41] utilizationSecCharge 186650
scalar OsgEarthNet.uav[41] utilizationSecIdle 24092.004
scalar OsgEarthNet.uav[41] utilizationEnergyMission 141380.98871513
scalar OsgEarthNet.uav[41] utilizationEnergyMaintenance 92092.845981598
scalar OsgEarthNet.uav[41] utilizationEnergyCharge 230216.65087891
scalar OsgEarthNet.uav[41] utilizationEnergyOverdrawMission 0
scalar OsgEarthNet.uav[41] utilizationEnergyOverdrawMaintenance 0
scalar OsgEarthNet.uav[41] utilizationCountMissions 59
scalar OsgEarthNet.uav[41] utilizationCountManeuversMission 894
scalar OsgEarthNet.uav[41] utilizationCountManeuversMaintenance 119
scalar OsgEarthNet.uav[41] utilizationCountChargeState 59
scalar OsgEarthNet.uav[41] utilizationCountOverdrawnAfterMission 0
scalar OsgEarthNet.uav[41] utilizationCountIdleState 60
scalar OsgEarthNet.uav[41] utilizationFail 0
scalar OsgEarthNet.uav[41] simulationTime 259200
scalar OsgEarthNet.uav[42] utilizationSecMission 40359.279967486
scalar OsgEarthNet.uav[42] utilizationSecMaintenance 15115.858755193
scalar OsgEarthNet.uav[42] utilizationSecCharge 195132.85827732
scalar OsgEarthNet.uav[42] utilizationSecIdle 8592.002
scalar OsgEarthNet.uav[42] utilizationEnergyMission 192501.82440948
scalar OsgEarthNet.uav[42] utilizationEnergyMaintenance 69623.011760712
scalar OsgEarthNet.uav[42] utilizationEnergyCharge 261875.8347168
scalar OsgEarthNet.uav[42] utilizationEnergyOverdrawMission 0
scalar OsgEarthNet.uav[42] utilizationEnergyOverdrawMaintenance 0
scalar OsgEarthNet.uav[42] utilizationCountMissions 57
scalar OsgEarthNet.uav[42] utilizationCountManeuversMission 1162
scalar OsgEarthNet.uav[42] utilizationCountManeuversMaintenance 114
scalar OsgEarthNet.uav[42] utilizationCountChargeState 57
scalar OsgEarthNet.uav[42] utilizationCountOverdrawnAfterMission 0
scalar OsgEarthNet.uav[42] utilizationCountIdleState 35
scalar OsgEarthNet.uav[42] utilizationFail 0
scalar OsgEarthNet.uav[42] simulationTime 259200
scalar OsgEarthNet.uav[43] utilizationSecMission 28266.404787796
scalar OsgEarthNet.uav[43] utilizationSecMaintenance 21093.286020112
scalar OsgEarthNet.uav[43] utilizationSecCharge 187838.30619209
scalar OsgEarthNet.uav[43] utilizationSecIdle 22002.002
scalar OsgEarthNet.uav[43] utilizationEnergyMission 137862.2110939
scalar OsgEarthNet.uav[43] utilizationEnergyMaintenance 99387.161056518
scalar OsgEarthNet.uav[43] utilizationEnergyCharge 235546.22729492
scalar OsgEarthNet.uav[43] utilizationEnergyOverdrawMission 0
scalar OsgEarthNet.uav[43] utilizationEnergyOverdrawMaintenance 0
scalar OsgEarthNet.uav[43] utilizationCountMissions 59
scalar OsgEarthNet.uav[43] utilizationCountManeuversMission 1007
scalar OsgEarthNet.uav[43] utilizationCountManeuversMaintenance 118
scalar OsgEarthNet.uav[43] utilizationCountChargeState 59
scalar OsgEarthNet.uav[43] utilizationCountOverdrawnAfterMission 0
scalar OsgEarthNet.uav[43] utilizationCountIdleState 53
scalar OsgEarthNet.uav[43] utilizationFail 0
scalar OsgEarthNet.uav[43] simulationTime 259200
scalar OsgEarthNet.uav[44] utilizationSecMission 39400.957655221
scalar OsgEarthNet.uav[44] utilizationSecMaintenance 17142.916542711
scalar OsgEarthNet.uav[44] utilizationSecCharge 195469.936673
scalar OsgEarthNet.uav[44] utilizationSecIdle 7186.1881290691
scalar OsgEarthNet.uav[44] utilizationEnergyMission 190785.16685867
scalar OsgEarthNet.uav[44] utilizationEnergyMaintenance 79885.696266174
scalar OsgEarthNet.uav[44] utilizationEnergyCharge 264421.70166016
scalar OsgEarthNet.uav[44] utilizationEnergyOverdrawMission 0
scalar OsgEarthNet.uav[44] utilizationEnergyOverdrawMaintenance 0
scalar OsgEarthNet.uav[44] utilizationCountMissions 58
scalar OsgEarthNet.uav[44] utilizationCountManeuversMission 1168
scalar OsgEarthNet.uav[44] utilizationCountManeuversMaintenance 116
scalar OsgEarthNet.uav[44] utilizationCountChargeState 58
scalar OsgEarthNet.uav[44] utilizationCountOverdrawnAfterMission 0
scalar OsgEarthNet.uav[44] utilizationCountIdleState 26
scalar OsgEarthNet.uav[44] utilizationFail 0
scalar OsgEarthNet.uav[44] simulationTime 259200
scalar OsgEarthNet.uav[45] utilizationSecMission 39284.239339476
scalar OsgEarthNet.uav[45] utilizationSecMaintenance 16619.583623547
scalar OsgEarthNet.uav[45] utilizationSecCharge 196799.47067443
scalar OsgEarthNet.uav[45] utilizationSecIdle 6496.705362542
scalar OsgEarthNet.uav[45] utilizationEnergyMission 188667.58678055
scalar OsgEarthNet.uav[45] utilizationEnergyMaintenance 75349.458293915
scalar OsgEarthNet.uav[45] utilizationEnergyCharge 264895.68115234
scalar OsgEarthNet.uav[45] utilizationEnergyOverdrawMission 0
scalar OsgEarthNet.uav[45] utilizationEnergyOverdrawMaintenance 0
scalar OsgEarthNet.uav[45] utilizationCountMissions 57
scalar OsgEarthNet.uav[45] utilizationCountManeuversMission 1144
scalar OsgEarthNet.uav[45] utilizationCountManeuversMaintenance 114
scalar OsgEarthNet.uav[45] utilizationCountChargeState 57
scalar OsgEarthNet.uav[45] utilizationCountOverdrawnAfterMission 0
scalar OsgEarthNet.uav[45] utilizationCountIdleState 30
scalar OsgEarthNet.uav[45] utilizationFail 0
scalar OsgEarthNet.uav[45] simulationTime 259200
scalar OsgEarthNet.uav[46] utilizationSecMission 34895.519739428
scalar OsgEarthNet.uav[46] utilizationSecMaintenance 21483.831681485
scalar OsgEarthNet.uav[46] utilizationSecCharge 197358.64757909
scalar OsgEarthNet.uav[46] utilizationSecIdle 5462
scalar OsgEarthNet.uav[46] utilizationEnergyMission 170370.18019867
scalar OsgEarthNet.uav[46] utilizationEnergyMaintenance 102562.51654816
scalar OsgEarthNet.uav[46] utilizationEnergyCharge 268808.75830078
scalar OsgEarthNet.uav[46] utilizationEnergyOverdrawMission 0
scalar OsgEarthNet.uav[46] utilizationEnergyOverdrawMaintenance 0
scalar OsgEarthNet.uav[46] utilizationCountMissions 60
scalar OsgEarthNet.uav[46] utilizationCountManeuversMission 1111
scalar OsgEarthNet.uav[46] utilizationCountManeuversMaintenance 120
scalar OsgEarthNet.uav[46] utilizationCountChargeState 60
scalar OsgEarthNet.uav[46] utilizationCountOverdrawnAfterMission 0
scalar OsgEarthNet.uav[46] utilizationCountIdleState 23
scalar OsgEarthNet.uav[46] utilizationFail 0
scalar OsgEarthNet.uav[46] simulationTime 259200
scalar OsgEarthNet.uav[47] utilizationSecMission 39457.345752178
scalar OsgEarthNet.uav[47] utilizationSecMaintenance 16517.339790706
scalar OsgEarthNet.uav[47] utilizationSecCharge 195389.87036842
scalar OsgEarthNet.uav[47] utilizationSecIdle 7835.443088691
scalar OsgEarthNet.uav[47] utilizationEnergyMission 187657.67526245
scalar OsgEarthNet.uav[47] utilizationEnergyMaintenance 75052.87587738
scalar OsgEarthNet.uav[47] utilizationEnergyCharge 263076.74731445
scalar OsgEarthNet.uav[47] utilizationEnergyOverdrawMission 0
scalar OsgEarthNet.uav[47] utilizationEnergyOverdrawMaintenance 0
scalar OsgEarthNet.uav[47] utilizationCountMissions 57
scalar OsgEarthNet.uav[47] utilizationCountManeuversMission 1072
scalar OsgEarthNet.uav[47] utilizationCountManeuversMaintenance 114
scalar OsgEarthNet.uav[47] utilizationCountChargeState 57
scalar OsgEarthNet.uav[47] utilizationCountOverdrawnAfterMission 0
scalar OsgEarthNet.uav[47] utilizationCountIdleState 28
scalar OsgEarthNet.uav[47] utilizationFail 0
scalar OsgEarthNet.uav[47] simulationTime 259200
scalar OsgEarthNet.uav[48] utilizationSecMission 39414.096435376
scalar OsgEarthNet.uav[48] utilizationSecMaintenance 17454.322851751
scalar OsgEarthNet.uav[48] utilizationSecCharge 197524.12944884
scalar OsgEarthNet.uav[48] utilizationSecIdle 4807.4502640309
scalar OsgEarthNet.uav[48] utilizationEnergyMission 190008.76387787
scalar OsgEarthNet.uav[48] utilizationEnergyMaintenance 80614.387115479
scalar OsgEarthNet.uav[48] utilizationEnergyCharge 266174.28140259
scalar OsgEarthNet.uav[48] utilizationEnergyOverdrawMission 0
scalar OsgEarthNet.uav[48] utilizationEnergyOverdrawMaintenance 0
scalar OsgEarthNet.uav[48] utilizationCountMissions 59
scalar OsgEarthNet.uav[48] utilizationCountManeuversMission 1200
scalar OsgEarthNet.uav[48] utilizationCountManeuversMaintenance 118
scalar OsgEarthNet.uav[48] utilizationCountChargeState 59
scalar OsgEarthNet.uav[48] utilizationCountOverdrawnAfterMission 0
scalar OsgEarthNet.uav[48] utilizationCountIdleState 21
scalar OsgEarthNet.uav[48] utilizationFail 0
scalar OsgEarthNet.uav[48] simulationTime 259200
scalar OsgEarthNet.uav[49] utilizationSecMission 33312.503051606
scalar OsgEarthNet.uav[49] utilizationSecMaintenance 22459.630425884
scalar OsgEarthNet.uav[49] utilizationSecCharge 197345.86452251
scalar OsgEarthNet.uav[49] utilizationSecIdle 6082.001
scalar OsgEarthNet.uav[49] utilizationEnergyMission 164313.47583771
scalar OsgEarthNet.uav[49] utilizationEnergyMaintenance 107595.61256409
scalar OsgEarthNet.uav[49] utilizationEnergyCharge 268440.63696289
scalar OsgEarthNet.uav[49] utilizationEnergyOverdrawMission 0
scalar OsgEarthNet.uav[49] utilizationEnergyOverdrawMaintenance 0
scalar OsgEarthNet.uav[49] utilizationCountMissions 60
scalar OsgEarthNet.uav[49] utilizationCountManeuversMission 1145
scalar OsgEarthNet.uav[49] utilizationCountManeuversMaintenance 120
scalar OsgEarthNet.uav[49] utilizationCountChargeState 60
scalar OsgEarthNet.uav[49] utilizationCountOverdrawnAfterMission 0
scalar OsgEarthNet.uav[49] utilizationCountIdleState 22
scalar OsgEarthNet.uav[49] utilizationFail 0
scalar OsgEarthNet.uav[49] simulationTime 259200
scalar OsgEarthNet.uav[50] utilizationSecMission 38905.554437491
scalar OsgEarthNet.uav[50] utilizationSecMaintenance 16453.251358064
scalar OsgEarthNet.uav[50] utilizationSecCharge 196240.24494878
scalar OsgEarthNet.uav[50] utilizationSecIdle 7600.9482556647
scalar OsgEarthNet.uav[50] utilizationEnergyMission 187252.97817993
scalar OsgEarthNet.uav[50] utilizationEnergyMaintenance 75575.255256653
scalar OsgEarthNet.uav[50] utilizationEnergyCharge 262313.33496094
scalar OsgEarthNet.uav[50] utilizationEnergyOverdrawMission 0
scalar OsgEarthNet.uav[50] utilizationEnergyOverdrawMaintenance 0
scalar OsgEarthNet.uav[50] utilizationCountMissions 57
scalar OsgEarthNet.uav[50] utilizationCountManeuversMission 1236
scalar OsgEarthNet.uav[50] utilizationCountManeuversMaintenance 114
scalar OsgEarthNet.uav[50] utilizationCountChargeState 57
scalar OsgEarthNet.uav[50] utilizationCountOverdrawnAfterMission 0
scalar OsgEarthNet.uav[50] utilizationCountIdleState 26
scalar OsgEarthNet.uav[50] utilizationFail 0
scalar OsgEarthNet.uav[50] simulationTime 259200
scalar OsgEarthNet.uav[51] utilizationSecMission 27933.253345991
scalar OsgEarthNet.uav[51] utilizationSecMaintenance 20023.132967802
scalar OsgEarthNet.uav[51] utilizationSecCharge 187250
scalar OsgEarthNet.uav[51] utilizationSecIdle 23993.612686207
scalar OsgEarthNet.uav[51] utilizationEnergyMission 138211.24686432
scalar OsgEarthNet.uav[51] utilizationEnergyMaintenance 95247.583152771
scalar OsgEarthNet.uav[51] utilizationEnergyCharge 234652.7722168
scalar OsgEarthNet.uav[51] utilizationEnergyOverdrawMission 0
scalar OsgEarthNet.uav[51] utilizationEnergyOverdrawMaintenance 0
scalar OsgEarthNet.uav[51] utilizationCountMissions 57
scalar OsgEarthNet.uav[51] utilizationCountManeuversMission 1061
scalar OsgEarthNet.uav[51] utilizationCountManeuversMaintenance 114
scalar OsgEarthNet.uav[51] utilizationCountChargeState 57
scalar OsgEarthNet.uav[51] utilizationCountOverdrawnAfterMission 0
scalar OsgEarthNet.uav[51] utilizationCountIdleState 58
scalar OsgEarthNet.uav[51] utilizationFail 0
scalar OsgEarthNet.uav[51] simulationTime 259200
scalar OsgEarthNet.uav[52] utilizationSecMission 39917.158314434
scalar OsgEarthNet.uav[52] utilizationSecMaintenance 16184.520565018
scalar OsgEarthNet.uav[52] utilizationSecCharge 197956.32012055
scalar OsgEarthNet.uav[52] utilizationSecIdle 5142
scalar OsgEarthNet.uav[52] utilizationEnergyMission 191131.17102133
scalar OsgEarthNet.uav[52] utilizationEnergyMaintenance 74048.063468933
scalar OsgEarthNet.uav[52] utilizationEnergyCharge 265763.56787109
scalar OsgEarthNet.uav[52] utilizationEnergyOverdrawMission 0
scalar OsgEarthNet.uav[52] utilizationEnergyOverdrawMaintenance 0
scalar OsgEarthNet.uav[52] utilizationCountMissions 58
scalar OsgEarthNet.uav[52] utilizationCountManeuversMission 1172
scalar OsgEarthNet.uav[52] utilizationCountManeuversMaintenance 115
scalar OsgEarthNet.uav[52] utilizationCountChargeState 58
scalar OsgEarthNet.uav[52] utilizationCountOverdrawnAfterMission 0
scalar OsgEarthNet.uav[52] utilizationCountIdleState 31
scalar OsgEarthNet.uav[52] utilizationFail 0
scalar OsgEarthNet.uav[52] simulationTime 259200
scalar OsgEarthNet.uav[53] utilizationSecMission 33291.877899025
scalar OsgEarthNet.uav[53] utilizationSecMaintenance 22801.243264567
scalar OsgEarthNet.uav[53] utilizationSecCharge 196144.87483641
scalar OsgEarthNet.uav[53] utilizationSecIdle 6962.003
scalar OsgEarthNet.uav[53] utilizationEnergyMission 163168.9964447
scalar OsgEarthNet.uav[53] utilizationEnergyMaintenance 108380.35639954
scalar OsgEarthNet.uav[53] utilizationEnergyCharge 267058.07952881
scalar OsgEarthNet.uav[53] utilizationEnergyOverdrawMission 0
scalar OsgEarthNet.uav[53] utilizationEnergyOverdrawMaintenance 0
scalar OsgEarthNet.uav[53] utilizationCountMissions 60
scalar OsgEarthNet.uav[53] utilizationCountManeuversMission 1170
scalar OsgEarthNet.uav[53] utilizationCountManeuversMaintenance 120
scalar OsgEarthNet.uav[53] utilizationCountChargeState 60
scalar OsgEarthNet.uav[53] utilizationCountOverdrawnAfterMission 0
scalar OsgEarthNet.uav[53] utilizationCountIdleState 22
scalar OsgEarthNet.uav[53] utilizationFail 0
scalar OsgEarthNet.uav[53] simulationTime 259200
scalar OsgEarthNet.uav[54] utilizationSecMission 28024.549401496
scalar OsgEarthNet.uav[54] utilizationSecMaintenance 19316.75667986
scalar OsgEarthNet.uav[54] utilizationSecCharge 184880
scalar OsgEarthNet.uav[54] utilizationSecIdle 26978.692918644
scalar OsgEarthNet.uav[54] utilizationEnergyMission 136510.49658966
scalar OsgEarthNet.uav[54] utilizationEnergyMaintenance 90557.329734802
scalar OsgEarthNet.uav[54] utilizationEnergyCharge 228878.45458984
scalar OsgEarthNet.uav[54] utilizationEnergyOverdrawMission 0
scalar OsgEarthNet.uav[54] utilizationEnergyOverdrawMaintenance 0
scalar OsgEarthNet.uav[54] utilizationCountMissions 58
scalar OsgEarthNet.uav[54] utilizationCountManeuversMission 902
scalar OsgEarthNet.uav[54] utilizationCountManeuversMaintenance 116
scalar OsgEarthNet.uav[54] utilizationCountChargeState 58
scalar OsgEarthNet.uav[54] utilizationCountOverdrawnAfterMission 0
scalar OsgEarthNet.uav[54] utilizationCountIdleState 59
scalar OsgEarthNet.uav[54] utilizationFail 0
scalar OsgEarthNet.uav[54] simulationTime 259200
scalar OsgEarthNet.uav[55] utilizationSecMission 39284.289472502
scalar OsgEarthNet.uav[55] utilizationSecMaintenance 16954.060478268
scalar OsgEarthNet.uav[55] utilizationSecCharge 197542.47393882
scalar OsgEarthNet.uav[55] utilizationSecIdle 5419.1751104107
scalar OsgEarthNet.uav[55] utilizationEnergyMission 189644.3499527
scalar OsgEarthNet.uav[55] utilizationEnergyMaintenance 77192.658332825
scalar OsgEarthNet.uav[55] utilizationEnergyCharge 266067.22363281
scalar OsgEarthNet.uav[55] utilizationEnergyOverdrawMission 0
scalar OsgEarthNet.uav[55] utilizationEnergyOverdrawMaintenance 0
scalar OsgEarthNet.uav[55] utilizationCountMissions 58
scalar OsgEarthNet.uav[55] utilizationCountManeuversMission 1122
scalar OsgEarthNet.uav[55] utilizationCountManeuversMaintenance 116
scalar OsgEarthNet.uav[55] utilizationCountChargeState 58
scalar OsgEarthNet.uav[55] utilizationCountOverdrawnAfterMission 0
scalar OsgEarthNet.uav[55] utilizationCountIdleState 29
scalar OsgEarthNet.uav[55] utilizationFail 0
scalar OsgEarthNet.uav[55] simulationTime 259200
scalar OsgEarthNet.uav[56] utilizationSecMission 35573.857807648
scalar OsgEarthNet.uav[56] utilizationSecMaintenance 20234.141192352
scalar OsgEarthNet.uav[56] utilizationSecCharge 195970
scalar OsgEarthNet.uav[56] utilizationSecIdle 7422
scalar OsgEarthNet.uav[56] utilizationEnergyMission 170087.43875885
scalar OsgEarthNet.uav[56] utilizationEnergyMaintenance 95936.064401097
scalar OsgEarthNet.uav[56] utilizationEnergyCharge 265070.33837891
scalar OsgEarthNet.uav[56] utilizationEnergyOverdrawMission 0
scalar OsgEarthNet.uav[56] utilizationEnergyOverdrawMaintenance 0
scalar OsgEarthNet.uav[56] utilizationCountMissions 60
scalar OsgEarthNet.uav[56] utilizationCountManeuversMission 1073
scalar OsgEarthNet.uav[56] utilizationCountManeuversMaintenance 119
scalar OsgEarthNet.uav[56] utilizationCountChargeState 59
scalar OsgEarthNet.uav[56] utilizationCountOverdrawnAfterMission 0
scalar OsgEarthNet.uav[56] utilizationCountIdleState 28
scalar OsgEarthNet.uav[56] utilizationFail 0
scalar OsgEarthNet.uav[56] simulationTime 259200
scalar OsgEarthNet.uav[57] utilizationSecMission 28606.639551588
scalar OsgEarthNet.uav[57] utilizationSecMaintenance 20259.396492278
scalar OsgEarthNet.uav[57] utilizationSecCharge 187761.96295613
scalar OsgEarthNet.uav[57] utilizationSecIdle 22572
scalar OsgEarthNet.uav[57] utilizationEnergyMission 141371.1407547
scalar OsgEarthNet.uav[57] utilizationEnergyMaintenance 95893.510536194
scalar OsgEarthNet.uav[57] utilizationEnergyCharge 235686.85400391
scalar OsgEarthNet.uav[57] utilizationEnergyOverdrawMission 0
scalar OsgEarthNet.uav[57] utilizationEnergyOverdrawMaintenance 0
scalar OsgEarthNet.uav[57] utilizationCountMissions 58
scalar OsgEarthNet.uav[57] utilizationCountManeuversMission 1084
scalar OsgEarthNet.uav[57] utilizationCountManeuversMaintenance 115
scalar OsgEarthNet.uav[57] utilizationCountChargeState 58
scalar OsgEarthNet.uav[57] utilizationCountOverdrawnAfterMission 0
scalar OsgEarthNet.uav[57] utilizationCountIdleState 58
scalar OsgEarthNet.uav[57] utilizationFail 0
scalar OsgEarthNet.uav[57] simulationTime 259200
scalar OsgEarthNet.uav[58] utilizationSecMission 39049.246624978
scalar OsgEarthNet.uav[58] utilizationSecMaintenance 17013.89067963
scalar OsgEarthNet.uav[58] utilizationSecCharge 197214.15902767
scalar OsgEarthNet.uav[58] utilizationSecIdle 5922.7026677176
scalar OsgEarthNet.uav[58] utilizationEnergyMission 190942.08748627
scalar OsgEarthNet.uav[58] utilizationEnergyMaintenance 77724.600379944
scalar OsgEarthNet.uav[58] utilizationEnergyCharge 264197.30822754
scalar OsgEarthNet.uav[58] utilizationEnergyOverdrawMission 0
scalar OsgEarthNet.uav[58] utilizationEnergyOverdrawMaintenance 0
scalar OsgEarthNet.uav[58] utilizationCountMissions 58
scalar OsgEarthNet.uav[58] utilizationCountManeuversMission 1220
scalar OsgEarthNet.uav[58] utilizationCountManeuversMaintenance 116
scalar OsgEarthNet.uav[58] utilizationCountChargeState 58
scalar OsgEarthNet.uav[58] utilizationCountOverdrawnAfterMission 0
scalar OsgEarthNet.uav[58] utilizationCountIdleState 27
scalar OsgEarthNet.uav[58] utilizationFail 0
scalar OsgEarthNet.uav[58] simulationTime 259200
scalar OsgEarthNet.uav[59] utilizationSecMission 29031.224152792
scalar OsgEarthNet.uav[59] utilizationSecMaintenance 19718.343089908
scalar OsgEarthNet.uav[59] utilizationSecCharge 185616.41348757
scalar OsgEarthNet.uav[59] utilizationSecIdle 24834.018269728
scalar OsgEarthNet.uav[59] utilizationEnergyMission 143873.72163773
scalar OsgEarthNet.uav[59] utilizationEnergyMaintenance 93673.502941132
scalar OsgEarthNet.uav[59] utilizationEnergyCharge 234525.42358398
scalar OsgEarthNet.uav[59] utilizationEnergyOverdrawMission 0
scalar OsgEarthNet.uav[59] utilizationEnergyOverdrawMaintenance 0
scalar OsgEarthNet.uav[59] utilizationCountMissions 56
scalar OsgEarthNet.uav[59] utilizationCountManeuversMission 1062
scalar OsgEarthNet.uav[59] utilizationCountManeuversMaintenance 112
scalar OsgEarthNet.uav[59] utilizationCountChargeState 56
scalar OsgEarthNet.uav[59] utilizationCountOverdrawnAfterMission 0
scalar OsgEarthNet.uav[59] utilizationCountIdleState 56
scalar OsgEarthNet.uav[59] utilizationFail 0
scalar OsgEarthNet.uav[59] simulationTime 259200
scalar OsgEarthNet.uav[60] utilizationSecMission 38444.740846807
scalar OsgEarthNet.uav[60] utilizationSecMaintenance 16991.459135558
scalar OsgEarthNet.uav[60] utilizationSecCharge 196561.65427769
scalar OsgEarthNet.uav[60] utilizationSecIdle 7202.1447399488
scalar OsgEarthNet.uav[60] utilizationEnergyMission 186291.33391953
scalar OsgEarthNet.uav[60] utilizationEnergyMaintenance 78623.013690949
scalar OsgEarthNet.uav[60] utilizationEnergyCharge 264680.38134766
scalar OsgEarthNet.uav[60] utilizationEnergyOverdrawMission 0
scalar OsgEarthNet.uav[60] utilizationEnergyOverdrawMaintenance 0
scalar OsgEarthNet.uav[60] utilizationCountMissions 57
scalar OsgEarthNet.uav[60] utilizationCountManeuversMission 1099
scalar OsgEarthNet.uav[60] utilizationCountManeuversMaintenance 114
scalar OsgEarthNet.uav[60] utilizationCountChargeState 57
scalar OsgEarthNet.uav[60] utilizationCountOverdrawnAfterMission 0
scalar OsgEarthNet.uav[60] utilizationCountIdleState 27
scalar OsgEarthNet.uav[60] utilizationFail 0
scalar OsgEarthNet.uav[60] simulationTime 259200
scalar OsgEarthNet.uav[61] utilizationSecMission 28724.054130987
scalar OsgEarthNet.uav[61] utilizationSecMaintenance 19801.332979497
scalar OsgEarthNet.uav[61] utilizationSecCharge 187330
scalar OsgEarthNet.uav[61] utilizationSecIdle 23344.611889516
scalar OsgEarthNet.uav[61] utilizationEnergyMission 137845.87669754
scalar OsgEarthNet.uav[61] utilizationEnergyMaintenance 94052.755644312
scalar OsgEarthNet.uav[61] utilizationEnergyCharge 229448.7565918
scalar OsgEarthNet.uav[61] utilizationEnergyOverdrawMission 0
scalar OsgEarthNet.uav[61] utilizationEnergyOverdrawMaintenance 0
scalar OsgEarthNet.uav[61] utilizationCountMissions 61
scalar OsgEarthNet.uav[61] utilizationCountManeuversMission 862
scalar OsgEarthNet.uav[61] utilizationCountManeuversMaintenance 122
scalar OsgEarthNet.uav[61] utilizationCountChargeState 60
scalar OsgEarthNet.uav[61] utilizationCountOverdrawnAfterMission 0
scalar OsgEarthNet.uav[61] utilizationCountIdleState 61
scalar OsgEarthNet.uav[61] utilizationFail 0
scalar OsgEarthNet.uav[61] simulationTime 259200
scalar OsgEarthNet.uav[62] utilizationSecMission 39215.251205283
scalar OsgEarthNet.uav[62] utilizationSecMaintenance 16026.759443529
scalar OsgEarthNet.uav[62] utilizationSecCharge 196885.98535119
scalar OsgEarthNet.uav[62] utilizationSecIdle 7072.003
scalar OsgEarthNet.uav[62] utilizationEnergyMission 189964.41931152
scalar OsgEarthNet.uav[62] utilizationEnergyMaintenance 74788.116798401
scalar OsgEarthNet.uav[62] utilizationEnergyCharge 263166.42041016
scalar OsgEarthNet.uav[62] utilizationEnergyOverdrawMission 0
scalar OsgEarthNet.uav[62] utilizationEnergyOverdrawMaintenance 0
scalar OsgEarthNet.uav[62] utilizationCountMissions 57
scalar OsgEarthNet.uav[62] utilizationCountManeuversMission 1168
scalar OsgEarthNet.uav[62] utilizationCountManeuversMaintenance 114
scalar OsgEarthNet.uav[62] utilizationCountChargeState 57
scalar OsgEarthNet.uav[62] utilizationCountOverdrawnAfterMission 0
scalar OsgEarthNet.uav[62] utilizationCountIdleState 37
scalar OsgEarthNet.uav[62] utilizationFail 0
scalar OsgEarthNet.uav[62] simulationTime 259200
scalar OsgEarthNet.uav[63] utilizationSecMission 34113.753356766
scalar OsgEarthNet.uav[63] utilizationSecMaintenance 21776.40474852
scalar OsgEarthNet.uav[63] utilizationSecCharge 194837.83689471
scalar OsgEarthNet.uav[63] utilizationSecIdle 8472.004
scalar OsgEarthNet.uav[63] utilizationEnergyMission 165336.71110916
scalar OsgEarthNet.uav[63] utilizationEnergyMaintenance 103923.13017273
scalar OsgEarthNet.uav[63] utilizationEnergyCharge 266442.69158936
scalar OsgEarthNet.uav[63] utilizationEnergyOverdrawMission 0
scalar OsgEarthNet.uav[63] utilizationEnergyOverdrawMaintenance 0
scalar OsgEarthNet.uav[63] utilizationCountMissions 60
scalar OsgEarthNet.uav[63] utilizationCountManeuversMission 1133
scalar OsgEarthNet.uav[63] utilizationCountManeuversMaintenance 120
scalar OsgEarthNet.uav[63] utilizationCountChargeState 60
scalar OsgEarthNet.uav[63] utilizationCountOverdrawnAfterMission 0
scalar OsgEarthNet.uav[63] utilizationCountIdleState 24
scalar OsgEarthNet.uav[63] utilizationFail 0
scalar OsgEarthNet.uav[63] simulationTime 259200
scalar OsgEarthNet.uav[64] utilizationSecMission 38850.241818606
scalar OsgEarthNet.uav[64] utilizationSecMaintenance 16674.313092703
scalar OsgEarthNet.uav[64] utilizationSecCharge 195300
scalar OsgEarthNet.uav[64] utilizationSecIdle 8375.444088691
scalar OsgEarthNet.uav[64] utilizationEnergyMission 186917.59634589
scalar OsgEarthNet.uav[64] utilizationEnergyMaintenance 74833.442455292
scalar OsgEarthNet.uav[64] utilizationEnergyCharge 261388.35205078
scalar OsgEarthNet.uav[64] utilizationEnergyOverdrawMission 0
scalar OsgEarthNet.uav[64] utilizationEnergyOverdrawMaintenance 0
scalar OsgEarthNet.uav[64] utilizationCountMissions 57
scalar OsgEarthNet.uav[64] utilizationCountManeuversMission 1124
scalar OsgEarthNet.uav[64] utilizationCountManeuversMaintenance 115
scalar OsgEarthNet.uav[64] utilizationCountChargeState 57
scalar OsgEarthNet.uav[64] utilizationCountOverdrawnAfterMission 0
scalar OsgEarthNet.uav[64] utilizationCountIdleState 34
scalar OsgEarthNet.uav[64] utilizationFail 0
scalar OsgEarthNet.uav[64] simulationTime 259200
scalar OsgEarthNet.uav[65] utilizationSecMission 39857.536829611
scalar OsgEarthNet.uav[65] utilizationSecMaintenance 16043.967329009
scalar OsgEarthNet.uav[65] utilizationSecCharge 195448.86376072
scalar OsgEarthNet.uav[65] utilizationSecIdle 7849.6310806652
scalar OsgEarthNet.uav[65] utilizationEnergyMission 189976.80466461
scalar OsgEarthNet.uav[65] utilizationEnergyMaintenance 73229.84519577
scalar OsgEarthNet.uav[65] utilizationEnergyCharge 264135.20019531
scalar OsgEarthNet.uav[65] utilizationEnergyOverdrawMission 0
scalar OsgEarthNet.uav[65] utilizationEnergyOverdrawMaintenance 0
scalar OsgEarthNet.uav[65] utilizationCountMissions 57
scalar OsgEarthNet.uav[65] utilizationCountManeuversMission 1080
scalar OsgEarthNet.uav[65] utilizationCountManeuversMaintenance 114
scalar OsgEarthNet.uav[65] utilizationCountChargeState 57
scalar OsgEarthNet.uav[65] utilizationCountOverdrawnAfterMission 0
scalar OsgEarthNet.uav[65] utilizationCountIdleState 31
scalar OsgEarthNet.uav[65] utilizationFail 0
scalar OsgEarthNet.uav[65] simulationTime 259200
scalar OsgEarthNet.cs[0] usedPower 4018683.239764
scalar OsgEarthNet.cs[0] chargedPower 4018683.239764
scalar OsgEarthNet.cs[0] chargedMobileNodes 359
scalar OsgEarthNet.cs[0] reservations 897
scalar OsgEarthNet.cs[1] usedPower 4149912.9207642
scalar OsgEarthNet.cs[1] chargedPower 4149912.9207642
scalar OsgEarthNet.cs[1] chargedMobileNodes 1021
scalar OsgEarthNet.cs[1] reservations 1048
scalar OsgEarthNet.cs[2] usedPower 8681794.107758
scalar OsgEarthNet.cs[2] chargedPower 8681794.107758
scalar OsgEarthNet.cs[2] chargedMobileNodes 967
scalar OsgEarthNet.cs[2] reservations 1892

