version 2
run Szenario_Hotel_Gabelbach-527-20180719-22:42:22-17564
attr configname Szenario_Hotel_Gabelbach
attr datetime 20180719-22:42:22
attr experiment Szenario_Hotel_Gabelbach
attr inifile omnetpp.ini
attr iterationvars "$replM=2, $biWeight=0.35, $replSearchM=1, $numUAVs=98"
attr iterationvarsf replM=2,biWeight=0.35,replSearchM=1,numUAVs=98-
attr measurement "$replM=2, $biWeight=0.35, $replSearchM=1, $numUAVs=98"
attr network OsgEarthNet
attr processid 17564
attr repetition 23
attr replication #23
attr resultdir results
attr runnumber 527
attr seedset 527
itervar biWeight 0.35
itervar numUAVs 98
itervar replM 2
itervar replSearchM 1
param *.osgEarthScene.scene "\"Szenario_Hotel_Gabelbach.earth\""
param *.playgroundLatitude 50.6830269
param *.playgroundLongitude 10.8538055
param *.playgroundWidth 3500m
param *.playgroundHeight 3500m
param *.cs[0].posX 3537m
param *.cs[0].posY 965m
param *.cs[0].posZ 538m
param *.cs[1].posX 312m
param *.cs[1].posY 1262m
param *.cs[1].posZ 539m
param *.cs[2].posX 2185m
param *.cs[2].posY 3026m
param *.cs[2].posZ 777m
param *.cs[3].posX 10m
param *.cs[3].posY 2200m
param *.cs[3].posZ 560m
param *.cs[4].posX 750m
param *.cs[4].posY 200m
param *.cs[4].posZ 540m
param *.cs[5].posX 2450m
param *.cs[5].posY 180m
param *.cs[5].posZ 524m
param *.cs[6].posX 3140m
param *.cs[6].posY 1790m
param *.cs[6].posZ 606m
param *.numCSs 3
param *.uav[*].replacementMethod 2
param *.uav[*].weightedSumWeight 0.35
param *.missionControl.replacementSearchMethod 1
param *.numUAVs 98
param *.*.timeStep 10s
param *.uav[*].commandPreviewCommandCount 20
param *.missionControl.missionFiles "\"missions\\\\Szenario_WB_Hotel_Gabelbach_Mission_Hotel.waypoints,missions\\\\Szenario_WB_Hotel_Gabelbach_Mission_Kickelhahn.waypoints,missions\\\\Szenario_WB_Hotel_Gabelbach_Mission_Ilmenau_Sportplatz.waypoints,missions\\\\Szenario_WB_Hotel_Gabelbach_Mission_Manebach_Mitte.waypoints,missions\\\\Szenario_WB_Hotel_Gabelbach_Mission_Manebach_Sued.waypoints,missions\\\\Szenario_WB_Hotel_Gabelbach_Hover_HoheSchlaufe.waypoints,missions\\\\Szenario_WB_Hotel_Gabelbach_Hover_Kickelhahn.waypoints,missions\\\\Szenario_WB_Hotel_Gabelbach_Hover_Gabelbachskopf.waypoints,missions\\\\Szenario_WB_Hotel_Gabelbach_Hover_Dachskopf.waypoints\""
param *.uav[0].startX 3537m
param *.uav[0].startY 965m
param *.uav[0].startZ 539m
param *.uav[1].startX 312m
param *.uav[1].startY 1262m
param *.uav[1].startZ 540m
param *.uav[2].startX 2185m
param *.uav[2].startY 3026m
param *.uav[2].startZ 778m
param *.uav[3].startX 3537m
param *.uav[3].startY 965m
param *.uav[3].startZ 539m
param *.uav[4].startX 312m
param *.uav[4].startY 1262m
param *.uav[4].startZ 540m
param *.uav[5].startX 2185m
param *.uav[5].startY 3026m
param *.uav[5].startZ 778m
param *.uav[6].startX 3537m
param *.uav[6].startY 965m
param *.uav[6].startZ 539m
param *.uav[7].startX 312m
param *.uav[7].startY 1262m
param *.uav[7].startZ 540m
param *.uav[8].startX 2185m
param *.uav[8].startY 3026m
param *.uav[8].startZ 778m
param *.uav[9].startX 3537m
param *.uav[9].startY 965m
param *.uav[9].startZ 539m
param *.uav[10].startX 3537m
param *.uav[10].startY 965m
param *.uav[10].startZ 539m
param *.uav[11].startX 312m
param *.uav[11].startY 1262m
param *.uav[11].startZ 540m
param *.uav[12].startX 2185m
param *.uav[12].startY 3026m
param *.uav[12].startZ 778m
param *.uav[13].startX 3537m
param *.uav[13].startY 965m
param *.uav[13].startZ 539m
param *.uav[14].startX 312m
param *.uav[14].startY 1262m
param *.uav[14].startZ 540m
param *.uav[15].startX 2185m
param *.uav[15].startY 3026m
param *.uav[15].startZ 778m
param *.uav[16].startX 3537m
param *.uav[16].startY 965m
param *.uav[16].startZ 539m
param *.uav[17].startX 312m
param *.uav[17].startY 1262m
param *.uav[17].startZ 540m
param *.uav[18].startX 2185m
param *.uav[18].startY 3026m
param *.uav[18].startZ 778m
param *.uav[19].startX 3537m
param *.uav[19].startY 965m
param *.uav[19].startZ 539m
param *.uav[20].startX 3537m
param *.uav[20].startY 965m
param *.uav[20].startZ 539m
param *.uav[21].startX 312m
param *.uav[21].startY 1262m
param *.uav[21].startZ 540m
param *.uav[22].startX 2185m
param *.uav[22].startY 3026m
param *.uav[22].startZ 778m
param *.uav[23].startX 3537m
param *.uav[23].startY 965m
param *.uav[23].startZ 539m
param *.uav[24].startX 312m
param *.uav[24].startY 1262m
param *.uav[24].startZ 540m
param *.uav[25].startX 2185m
param *.uav[25].startY 3026m
param *.uav[25].startZ 778m
param *.uav[26].startX 3537m
param *.uav[26].startY 965m
param *.uav[26].startZ 539m
param *.uav[27].startX 312m
param *.uav[27].startY 1262m
param *.uav[27].startZ 540m
param *.uav[28].startX 2185m
param *.uav[28].startY 3026m
param *.uav[28].startZ 778m
param *.uav[29].startX 3537m
param *.uav[29].startY 965m
param *.uav[29].startZ 539m
param *.uav[30].startX 3537m
param *.uav[30].startY 965m
param *.uav[30].startZ 539m
param *.uav[31].startX 312m
param *.uav[31].startY 1262m
param *.uav[31].startZ 540m
param *.uav[32].startX 2185m
param *.uav[32].startY 3026m
param *.uav[32].startZ 778m
param *.uav[33].startX 3537m
param *.uav[33].startY 965m
param *.uav[33].startZ 539m
param *.uav[34].startX 312m
param *.uav[34].startY 1262m
param *.uav[34].startZ 540m
param *.uav[35].startX 2185m
param *.uav[35].startY 3026m
param *.uav[35].startZ 778m
param *.uav[36].startX 3537m
param *.uav[36].startY 965m
param *.uav[36].startZ 539m
param *.uav[37].startX 312m
param *.uav[37].startY 1262m
param *.uav[37].startZ 540m
param *.uav[38].startX 2185m
param *.uav[38].startY 3026m
param *.uav[38].startZ 778m
param *.uav[39].startX 3537m
param *.uav[39].startY 965m
param *.uav[39].startZ 539m
param *.uav[40].startX 3537m
param *.uav[40].startY 965m
param *.uav[40].startZ 539m
param *.uav[41].startX 312m
param *.uav[41].startY 1262m
param *.uav[41].startZ 540m
param *.uav[42].startX 2185m
param *.uav[42].startY 3026m
param *.uav[42].startZ 778m
param *.uav[43].startX 3537m
param *.uav[43].startY 965m
param *.uav[43].startZ 539m
param *.uav[44].startX 312m
param *.uav[44].startY 1262m
param *.uav[44].startZ 540m
param *.uav[45].startX 2185m
param *.uav[45].startY 3026m
param *.uav[45].startZ 778m
param *.uav[46].startX 3537m
param *.uav[46].startY 965m
param *.uav[46].startZ 539m
param *.uav[47].startX 312m
param *.uav[47].startY 1262m
param *.uav[47].startZ 540m
param *.uav[48].startX 2185m
param *.uav[48].startY 3026m
param *.uav[48].startZ 778m
param *.uav[49].startX 3537m
param *.uav[49].startY 965m
param *.uav[49].startZ 539m
param *.uav[50].startX 3537m
param *.uav[50].startY 965m
param *.uav[50].startZ 539m
param *.uav[51].startX 312m
param *.uav[51].startY 1262m
param *.uav[51].startZ 540m
param *.uav[52].startX 2185m
param *.uav[52].startY 3026m
param *.uav[52].startZ 778m
param *.uav[53].startX 3537m
param *.uav[53].startY 965m
param *.uav[53].startZ 539m
param *.uav[54].startX 312m
param *.uav[54].startY 1262m
param *.uav[54].startZ 540m
param *.uav[55].startX 2185m
param *.uav[55].startY 3026m
param *.uav[55].startZ 778m
param *.uav[56].startX 3537m
param *.uav[56].startY 965m
param *.uav[56].startZ 539m
param *.uav[57].startX 312m
param *.uav[57].startY 1262m
param *.uav[57].startZ 540m
param *.uav[58].startX 2185m
param *.uav[58].startY 3026m
param *.uav[58].startZ 778m
param *.uav[59].startX 3537m
param *.uav[59].startY 965m
param *.uav[59].startZ 539m
param *.uav[60].startX 3537m
param *.uav[60].startY 965m
param *.uav[60].startZ 539m
param *.uav[61].startX 312m
param *.uav[61].startY 1262m
param *.uav[61].startZ 540m
param *.uav[62].startX 2185m
param *.uav[62].startY 3026m
param *.uav[62].startZ 778m
param *.uav[63].startX 3537m
param *.uav[63].startY 965m
param *.uav[63].startZ 539m
param *.uav[64].startX 312m
param *.uav[64].startY 1262m
param *.uav[64].startZ 540m
param *.uav[65].startX 2185m
param *.uav[65].startY 3026m
param *.uav[65].startZ 778m
param *.uav[66].startX 3537m
param *.uav[66].startY 965m
param *.uav[66].startZ 539m
param *.uav[67].startX 312m
param *.uav[67].startY 1262m
param *.uav[67].startZ 540m
param *.uav[68].startX 2185m
param *.uav[68].startY 3026m
param *.uav[68].startZ 778m
param *.uav[69].startX 3537m
param *.uav[69].startY 965m
param *.uav[69].startZ 539m
param *.uav[70].startX 3537m
param *.uav[70].startY 965m
param *.uav[70].startZ 539m
param *.uav[71].startX 312m
param *.uav[71].startY 1262m
param *.uav[71].startZ 540m
param *.uav[72].startX 2185m
param *.uav[72].startY 3026m
param *.uav[72].startZ 778m
param *.uav[73].startX 3537m
param *.uav[73].startY 965m
param *.uav[73].startZ 539m
param *.uav[74].startX 312m
param *.uav[74].startY 1262m
param *.uav[74].startZ 540m
param *.uav[75].startX 2185m
param *.uav[75].startY 3026m
param *.uav[75].startZ 778m
param *.uav[76].startX 3537m
param *.uav[76].startY 965m
param *.uav[76].startZ 539m
param *.uav[77].startX 312m
param *.uav[77].startY 1262m
param *.uav[77].startZ 540m
param *.uav[78].startX 2185m
param *.uav[78].startY 3026m
param *.uav[78].startZ 778m
param *.uav[79].startX 3537m
param *.uav[79].startY 965m
param *.uav[79].startZ 539m
param *.uav[80].startX 3537m
param *.uav[80].startY 965m
param *.uav[80].startZ 539m
param *.uav[81].startX 312m
param *.uav[81].startY 1262m
param *.uav[81].startZ 540m
param *.uav[82].startX 2185m
param *.uav[82].startY 3026m
param *.uav[82].startZ 778m
param *.uav[83].startX 3537m
param *.uav[83].startY 965m
param *.uav[83].startZ 539m
param *.uav[84].startX 312m
param *.uav[84].startY 1262m
param *.uav[84].startZ 540m
param *.uav[85].startX 2185m
param *.uav[85].startY 3026m
param *.uav[85].startZ 778m
param *.uav[86].startX 3537m
param *.uav[86].startY 965m
param *.uav[86].startZ 539m
param *.uav[87].startX 312m
param *.uav[87].startY 1262m
param *.uav[87].startZ 540m
param *.uav[88].startX 2185m
param *.uav[88].startY 3026m
param *.uav[88].startZ 778m
param *.uav[89].startX 3537m
param *.uav[89].startY 965m
param *.uav[89].startZ 539m
param *.uav[90].startX 3537m
param *.uav[90].startY 965m
param *.uav[90].startZ 539m
param *.uav[91].startX 312m
param *.uav[91].startY 1262m
param *.uav[91].startZ 540m
param *.uav[92].startX 2185m
param *.uav[92].startY 3026m
param *.uav[92].startZ 778m
param *.uav[93].startX 3537m
param *.uav[93].startY 965m
param *.uav[93].startZ 539m
param *.uav[94].startX 312m
param *.uav[94].startY 1262m
param *.uav[94].startZ 540m
param *.uav[95].startX 2185m
param *.uav[95].startY 3026m
param *.uav[95].startZ 778m
param *.uav[96].startX 3537m
param *.uav[96].startY 965m
param *.uav[96].startZ 539m
param *.uav[97].startX 312m
param *.uav[97].startY 1262m
param *.uav[97].startZ 540m
param *.uav[98].startX 2185m
param *.uav[98].startY 3026m
param *.uav[98].startZ 778m
param *.uav[99].startX 3537m
param *.uav[99].startY 965m
param *.uav[99].startZ 539m
param *.osgEarthScene.scene "\"boston.earth\""
param *.playgroundLatitude 42.3558
param *.playgroundLongitude -71.0677
param *.playgroundWidth 400m
param *.playgroundHeight 200m
param *.channelController.connectionColor "\"#0000FF40\""
param *.channelController.showConnections false
param *.uav[*].modelURL "\"quadrocopter.small.obj.15.scale.0,0,90.rot\""
param *.uav[*].labelColor "\"#FF7C00CC\""
param *.uav[*].label2Color "\"#FF7C00EE\""
param *.uav[*].batteryCapacity 5200mAh
param *.uav[*].batteryRemaining uav[index].batteryCapacity
param *.uav[*].predictionQuantile 0.95
param *.uav[*].replacementMethod 2
param *.uav[*].weightedSumWeight 0.5
param *.cs[*].modelURL "\"chargingstation_v1.osgt.2.scale.0,0,0.rot.0,0,-15e-1.trans\""
param *.cs[*].spotsWaiting 999
param *.cs[*].spotsCharging 999
param *.cs[*].chargeEffectivenessPercentage 100
param *.cs[*].nonLinearPhaseStartPercentage 85
param *.cs[*].chargeCurrent 6.0A
param *.cs[*].prioritizeFastCharge true
param *.missionControl.replacementSearchMethod 0
param *.*.timeStep 9s

scalar OsgEarthNet.uav[0] utilizationSecMission 460
scalar OsgEarthNet.uav[0] utilizationSecMaintenance 447.1303002674
scalar OsgEarthNet.uav[0] utilizationSecCharge 3520
scalar OsgEarthNet.uav[0] utilizationSecIdle 254772.86869973
scalar OsgEarthNet.uav[0] utilizationEnergyMission 2345.2968864441
scalar OsgEarthNet.uav[0] utilizationEnergyMaintenance 2023.9766349792
scalar OsgEarthNet.uav[0] utilizationEnergyCharge 4497.013671875
scalar OsgEarthNet.uav[0] utilizationEnergyOverdrawMission 0
scalar OsgEarthNet.uav[0] utilizationEnergyOverdrawMaintenance 0
scalar OsgEarthNet.uav[0] utilizationCountMissions 1
scalar OsgEarthNet.uav[0] utilizationCountManeuversMission 23
scalar OsgEarthNet.uav[0] utilizationCountManeuversMaintenance 2
scalar OsgEarthNet.uav[0] utilizationCountChargeState 1
scalar OsgEarthNet.uav[0] utilizationCountOverdrawnAfterMission 0
scalar OsgEarthNet.uav[0] utilizationCountIdleState 2
scalar OsgEarthNet.uav[0] utilizationFail 0
scalar OsgEarthNet.uav[0] simulationTime 259200
scalar OsgEarthNet.uav[1] utilizationSecMission 682.94783150361
scalar OsgEarthNet.uav[1] utilizationSecMaintenance 298.15269315943
scalar OsgEarthNet.uav[1] utilizationSecCharge 3660
scalar OsgEarthNet.uav[1] utilizationSecIdle 254558.89847534
scalar OsgEarthNet.uav[1] utilizationEnergyMission 3211.2050476074
scalar OsgEarthNet.uav[1] utilizationEnergyMaintenance 1528.1437911987
scalar OsgEarthNet.uav[1] utilizationEnergyCharge 4739.349609375
scalar OsgEarthNet.uav[1] utilizationEnergyOverdrawMission 0
scalar OsgEarthNet.uav[1] utilizationEnergyOverdrawMaintenance 0
scalar OsgEarthNet.uav[1] utilizationCountMissions 1
scalar OsgEarthNet.uav[1] utilizationCountManeuversMission 12
scalar OsgEarthNet.uav[1] utilizationCountManeuversMaintenance 2
scalar OsgEarthNet.uav[1] utilizationCountChargeState 1
scalar OsgEarthNet.uav[1] utilizationCountOverdrawnAfterMission 0
scalar OsgEarthNet.uav[1] utilizationCountIdleState 2
scalar OsgEarthNet.uav[1] utilizationFail 0
scalar OsgEarthNet.uav[1] simulationTime 259200
scalar OsgEarthNet.uav[2] utilizationSecMission 42125.370078392
scalar OsgEarthNet.uav[2] utilizationSecMaintenance 17474.920776344
scalar OsgEarthNet.uav[2] utilizationSecCharge 197997.70714526
scalar OsgEarthNet.uav[2] utilizationSecIdle 1602.001
scalar OsgEarthNet.uav[2] utilizationEnergyMission 202813.81711578
scalar OsgEarthNet.uav[2] utilizationEnergyMaintenance 80827.445075989
scalar OsgEarthNet.uav[2] utilizationEnergyCharge 280486.48187256
scalar OsgEarthNet.uav[2] utilizationEnergyOverdrawMission 0
scalar OsgEarthNet.uav[2] utilizationEnergyOverdrawMaintenance 0
scalar OsgEarthNet.uav[2] utilizationCountMissions 62
scalar OsgEarthNet.uav[2] utilizationCountManeuversMission 1372
scalar OsgEarthNet.uav[2] utilizationCountManeuversMaintenance 124
scalar OsgEarthNet.uav[2] utilizationCountChargeState 62
scalar OsgEarthNet.uav[2] utilizationCountOverdrawnAfterMission 0
scalar OsgEarthNet.uav[2] utilizationCountIdleState 9
scalar OsgEarthNet.uav[2] utilizationFail 0
scalar OsgEarthNet.uav[2] simulationTime 259200
scalar OsgEarthNet.uav[3] utilizationSecMission 760.62515258028
scalar OsgEarthNet.uav[3] utilizationSecMaintenance 202.91610409653
scalar OsgEarthNet.uav[3] utilizationSecCharge 3390
scalar OsgEarthNet.uav[3] utilizationSecIdle 254846.45774332
scalar OsgEarthNet.uav[3] utilizationEnergyMission 3385.844909668
scalar OsgEarthNet.uav[3] utilizationEnergyMaintenance 940.48989105224
scalar OsgEarthNet.uav[3] utilizationEnergyCharge 4323.8129882812
scalar OsgEarthNet.uav[3] utilizationEnergyOverdrawMission 0
scalar OsgEarthNet.uav[3] utilizationEnergyOverdrawMaintenance 0
scalar OsgEarthNet.uav[3] utilizationCountMissions 1
scalar OsgEarthNet.uav[3] utilizationCountManeuversMission 12
scalar OsgEarthNet.uav[3] utilizationCountManeuversMaintenance 2
scalar OsgEarthNet.uav[3] utilizationCountChargeState 1
scalar OsgEarthNet.uav[3] utilizationCountOverdrawnAfterMission 0
scalar OsgEarthNet.uav[3] utilizationCountIdleState 2
scalar OsgEarthNet.uav[3] utilizationFail 0
scalar OsgEarthNet.uav[3] simulationTime 259200
scalar OsgEarthNet.uav[4] utilizationSecMission 2099.2979296281
scalar OsgEarthNet.uav[4] utilizationSecMaintenance 1264.9602652887
scalar OsgEarthNet.uav[4] utilizationSecCharge 12690
scalar OsgEarthNet.uav[4] utilizationSecIdle 243145.74080508
scalar OsgEarthNet.uav[4] utilizationEnergyMission 9454.478351593
scalar OsgEarthNet.uav[4] utilizationEnergyMaintenance 5932.2301292419
scalar OsgEarthNet.uav[4] utilizationEnergyCharge 15691.657470703
scalar OsgEarthNet.uav[4] utilizationEnergyOverdrawMission 0
scalar OsgEarthNet.uav[4] utilizationEnergyOverdrawMaintenance 0
scalar OsgEarthNet.uav[4] utilizationCountMissions 4
scalar OsgEarthNet.uav[4] utilizationCountManeuversMission 53
scalar OsgEarthNet.uav[4] utilizationCountManeuversMaintenance 8
scalar OsgEarthNet.uav[4] utilizationCountChargeState 4
scalar OsgEarthNet.uav[4] utilizationCountOverdrawnAfterMission 0
scalar OsgEarthNet.uav[4] utilizationCountIdleState 5
scalar OsgEarthNet.uav[4] utilizationFail 0
scalar OsgEarthNet.uav[4] simulationTime 259200
scalar OsgEarthNet.uav[5] utilizationSecMission 41113.771725005
scalar OsgEarthNet.uav[5] utilizationSecMaintenance 19040.955208445
scalar OsgEarthNet.uav[5] utilizationSecCharge 197093.27006655
scalar OsgEarthNet.uav[5] utilizationSecIdle 1952.002
scalar OsgEarthNet.uav[5] utilizationEnergyMission 197297.62810516
scalar OsgEarthNet.uav[5] utilizationEnergyMaintenance 88717.870868683
scalar OsgEarthNet.uav[5] utilizationEnergyCharge 282155.99157715
scalar OsgEarthNet.uav[5] utilizationEnergyOverdrawMission 0
scalar OsgEarthNet.uav[5] utilizationEnergyOverdrawMaintenance 0
scalar OsgEarthNet.uav[5] utilizationCountMissions 62
scalar OsgEarthNet.uav[5] utilizationCountManeuversMission 1211
scalar OsgEarthNet.uav[5] utilizationCountManeuversMaintenance 124
scalar OsgEarthNet.uav[5] utilizationCountChargeState 62
scalar OsgEarthNet.uav[5] utilizationCountOverdrawnAfterMission 0
scalar OsgEarthNet.uav[5] utilizationCountIdleState 10
scalar OsgEarthNet.uav[5] utilizationFail 0
scalar OsgEarthNet.uav[5] simulationTime 259200
scalar OsgEarthNet.uav[6] utilizationSecMission 440
scalar OsgEarthNet.uav[6] utilizationSecMaintenance 447.1303002674
scalar OsgEarthNet.uav[6] utilizationSecCharge 3430
scalar OsgEarthNet.uav[6] utilizationSecIdle 254882.86869973
scalar OsgEarthNet.uav[6] utilizationEnergyMission 2365.4065551758
scalar OsgEarthNet.uav[6] utilizationEnergyMaintenance 2119.679271698
scalar OsgEarthNet.uav[6] utilizationEnergyCharge 4430.1098632812
scalar OsgEarthNet.uav[6] utilizationEnergyOverdrawMission 0
scalar OsgEarthNet.uav[6] utilizationEnergyOverdrawMaintenance 0
scalar OsgEarthNet.uav[6] utilizationCountMissions 1
scalar OsgEarthNet.uav[6] utilizationCountManeuversMission 22
scalar OsgEarthNet.uav[6] utilizationCountManeuversMaintenance 2
scalar OsgEarthNet.uav[6] utilizationCountChargeState 1
scalar OsgEarthNet.uav[6] utilizationCountOverdrawnAfterMission 0
scalar OsgEarthNet.uav[6] utilizationCountIdleState 2
scalar OsgEarthNet.uav[6] utilizationFail 0
scalar OsgEarthNet.uav[6] simulationTime 259200
scalar OsgEarthNet.uav[7] utilizationSecMission 3106.8045332419
scalar OsgEarthNet.uav[7] utilizationSecMaintenance 2552.3585563766
scalar OsgEarthNet.uav[7] utilizationSecCharge 22510
scalar OsgEarthNet.uav[7] utilizationSecIdle 231030.83591038
scalar OsgEarthNet.uav[7] utilizationEnergyMission 16088.927604675
scalar OsgEarthNet.uav[7] utilizationEnergyMaintenance 12262.273773193
scalar OsgEarthNet.uav[7] utilizationEnergyCharge 27829.477294922
scalar OsgEarthNet.uav[7] utilizationEnergyOverdrawMission 0
scalar OsgEarthNet.uav[7] utilizationEnergyOverdrawMaintenance 0
scalar OsgEarthNet.uav[7] utilizationCountMissions 7
scalar OsgEarthNet.uav[7] utilizationCountManeuversMission 140
scalar OsgEarthNet.uav[7] utilizationCountManeuversMaintenance 14
scalar OsgEarthNet.uav[7] utilizationCountChargeState 7
scalar OsgEarthNet.uav[7] utilizationCountOverdrawnAfterMission 0
scalar OsgEarthNet.uav[7] utilizationCountIdleState 8
scalar OsgEarthNet.uav[7] utilizationFail 0
scalar OsgEarthNet.uav[7] simulationTime 259200
scalar OsgEarthNet.uav[8] utilizationSecMission 42446.171045923
scalar OsgEarthNet.uav[8] utilizationSecMaintenance 17031.914300896
scalar OsgEarthNet.uav[8] utilizationSecCharge 197090.2406016
scalar OsgEarthNet.uav[8] utilizationSecIdle 2631.6730515863
scalar OsgEarthNet.uav[8] utilizationEnergyMission 206705.32569885
scalar OsgEarthNet.uav[8] utilizationEnergyMaintenance 79220.862506866
scalar OsgEarthNet.uav[8] utilizationEnergyCharge 279017.68151855
scalar OsgEarthNet.uav[8] utilizationEnergyOverdrawMission 0
scalar OsgEarthNet.uav[8] utilizationEnergyOverdrawMaintenance 0
scalar OsgEarthNet.uav[8] utilizationCountMissions 61
scalar OsgEarthNet.uav[8] utilizationCountManeuversMission 1201
scalar OsgEarthNet.uav[8] utilizationCountManeuversMaintenance 122
scalar OsgEarthNet.uav[8] utilizationCountChargeState 61
scalar OsgEarthNet.uav[8] utilizationCountOverdrawnAfterMission 0
scalar OsgEarthNet.uav[8] utilizationCountIdleState 11
scalar OsgEarthNet.uav[8] utilizationFail 0
scalar OsgEarthNet.uav[8] simulationTime 259200
scalar OsgEarthNet.uav[9] utilizationSecMission 960
scalar OsgEarthNet.uav[9] utilizationSecMaintenance 894.56202711707
scalar OsgEarthNet.uav[9] utilizationSecCharge 7070
scalar OsgEarthNet.uav[9] utilizationSecIdle 250275.43697288
scalar OsgEarthNet.uav[9] utilizationEnergyMission 4631.7753982544
scalar OsgEarthNet.uav[9] utilizationEnergyMaintenance 4234.731590271
scalar OsgEarthNet.uav[9] utilizationEnergyCharge 9122.63671875
scalar OsgEarthNet.uav[9] utilizationEnergyOverdrawMission 0
scalar OsgEarthNet.uav[9] utilizationEnergyOverdrawMaintenance 0
scalar OsgEarthNet.uav[9] utilizationCountMissions 2
scalar OsgEarthNet.uav[9] utilizationCountManeuversMission 48
scalar OsgEarthNet.uav[9] utilizationCountManeuversMaintenance 4
scalar OsgEarthNet.uav[9] utilizationCountChargeState 2
scalar OsgEarthNet.uav[9] utilizationCountOverdrawnAfterMission 0
scalar OsgEarthNet.uav[9] utilizationCountIdleState 3
scalar OsgEarthNet.uav[9] utilizationFail 0
scalar OsgEarthNet.uav[9] simulationTime 259200
scalar OsgEarthNet.uav[10] utilizationSecMission 460
scalar OsgEarthNet.uav[10] utilizationSecMaintenance 447.1303002674
scalar OsgEarthNet.uav[10] utilizationSecCharge 3470
scalar OsgEarthNet.uav[10] utilizationSecIdle 254822.86869973
scalar OsgEarthNet.uav[10] utilizationEnergyMission 2218.2012252808
scalar OsgEarthNet.uav[10] utilizationEnergyMaintenance 2125.9715080261
scalar OsgEarthNet.uav[10] utilizationEnergyCharge 4464.0068359375
scalar OsgEarthNet.uav[10] utilizationEnergyOverdrawMission 0
scalar OsgEarthNet.uav[10] utilizationEnergyOverdrawMaintenance 0
scalar OsgEarthNet.uav[10] utilizationCountMissions 1
scalar OsgEarthNet.uav[10] utilizationCountManeuversMission 23
scalar OsgEarthNet.uav[10] utilizationCountManeuversMaintenance 2
scalar OsgEarthNet.uav[10] utilizationCountChargeState 1
scalar OsgEarthNet.uav[10] utilizationCountOverdrawnAfterMission 0
scalar OsgEarthNet.uav[10] utilizationCountIdleState 2
scalar OsgEarthNet.uav[10] utilizationFail 0
scalar OsgEarthNet.uav[10] simulationTime 259200
scalar OsgEarthNet.uav[11] utilizationSecMission 3503.1546313664
scalar OsgEarthNet.uav[11] utilizationSecMaintenance 2718.1904245413
scalar OsgEarthNet.uav[11] utilizationSecCharge 24640
scalar OsgEarthNet.uav[11] utilizationSecIdle 228338.65394409
scalar OsgEarthNet.uav[11] utilizationEnergyMission 16945.518192291
scalar OsgEarthNet.uav[11] utilizationEnergyMaintenance 12821.601287842
scalar OsgEarthNet.uav[11] utilizationEnergyCharge 29781.340820312
scalar OsgEarthNet.uav[11] utilizationEnergyOverdrawMission 0
scalar OsgEarthNet.uav[11] utilizationEnergyOverdrawMaintenance 0
scalar OsgEarthNet.uav[11] utilizationCountMissions 8
scalar OsgEarthNet.uav[11] utilizationCountManeuversMission 130
scalar OsgEarthNet.uav[11] utilizationCountManeuversMaintenance 16
scalar OsgEarthNet.uav[11] utilizationCountChargeState 8
scalar OsgEarthNet.uav[11] utilizationCountOverdrawnAfterMission 0
scalar OsgEarthNet.uav[11] utilizationCountIdleState 9
scalar OsgEarthNet.uav[11] utilizationFail 0
scalar OsgEarthNet.uav[11] simulationTime 259200
scalar OsgEarthNet.uav[12] utilizationSecMission 41225.192865252
scalar OsgEarthNet.uav[12] utilizationSecMaintenance 17537.56808912
scalar OsgEarthNet.uav[12] utilizationSecCharge 196367.40123159
scalar OsgEarthNet.uav[12] utilizationSecIdle 4069.83681404
scalar OsgEarthNet.uav[12] utilizationEnergyMission 199214.86323929
scalar OsgEarthNet.uav[12] utilizationEnergyMaintenance 81577.454357147
scalar OsgEarthNet.uav[12] utilizationEnergyCharge 279101.45385742
scalar OsgEarthNet.uav[12] utilizationEnergyOverdrawMission 0
scalar OsgEarthNet.uav[12] utilizationEnergyOverdrawMaintenance 0
scalar OsgEarthNet.uav[12] utilizationCountMissions 61
scalar OsgEarthNet.uav[12] utilizationCountManeuversMission 1151
scalar OsgEarthNet.uav[12] utilizationCountManeuversMaintenance 122
scalar OsgEarthNet.uav[12] utilizationCountChargeState 61
scalar OsgEarthNet.uav[12] utilizationCountOverdrawnAfterMission 0
scalar OsgEarthNet.uav[12] utilizationCountIdleState 9
scalar OsgEarthNet.uav[12] utilizationFail 0
scalar OsgEarthNet.uav[12] simulationTime 259200
scalar OsgEarthNet.uav[13] utilizationSecMission 14606.251525803
scalar OsgEarthNet.uav[13] utilizationSecMaintenance 8905.1385434337
scalar OsgEarthNet.uav[13] utilizationSecCharge 88650
scalar OsgEarthNet.uav[13] utilizationSecIdle 147038.60893076
scalar OsgEarthNet.uav[13] utilizationEnergyMission 71226.451644897
scalar OsgEarthNet.uav[13] utilizationEnergyMaintenance 42213.369579315
scalar OsgEarthNet.uav[13] utilizationEnergyCharge 114327.5234375
scalar OsgEarthNet.uav[13] utilizationEnergyOverdrawMission 0
scalar OsgEarthNet.uav[13] utilizationEnergyOverdrawMaintenance 0
scalar OsgEarthNet.uav[13] utilizationCountMissions 25
scalar OsgEarthNet.uav[13] utilizationCountManeuversMission 470
scalar OsgEarthNet.uav[13] utilizationCountManeuversMaintenance 50
scalar OsgEarthNet.uav[13] utilizationCountChargeState 25
scalar OsgEarthNet.uav[13] utilizationCountOverdrawnAfterMission 0
scalar OsgEarthNet.uav[13] utilizationCountIdleState 26
scalar OsgEarthNet.uav[13] utilizationFail 0
scalar OsgEarthNet.uav[13] simulationTime 259200
scalar OsgEarthNet.uav[14] utilizationSecMission 11054.450686872
scalar OsgEarthNet.uav[14] utilizationSecMaintenance 7558.3518995603
scalar OsgEarthNet.uav[14] utilizationSecCharge 72710
scalar OsgEarthNet.uav[14] utilizationSecIdle 167877.19641357
scalar OsgEarthNet.uav[14] utilizationEnergyMission 53148.246391296
scalar OsgEarthNet.uav[14] utilizationEnergyMaintenance 36261.884967804
scalar OsgEarthNet.uav[14] utilizationEnergyCharge 89371.818115234
scalar OsgEarthNet.uav[14] utilizationEnergyOverdrawMission 0
scalar OsgEarthNet.uav[14] utilizationEnergyOverdrawMaintenance 0
scalar OsgEarthNet.uav[14] utilizationCountMissions 23
scalar OsgEarthNet.uav[14] utilizationCountManeuversMission 344
scalar OsgEarthNet.uav[14] utilizationCountManeuversMaintenance 46
scalar OsgEarthNet.uav[14] utilizationCountChargeState 23
scalar OsgEarthNet.uav[14] utilizationCountOverdrawnAfterMission 0
scalar OsgEarthNet.uav[14] utilizationCountIdleState 24
scalar OsgEarthNet.uav[14] utilizationFail 0
scalar OsgEarthNet.uav[14] simulationTime 259200
scalar OsgEarthNet.uav[15] utilizationSecMission 41869.456538696
scalar OsgEarthNet.uav[15] utilizationSecMaintenance 17277.971029127
scalar OsgEarthNet.uav[15] utilizationSecCharge 195807.86067999
scalar OsgEarthNet.uav[15] utilizationSecIdle 4244.7107521909
scalar OsgEarthNet.uav[15] utilizationEnergyMission 200428.26869202
scalar OsgEarthNet.uav[15] utilizationEnergyMaintenance 78866.457118988
scalar OsgEarthNet.uav[15] utilizationEnergyCharge 279142.34423828
scalar OsgEarthNet.uav[15] utilizationEnergyOverdrawMission 0
scalar OsgEarthNet.uav[15] utilizationEnergyOverdrawMaintenance 0
scalar OsgEarthNet.uav[15] utilizationCountMissions 61
scalar OsgEarthNet.uav[15] utilizationCountManeuversMission 1163
scalar OsgEarthNet.uav[15] utilizationCountManeuversMaintenance 122
scalar OsgEarthNet.uav[15] utilizationCountChargeState 61
scalar OsgEarthNet.uav[15] utilizationCountOverdrawnAfterMission 0
scalar OsgEarthNet.uav[15] utilizationCountIdleState 8
scalar OsgEarthNet.uav[15] utilizationFail 0
scalar OsgEarthNet.uav[15] simulationTime 259200
scalar OsgEarthNet.uav[16] utilizationSecMission 10545.626373223
scalar OsgEarthNet.uav[16] utilizationSecMaintenance 5502.594243923
scalar OsgEarthNet.uav[16] utilizationSecCharge 59800
scalar OsgEarthNet.uav[16] utilizationSecIdle 183351.77838285
scalar OsgEarthNet.uav[16] utilizationEnergyMission 51494.818572998
scalar OsgEarthNet.uav[16] utilizationEnergyMaintenance 26341.153587341
scalar OsgEarthNet.uav[16] utilizationEnergyCharge 76875.449707031
scalar OsgEarthNet.uav[16] utilizationEnergyOverdrawMission 0
scalar OsgEarthNet.uav[16] utilizationEnergyOverdrawMaintenance 0
scalar OsgEarthNet.uav[16] utilizationCountMissions 17
scalar OsgEarthNet.uav[16] utilizationCountManeuversMission 293
scalar OsgEarthNet.uav[16] utilizationCountManeuversMaintenance 34
scalar OsgEarthNet.uav[16] utilizationCountChargeState 17
scalar OsgEarthNet.uav[16] utilizationCountOverdrawnAfterMission 0
scalar OsgEarthNet.uav[16] utilizationCountIdleState 18
scalar OsgEarthNet.uav[16] utilizationFail 0
scalar OsgEarthNet.uav[16] simulationTime 259200
scalar OsgEarthNet.uav[17] utilizationSecMission 9698.8026591191
scalar OsgEarthNet.uav[17] utilizationSecMaintenance 6928.0646984585
scalar OsgEarthNet.uav[17] utilizationSecCharge 64710
scalar OsgEarthNet.uav[17] utilizationSecIdle 177863.13164242
scalar OsgEarthNet.uav[17] utilizationEnergyMission 49117.837345123
scalar OsgEarthNet.uav[17] utilizationEnergyMaintenance 32597.412563324
scalar OsgEarthNet.uav[17] utilizationEnergyCharge 80308.408447266
scalar OsgEarthNet.uav[17] utilizationEnergyOverdrawMission 0
scalar OsgEarthNet.uav[17] utilizationEnergyOverdrawMaintenance 0
scalar OsgEarthNet.uav[17] utilizationCountMissions 20
scalar OsgEarthNet.uav[17] utilizationCountManeuversMission 358
scalar OsgEarthNet.uav[17] utilizationCountManeuversMaintenance 40
scalar OsgEarthNet.uav[17] utilizationCountChargeState 20
scalar OsgEarthNet.uav[17] utilizationCountOverdrawnAfterMission 0
scalar OsgEarthNet.uav[17] utilizationCountIdleState 21
scalar OsgEarthNet.uav[17] utilizationFail 0
scalar OsgEarthNet.uav[17] simulationTime 259200
scalar OsgEarthNet.uav[18] utilizationSecMission 41175.464105466
scalar OsgEarthNet.uav[18] utilizationSecMaintenance 18342.530894534
scalar OsgEarthNet.uav[18] utilizationSecCharge 196600
scalar OsgEarthNet.uav[18] utilizationSecIdle 3082.004
scalar OsgEarthNet.uav[18] utilizationEnergyMission 198638.49821091
scalar OsgEarthNet.uav[18] utilizationEnergyMaintenance 85077.986833079
scalar OsgEarthNet.uav[18] utilizationEnergyCharge 280000.32275391
scalar OsgEarthNet.uav[18] utilizationEnergyOverdrawMission 0
scalar OsgEarthNet.uav[18] utilizationEnergyOverdrawMaintenance 0
scalar OsgEarthNet.uav[18] utilizationCountMissions 62
scalar OsgEarthNet.uav[18] utilizationCountManeuversMission 1280
scalar OsgEarthNet.uav[18] utilizationCountManeuversMaintenance 124
scalar OsgEarthNet.uav[18] utilizationCountChargeState 61
scalar OsgEarthNet.uav[18] utilizationCountOverdrawnAfterMission 0
scalar OsgEarthNet.uav[18] utilizationCountIdleState 10
scalar OsgEarthNet.uav[18] utilizationFail 0
scalar OsgEarthNet.uav[18] simulationTime 259200
scalar OsgEarthNet.uav[19] utilizationSecMission 14813.492876731
scalar OsgEarthNet.uav[19] utilizationSecMaintenance 11122.773146656
scalar OsgEarthNet.uav[19] utilizationSecCharge 97710
scalar OsgEarthNet.uav[19] utilizationSecIdle 135553.73297661
scalar OsgEarthNet.uav[19] utilizationEnergyMission 74389.600257874
scalar OsgEarthNet.uav[19] utilizationEnergyMaintenance 53179.256637573
scalar OsgEarthNet.uav[19] utilizationEnergyCharge 125335.44482422
scalar OsgEarthNet.uav[19] utilizationEnergyOverdrawMission 0
scalar OsgEarthNet.uav[19] utilizationEnergyOverdrawMaintenance 0
scalar OsgEarthNet.uav[19] utilizationCountMissions 28
scalar OsgEarthNet.uav[19] utilizationCountManeuversMission 589
scalar OsgEarthNet.uav[19] utilizationCountManeuversMaintenance 56
scalar OsgEarthNet.uav[19] utilizationCountChargeState 28
scalar OsgEarthNet.uav[19] utilizationCountOverdrawnAfterMission 0
scalar OsgEarthNet.uav[19] utilizationCountIdleState 29
scalar OsgEarthNet.uav[19] utilizationFail 0
scalar OsgEarthNet.uav[19] simulationTime 259200
scalar OsgEarthNet.uav[20] utilizationSecMission 12835.368334472
scalar OsgEarthNet.uav[20] utilizationSecMaintenance 7675.4462354177
scalar OsgEarthNet.uav[20] utilizationSecCharge 77050
scalar OsgEarthNet.uav[20] utilizationSecIdle 161639.18443011
scalar OsgEarthNet.uav[20] utilizationEnergyMission 63636.557128906
scalar OsgEarthNet.uav[20] utilizationEnergyMaintenance 36700.607398987
scalar OsgEarthNet.uav[20] utilizationEnergyCharge 98822.161132812
scalar OsgEarthNet.uav[20] utilizationEnergyOverdrawMission 0
scalar OsgEarthNet.uav[20] utilizationEnergyOverdrawMaintenance 0
scalar OsgEarthNet.uav[20] utilizationCountMissions 22
scalar OsgEarthNet.uav[20] utilizationCountManeuversMission 412
scalar OsgEarthNet.uav[20] utilizationCountManeuversMaintenance 44
scalar OsgEarthNet.uav[20] utilizationCountChargeState 22
scalar OsgEarthNet.uav[20] utilizationCountOverdrawnAfterMission 0
scalar OsgEarthNet.uav[20] utilizationCountIdleState 23
scalar OsgEarthNet.uav[20] utilizationFail 0
scalar OsgEarthNet.uav[20] simulationTime 259200
scalar OsgEarthNet.uav[21] utilizationSecMission 16375.994377632
scalar OsgEarthNet.uav[21] utilizationSecMaintenance 10763.327732789
scalar OsgEarthNet.uav[21] utilizationSecCharge 105850
scalar OsgEarthNet.uav[21] utilizationSecIdle 126210.67688958
scalar OsgEarthNet.uav[21] utilizationEnergyMission 79637.032951355
scalar OsgEarthNet.uav[21] utilizationEnergyMaintenance 51206.172935486
scalar OsgEarthNet.uav[21] utilizationEnergyCharge 130953.94824219
scalar OsgEarthNet.uav[21] utilizationEnergyOverdrawMission 0
scalar OsgEarthNet.uav[21] utilizationEnergyOverdrawMaintenance 0
scalar OsgEarthNet.uav[21] utilizationCountMissions 33
scalar OsgEarthNet.uav[21] utilizationCountManeuversMission 484
scalar OsgEarthNet.uav[21] utilizationCountManeuversMaintenance 66
scalar OsgEarthNet.uav[21] utilizationCountChargeState 33
scalar OsgEarthNet.uav[21] utilizationCountOverdrawnAfterMission 0
scalar OsgEarthNet.uav[21] utilizationCountIdleState 34
scalar OsgEarthNet.uav[21] utilizationFail 0
scalar OsgEarthNet.uav[21] simulationTime 259200
scalar OsgEarthNet.uav[22] utilizationSecMission 42135.827814246
scalar OsgEarthNet.uav[22] utilizationSecMaintenance 17910.240077094
scalar OsgEarthNet.uav[22] utilizationSecCharge 196921.92810866
scalar OsgEarthNet.uav[22] utilizationSecIdle 2232.003
scalar OsgEarthNet.uav[22] utilizationEnergyMission 207552.58378601
scalar OsgEarthNet.uav[22] utilizationEnergyMaintenance 81810.378715515
scalar OsgEarthNet.uav[22] utilizationEnergyCharge 281329.87670898
scalar OsgEarthNet.uav[22] utilizationEnergyOverdrawMission 0
scalar OsgEarthNet.uav[22] utilizationEnergyOverdrawMaintenance 0
scalar OsgEarthNet.uav[22] utilizationCountMissions 62
scalar OsgEarthNet.uav[22] utilizationCountManeuversMission 1335
scalar OsgEarthNet.uav[22] utilizationCountManeuversMaintenance 124
scalar OsgEarthNet.uav[22] utilizationCountChargeState 62
scalar OsgEarthNet.uav[22] utilizationCountOverdrawnAfterMission 0
scalar OsgEarthNet.uav[22] utilizationCountIdleState 8
scalar OsgEarthNet.uav[22] utilizationFail 0
scalar OsgEarthNet.uav[22] simulationTime 259200
scalar OsgEarthNet.uav[23] utilizationSecMission 15024.376068062
scalar OsgEarthNet.uav[23] utilizationSecMaintenance 11097.537596092
scalar OsgEarthNet.uav[23] utilizationSecCharge 97970
scalar OsgEarthNet.uav[23] utilizationSecIdle 135108.08533585
scalar OsgEarthNet.uav[23] utilizationEnergyMission 73279.45999527
scalar OsgEarthNet.uav[23] utilizationEnergyMaintenance 52750.289382934
scalar OsgEarthNet.uav[23] utilizationEnergyCharge 125841.84912109
scalar OsgEarthNet.uav[23] utilizationEnergyOverdrawMission 0
scalar OsgEarthNet.uav[23] utilizationEnergyOverdrawMaintenance 0
scalar OsgEarthNet.uav[23] utilizationCountMissions 28
scalar OsgEarthNet.uav[23] utilizationCountManeuversMission 569
scalar OsgEarthNet.uav[23] utilizationCountManeuversMaintenance 56
scalar OsgEarthNet.uav[23] utilizationCountChargeState 28
scalar OsgEarthNet.uav[23] utilizationCountOverdrawnAfterMission 0
scalar OsgEarthNet.uav[23] utilizationCountIdleState 29
scalar OsgEarthNet.uav[23] utilizationFail 0
scalar OsgEarthNet.uav[23] simulationTime 259200
scalar OsgEarthNet.uav[24] utilizationSecMission 21711.849205247
scalar OsgEarthNet.uav[24] utilizationSecMaintenance 14624.824774212
scalar OsgEarthNet.uav[24] utilizationSecCharge 141288.71313102
scalar OsgEarthNet.uav[24] utilizationSecIdle 81574.611889516
scalar OsgEarthNet.uav[24] utilizationEnergyMission 104725.73295975
scalar OsgEarthNet.uav[24] utilizationEnergyMaintenance 69420.446540833
scalar OsgEarthNet.uav[24] utilizationEnergyCharge 174653.68701172
scalar OsgEarthNet.uav[24] utilizationEnergyOverdrawMission 0
scalar OsgEarthNet.uav[24] utilizationEnergyOverdrawMaintenance 0
scalar OsgEarthNet.uav[24] utilizationCountMissions 45
scalar OsgEarthNet.uav[24] utilizationCountManeuversMission 646
scalar OsgEarthNet.uav[24] utilizationCountManeuversMaintenance 90
scalar OsgEarthNet.uav[24] utilizationCountChargeState 45
scalar OsgEarthNet.uav[24] utilizationCountOverdrawnAfterMission 0
scalar OsgEarthNet.uav[24] utilizationCountIdleState 45
scalar OsgEarthNet.uav[24] utilizationFail 0
scalar OsgEarthNet.uav[24] simulationTime 259200
scalar OsgEarthNet.uav[25] utilizationSecMission 40644.336647852
scalar OsgEarthNet.uav[25] utilizationSecMaintenance 18149.913659446
scalar OsgEarthNet.uav[25] utilizationSecCharge 196680
scalar OsgEarthNet.uav[25] utilizationSecIdle 3725.7486927025
scalar OsgEarthNet.uav[25] utilizationEnergyMission 200390.58181592
scalar OsgEarthNet.uav[25] utilizationEnergyMaintenance 84121.777439117
scalar OsgEarthNet.uav[25] utilizationEnergyCharge 279966.3671875
scalar OsgEarthNet.uav[25] utilizationEnergyOverdrawMission 0
scalar OsgEarthNet.uav[25] utilizationEnergyOverdrawMaintenance 0
scalar OsgEarthNet.uav[25] utilizationCountMissions 61
scalar OsgEarthNet.uav[25] utilizationCountManeuversMission 1244
scalar OsgEarthNet.uav[25] utilizationCountManeuversMaintenance 123
scalar OsgEarthNet.uav[25] utilizationCountChargeState 61
scalar OsgEarthNet.uav[25] utilizationCountOverdrawnAfterMission 0
scalar OsgEarthNet.uav[25] utilizationCountIdleState 6
scalar OsgEarthNet.uav[25] utilizationFail 0
scalar OsgEarthNet.uav[25] simulationTime 259200
scalar OsgEarthNet.uav[26] utilizationSecMission 16977.243792213
scalar OsgEarthNet.uav[26] utilizationSecMaintenance 10219.466417164
scalar OsgEarthNet.uav[26] utilizationSecCharge 102250
scalar OsgEarthNet.uav[26] utilizationSecIdle 129753.28879062
scalar OsgEarthNet.uav[26] utilizationEnergyMission 82094.296653748
scalar OsgEarthNet.uav[26] utilizationEnergyMaintenance 48540.257015228
scalar OsgEarthNet.uav[26] utilizationEnergyCharge 131726.90283203
scalar OsgEarthNet.uav[26] utilizationEnergyOverdrawMission 0
scalar OsgEarthNet.uav[26] utilizationEnergyOverdrawMaintenance 0
scalar OsgEarthNet.uav[26] utilizationCountMissions 29
scalar OsgEarthNet.uav[26] utilizationCountManeuversMission 541
scalar OsgEarthNet.uav[26] utilizationCountManeuversMaintenance 58
scalar OsgEarthNet.uav[26] utilizationCountChargeState 29
scalar OsgEarthNet.uav[26] utilizationCountOverdrawnAfterMission 0
scalar OsgEarthNet.uav[26] utilizationCountIdleState 30
scalar OsgEarthNet.uav[26] utilizationFail 0
scalar OsgEarthNet.uav[26] simulationTime 259200
scalar OsgEarthNet.uav[27] utilizationSecMission 16679.85107937
scalar OsgEarthNet.uav[27] utilizationSecMaintenance 11238.14192063
scalar OsgEarthNet.uav[27] utilizationSecCharge 106270
scalar OsgEarthNet.uav[27] utilizationSecIdle 125012.006
scalar OsgEarthNet.uav[27] utilizationEnergyMission 81425.361118317
scalar OsgEarthNet.uav[27] utilizationEnergyMaintenance 53264.702225086
scalar OsgEarthNet.uav[27] utilizationEnergyCharge 130104.50244141
scalar OsgEarthNet.uav[27] utilizationEnergyOverdrawMission 0
scalar OsgEarthNet.uav[27] utilizationEnergyOverdrawMaintenance 0
scalar OsgEarthNet.uav[27] utilizationCountMissions 35
scalar OsgEarthNet.uav[27] utilizationCountManeuversMission 506
scalar OsgEarthNet.uav[27] utilizationCountManeuversMaintenance 70
scalar OsgEarthNet.uav[27] utilizationCountChargeState 34
scalar OsgEarthNet.uav[27] utilizationCountOverdrawnAfterMission 0
scalar OsgEarthNet.uav[27] utilizationCountIdleState 35
scalar OsgEarthNet.uav[27] utilizationFail 0
scalar OsgEarthNet.uav[27] simulationTime 259200
scalar OsgEarthNet.uav[28] utilizationSecMission 42614.023524367
scalar OsgEarthNet.uav[28] utilizationSecMaintenance 16509.81782552
scalar OsgEarthNet.uav[28] utilizationSecCharge 196237.58405532
scalar OsgEarthNet.uav[28] utilizationSecIdle 3838.5735947964
scalar OsgEarthNet.uav[28] utilizationEnergyMission 203645.3776207
scalar OsgEarthNet.uav[28] utilizationEnergyMaintenance 75992.4192276
scalar OsgEarthNet.uav[28] utilizationEnergyCharge 278785.58789062
scalar OsgEarthNet.uav[28] utilizationEnergyOverdrawMission 0
scalar OsgEarthNet.uav[28] utilizationEnergyOverdrawMaintenance 0
scalar OsgEarthNet.uav[28] utilizationCountMissions 60
scalar OsgEarthNet.uav[28] utilizationCountManeuversMission 1145
scalar OsgEarthNet.uav[28] utilizationCountManeuversMaintenance 120
scalar OsgEarthNet.uav[28] utilizationCountChargeState 60
scalar OsgEarthNet.uav[28] utilizationCountOverdrawnAfterMission 0
scalar OsgEarthNet.uav[28] utilizationCountIdleState 12
scalar OsgEarthNet.uav[28] utilizationFail 0
scalar OsgEarthNet.uav[28] simulationTime 259200
scalar OsgEarthNet.uav[29] utilizationSecMission 17425.626373223
scalar OsgEarthNet.uav[29] utilizationSecMaintenance 11951.373063756
scalar OsgEarthNet.uav[29] utilizationSecCharge 106483.34590635
scalar OsgEarthNet.uav[29] utilizationSecIdle 123339.65365667
scalar OsgEarthNet.uav[29] utilizationEnergyMission 86824.631156921
scalar OsgEarthNet.uav[29] utilizationEnergyMaintenance 56858.410228729
scalar OsgEarthNet.uav[29] utilizationEnergyCharge 137725.37335205
scalar OsgEarthNet.uav[29] utilizationEnergyOverdrawMission 0
scalar OsgEarthNet.uav[29] utilizationEnergyOverdrawMaintenance 0
scalar OsgEarthNet.uav[29] utilizationCountMissions 31
scalar OsgEarthNet.uav[29] utilizationCountManeuversMission 637
scalar OsgEarthNet.uav[29] utilizationCountManeuversMaintenance 62
scalar OsgEarthNet.uav[29] utilizationCountChargeState 31
scalar OsgEarthNet.uav[29] utilizationCountOverdrawnAfterMission 0
scalar OsgEarthNet.uav[29] utilizationCountIdleState 31
scalar OsgEarthNet.uav[29] utilizationFail 0
scalar OsgEarthNet.uav[29] simulationTime 259200
scalar OsgEarthNet.uav[30] utilizationSecMission 15688.643061045
scalar OsgEarthNet.uav[30] utilizationSecMaintenance 8270.9839582586
scalar OsgEarthNet.uav[30] utilizationSecCharge 88610
scalar OsgEarthNet.uav[30] utilizationSecIdle 146630.3719807
scalar OsgEarthNet.uav[30] utilizationEnergyMission 76276.034076691
scalar OsgEarthNet.uav[30] utilizationEnergyMaintenance 39408.439029693
scalar OsgEarthNet.uav[30] utilizationEnergyCharge 114393.26757812
scalar OsgEarthNet.uav[30] utilizationEnergyOverdrawMission 0
scalar OsgEarthNet.uav[30] utilizationEnergyOverdrawMaintenance 0
scalar OsgEarthNet.uav[30] utilizationCountMissions 25
scalar OsgEarthNet.uav[30] utilizationCountManeuversMission 437
scalar OsgEarthNet.uav[30] utilizationCountManeuversMaintenance 50
scalar OsgEarthNet.uav[30] utilizationCountChargeState 25
scalar OsgEarthNet.uav[30] utilizationCountOverdrawnAfterMission 0
scalar OsgEarthNet.uav[30] utilizationCountIdleState 26
scalar OsgEarthNet.uav[30] utilizationFail 0
scalar OsgEarthNet.uav[30] simulationTime 259200
scalar OsgEarthNet.uav[31] utilizationSecMission 16173.046546128
scalar OsgEarthNet.uav[31] utilizationSecMaintenance 10870.093917512
scalar OsgEarthNet.uav[31] utilizationSecCharge 102542.15283732
scalar OsgEarthNet.uav[31] utilizationSecIdle 129614.70569904
scalar OsgEarthNet.uav[31] utilizationEnergyMission 78485.532413483
scalar OsgEarthNet.uav[31] utilizationEnergyMaintenance 51229.507041931
scalar OsgEarthNet.uav[31] utilizationEnergyCharge 127046.97265625
scalar OsgEarthNet.uav[31] utilizationEnergyOverdrawMission 0
scalar OsgEarthNet.uav[31] utilizationEnergyOverdrawMaintenance 0
scalar OsgEarthNet.uav[31] utilizationCountMissions 33
scalar OsgEarthNet.uav[31] utilizationCountManeuversMission 496
scalar OsgEarthNet.uav[31] utilizationCountManeuversMaintenance 66
scalar OsgEarthNet.uav[31] utilizationCountChargeState 33
scalar OsgEarthNet.uav[31] utilizationCountOverdrawnAfterMission 0
scalar OsgEarthNet.uav[31] utilizationCountIdleState 33
scalar OsgEarthNet.uav[31] utilizationFail 0
scalar OsgEarthNet.uav[31] simulationTime 259200
scalar OsgEarthNet.uav[32] utilizationSecMission 42478.400264658
scalar OsgEarthNet.uav[32] utilizationSecMaintenance 17349.598735342
scalar OsgEarthNet.uav[32] utilizationSecCharge 198670
scalar OsgEarthNet.uav[32] utilizationSecIdle 702
scalar OsgEarthNet.uav[32] utilizationEnergyMission 201075.10982677
scalar OsgEarthNet.uav[32] utilizationEnergyMaintenance 78491.435817719
scalar OsgEarthNet.uav[32] utilizationEnergyCharge 281069.72802734
scalar OsgEarthNet.uav[32] utilizationEnergyOverdrawMission 0
scalar OsgEarthNet.uav[32] utilizationEnergyOverdrawMaintenance 0
scalar OsgEarthNet.uav[32] utilizationCountMissions 61
scalar OsgEarthNet.uav[32] utilizationCountManeuversMission 1272
scalar OsgEarthNet.uav[32] utilizationCountManeuversMaintenance 123
scalar OsgEarthNet.uav[32] utilizationCountChargeState 61
scalar OsgEarthNet.uav[32] utilizationCountOverdrawnAfterMission 0
scalar OsgEarthNet.uav[32] utilizationCountIdleState 11
scalar OsgEarthNet.uav[32] utilizationFail 0
scalar OsgEarthNet.uav[32] simulationTime 259200
scalar OsgEarthNet.uav[33] utilizationSecMission 12285.110295721
scalar OsgEarthNet.uav[33] utilizationSecMaintenance 7173.7391863569
scalar OsgEarthNet.uav[33] utilizationSecCharge 73110
scalar OsgEarthNet.uav[33] utilizationSecIdle 166631.14951792
scalar OsgEarthNet.uav[33] utilizationEnergyMission 59089.971206665
scalar OsgEarthNet.uav[33] utilizationEnergyMaintenance 34073.335811615
scalar OsgEarthNet.uav[33] utilizationEnergyCharge 93763.960449219
scalar OsgEarthNet.uav[33] utilizationEnergyOverdrawMission 0
scalar OsgEarthNet.uav[33] utilizationEnergyOverdrawMaintenance 0
scalar OsgEarthNet.uav[33] utilizationCountMissions 21
scalar OsgEarthNet.uav[33] utilizationCountManeuversMission 389
scalar OsgEarthNet.uav[33] utilizationCountManeuversMaintenance 42
scalar OsgEarthNet.uav[33] utilizationCountChargeState 21
scalar OsgEarthNet.uav[33] utilizationCountOverdrawnAfterMission 0
scalar OsgEarthNet.uav[33] utilizationCountIdleState 22
scalar OsgEarthNet.uav[33] utilizationFail 0
scalar OsgEarthNet.uav[33] simulationTime 259200
scalar OsgEarthNet.uav[34] utilizationSecMission 16242.320546789
scalar OsgEarthNet.uav[34] utilizationSecMaintenance 11155.671453211
scalar OsgEarthNet.uav[34] utilizationSecCharge 104790
scalar OsgEarthNet.uav[34] utilizationSecIdle 127012.007
scalar OsgEarthNet.uav[34] utilizationEnergyMission 79834.874236289
scalar OsgEarthNet.uav[34] utilizationEnergyMaintenance 53162.674133301
scalar OsgEarthNet.uav[34] utilizationEnergyCharge 130933.55444336
scalar OsgEarthNet.uav[34] utilizationEnergyOverdrawMission 0
scalar OsgEarthNet.uav[34] utilizationEnergyOverdrawMaintenance 0
scalar OsgEarthNet.uav[34] utilizationCountMissions 32
scalar OsgEarthNet.uav[34] utilizationCountManeuversMission 582
scalar OsgEarthNet.uav[34] utilizationCountManeuversMaintenance 65
scalar OsgEarthNet.uav[34] utilizationCountChargeState 32
scalar OsgEarthNet.uav[34] utilizationCountOverdrawnAfterMission 0
scalar OsgEarthNet.uav[34] utilizationCountIdleState 33
scalar OsgEarthNet.uav[34] utilizationFail 0
scalar OsgEarthNet.uav[34] simulationTime 259200
scalar OsgEarthNet.uav[35] utilizationSecMission 41003.152906753
scalar OsgEarthNet.uav[35] utilizationSecMaintenance 18038.907286535
scalar OsgEarthNet.uav[35] utilizationSecCharge 196767.23074934
scalar OsgEarthNet.uav[35] utilizationSecIdle 3390.7080573664
scalar OsgEarthNet.uav[35] utilizationEnergyMission 197937.26094437
scalar OsgEarthNet.uav[35] utilizationEnergyMaintenance 82548.863124847
scalar OsgEarthNet.uav[35] utilizationEnergyCharge 280897.85058594
scalar OsgEarthNet.uav[35] utilizationEnergyOverdrawMission 0
scalar OsgEarthNet.uav[35] utilizationEnergyOverdrawMaintenance 0
scalar OsgEarthNet.uav[35] utilizationCountMissions 61
scalar OsgEarthNet.uav[35] utilizationCountManeuversMission 1226
scalar OsgEarthNet.uav[35] utilizationCountManeuversMaintenance 122
scalar OsgEarthNet.uav[35] utilizationCountChargeState 61
scalar OsgEarthNet.uav[35] utilizationCountOverdrawnAfterMission 0
scalar OsgEarthNet.uav[35] utilizationCountIdleState 5
scalar OsgEarthNet.uav[35] utilizationFail 0
scalar OsgEarthNet.uav[35] simulationTime 259200
scalar OsgEarthNet.uav[36] utilizationSecMission 13397.868944793
scalar OsgEarthNet.uav[36] utilizationSecMaintenance 6221.0637622573
scalar OsgEarthNet.uav[36] utilizationSecCharge 73410
scalar OsgEarthNet.uav[36] utilizationSecIdle 166171.06629295
scalar OsgEarthNet.uav[36] utilizationEnergyMission 64064.973461151
scalar OsgEarthNet.uav[36] utilizationEnergyMaintenance 29567.343421936
scalar OsgEarthNet.uav[36] utilizationEnergyCharge 94408.685546875
scalar OsgEarthNet.uav[36] utilizationEnergyOverdrawMission 0
scalar OsgEarthNet.uav[36] utilizationEnergyOverdrawMaintenance 0
scalar OsgEarthNet.uav[36] utilizationCountMissions 21
scalar OsgEarthNet.uav[36] utilizationCountManeuversMission 336
scalar OsgEarthNet.uav[36] utilizationCountManeuversMaintenance 42
scalar OsgEarthNet.uav[36] utilizationCountChargeState 21
scalar OsgEarthNet.uav[36] utilizationCountOverdrawnAfterMission 0
scalar OsgEarthNet.uav[36] utilizationCountIdleState 22
scalar OsgEarthNet.uav[36] utilizationFail 0
scalar OsgEarthNet.uav[36] simulationTime 259200
scalar OsgEarthNet.uav[37] utilizationSecMission 23006.432751725
scalar OsgEarthNet.uav[37] utilizationSecMaintenance 15812.211665775
scalar OsgEarthNet.uav[37] utilizationSecCharge 147919.3545825
scalar OsgEarthNet.uav[37] utilizationSecIdle 72462
scalar OsgEarthNet.uav[37] utilizationEnergyMission 112449.41002655
scalar OsgEarthNet.uav[37] utilizationEnergyMaintenance 75389.472236633
scalar OsgEarthNet.uav[37] utilizationEnergyCharge 185307.41455078
scalar OsgEarthNet.uav[37] utilizationEnergyOverdrawMission 0
scalar OsgEarthNet.uav[37] utilizationEnergyOverdrawMaintenance 0
scalar OsgEarthNet.uav[37] utilizationCountMissions 46
scalar OsgEarthNet.uav[37] utilizationCountManeuversMission 827
scalar OsgEarthNet.uav[37] utilizationCountManeuversMaintenance 91
scalar OsgEarthNet.uav[37] utilizationCountChargeState 46
scalar OsgEarthNet.uav[37] utilizationCountOverdrawnAfterMission 0
scalar OsgEarthNet.uav[37] utilizationCountIdleState 46
scalar OsgEarthNet.uav[37] utilizationFail 0
scalar OsgEarthNet.uav[37] simulationTime 259200
scalar OsgEarthNet.uav[38] utilizationSecMission 41583.98086829
scalar OsgEarthNet.uav[38] utilizationSecMaintenance 18085.66628889
scalar OsgEarthNet.uav[38] utilizationSecCharge 197938.35084282
scalar OsgEarthNet.uav[38] utilizationSecIdle 1592.001
scalar OsgEarthNet.uav[38] utilizationEnergyMission 202468.29823303
scalar OsgEarthNet.uav[38] utilizationEnergyMaintenance 83203.17294693
scalar OsgEarthNet.uav[38] utilizationEnergyCharge 284151.80664062
scalar OsgEarthNet.uav[38] utilizationEnergyOverdrawMission 0
scalar OsgEarthNet.uav[38] utilizationEnergyOverdrawMaintenance 0
scalar OsgEarthNet.uav[38] utilizationCountMissions 62
scalar OsgEarthNet.uav[38] utilizationCountManeuversMission 1311
scalar OsgEarthNet.uav[38] utilizationCountManeuversMaintenance 124
scalar OsgEarthNet.uav[38] utilizationCountChargeState 62
scalar OsgEarthNet.uav[38] utilizationCountOverdrawnAfterMission 0
scalar OsgEarthNet.uav[38] utilizationCountIdleState 11
scalar OsgEarthNet.uav[38] utilizationFail 0
scalar OsgEarthNet.uav[38] simulationTime 259200
scalar OsgEarthNet.uav[39] utilizationSecMission 13544.266992983
scalar OsgEarthNet.uav[39] utilizationSecMaintenance 9943.3039327402
scalar OsgEarthNet.uav[39] utilizationSecCharge 85790.410074277
scalar OsgEarthNet.uav[39] utilizationSecIdle 149922.018
scalar OsgEarthNet.uav[39] utilizationEnergyMission 65911.444713593
scalar OsgEarthNet.uav[39] utilizationEnergyMaintenance 47194.01404953
scalar OsgEarthNet.uav[39] utilizationEnergyCharge 111017.16601562
scalar OsgEarthNet.uav[39] utilizationEnergyOverdrawMission 0
scalar OsgEarthNet.uav[39] utilizationEnergyOverdrawMaintenance 0
scalar OsgEarthNet.uav[39] utilizationCountMissions 25
scalar OsgEarthNet.uav[39] utilizationCountManeuversMission 512
scalar OsgEarthNet.uav[39] utilizationCountManeuversMaintenance 50
scalar OsgEarthNet.uav[39] utilizationCountChargeState 25
scalar OsgEarthNet.uav[39] utilizationCountOverdrawnAfterMission 0
scalar OsgEarthNet.uav[39] utilizationCountIdleState 25
scalar OsgEarthNet.uav[39] utilizationFail 0
scalar OsgEarthNet.uav[39] simulationTime 259200
scalar OsgEarthNet.uav[40] utilizationSecMission 16206.876678383
scalar OsgEarthNet.uav[40] utilizationSecMaintenance 9905.8208853004
scalar OsgEarthNet.uav[40] utilizationSecCharge 98590
scalar OsgEarthNet.uav[40] utilizationSecIdle 134497.30143632
scalar OsgEarthNet.uav[40] utilizationEnergyMission 80046.463756561
scalar OsgEarthNet.uav[40] utilizationEnergyMaintenance 47067.643783569
scalar OsgEarthNet.uav[40] utilizationEnergyCharge 127093.92626953
scalar OsgEarthNet.uav[40] utilizationEnergyOverdrawMission 0
scalar OsgEarthNet.uav[40] utilizationEnergyOverdrawMaintenance 0
scalar OsgEarthNet.uav[40] utilizationCountMissions 28
scalar OsgEarthNet.uav[40] utilizationCountManeuversMission 524
scalar OsgEarthNet.uav[40] utilizationCountManeuversMaintenance 56
scalar OsgEarthNet.uav[40] utilizationCountChargeState 28
scalar OsgEarthNet.uav[40] utilizationCountOverdrawnAfterMission 0
scalar OsgEarthNet.uav[40] utilizationCountIdleState 29
scalar OsgEarthNet.uav[40] utilizationFail 0
scalar OsgEarthNet.uav[40] simulationTime 259200
scalar OsgEarthNet.uav[41] utilizationSecMission 38556.823410904
scalar OsgEarthNet.uav[41] utilizationSecMaintenance 17551.162589096
scalar OsgEarthNet.uav[41] utilizationSecCharge 189520
scalar OsgEarthNet.uav[41] utilizationSecIdle 13572.013
scalar OsgEarthNet.uav[41] utilizationEnergyMission 186081.73891636
scalar OsgEarthNet.uav[41] utilizationEnergyMaintenance 82124.218818665
scalar OsgEarthNet.uav[41] utilizationEnergyCharge 267622.62548828
scalar OsgEarthNet.uav[41] utilizationEnergyOverdrawMission 0
scalar OsgEarthNet.uav[41] utilizationEnergyOverdrawMaintenance 0
scalar OsgEarthNet.uav[41] utilizationCountMissions 58
scalar OsgEarthNet.uav[41] utilizationCountManeuversMission 1185
scalar OsgEarthNet.uav[41] utilizationCountManeuversMaintenance 117
scalar OsgEarthNet.uav[41] utilizationCountChargeState 58
scalar OsgEarthNet.uav[41] utilizationCountOverdrawnAfterMission 0
scalar OsgEarthNet.uav[41] utilizationCountIdleState 12
scalar OsgEarthNet.uav[41] utilizationFail 0
scalar OsgEarthNet.uav[41] simulationTime 259200
scalar OsgEarthNet.uav[42] utilizationSecMission 42037.122116849
scalar OsgEarthNet.uav[42] utilizationSecMaintenance 16955.905160591
scalar OsgEarthNet.uav[42] utilizationSecCharge 198214.96972256
scalar OsgEarthNet.uav[42] utilizationSecIdle 1992.002
scalar OsgEarthNet.uav[42] utilizationEnergyMission 203592.49027252
scalar OsgEarthNet.uav[42] utilizationEnergyMaintenance 77165.850364685
scalar OsgEarthNet.uav[42] utilizationEnergyCharge 279529.25488281
scalar OsgEarthNet.uav[42] utilizationEnergyOverdrawMission 0
scalar OsgEarthNet.uav[42] utilizationEnergyOverdrawMaintenance 0
scalar OsgEarthNet.uav[42] utilizationCountMissions 61
scalar OsgEarthNet.uav[42] utilizationCountManeuversMission 1274
scalar OsgEarthNet.uav[42] utilizationCountManeuversMaintenance 122
scalar OsgEarthNet.uav[42] utilizationCountChargeState 61
scalar OsgEarthNet.uav[42] utilizationCountOverdrawnAfterMission 0
scalar OsgEarthNet.uav[42] utilizationCountIdleState 11
scalar OsgEarthNet.uav[42] utilizationFail 0
scalar OsgEarthNet.uav[42] simulationTime 259200
scalar OsgEarthNet.uav[43] utilizationSecMission 16297.868944793
scalar OsgEarthNet.uav[43] utilizationSecMaintenance 8760.1160552069
scalar OsgEarthNet.uav[43] utilizationSecCharge 91660
scalar OsgEarthNet.uav[43] utilizationSecIdle 142482.014
scalar OsgEarthNet.uav[43] utilizationEnergyMission 80437.049766541
scalar OsgEarthNet.uav[43] utilizationEnergyMaintenance 41749.681999968
scalar OsgEarthNet.uav[43] utilizationEnergyCharge 117979.78027344
scalar OsgEarthNet.uav[43] utilizationEnergyOverdrawMission 0
scalar OsgEarthNet.uav[43] utilizationEnergyOverdrawMaintenance 0
scalar OsgEarthNet.uav[43] utilizationCountMissions 27
scalar OsgEarthNet.uav[43] utilizationCountManeuversMission 481
scalar OsgEarthNet.uav[43] utilizationCountManeuversMaintenance 54
scalar OsgEarthNet.uav[43] utilizationCountChargeState 26
scalar OsgEarthNet.uav[43] utilizationCountOverdrawnAfterMission 0
scalar OsgEarthNet.uav[43] utilizationCountIdleState 27
scalar OsgEarthNet.uav[43] utilizationFail 0
scalar OsgEarthNet.uav[43] simulationTime 259200
scalar OsgEarthNet.uav[44] utilizationSecMission 22595.499107123
scalar OsgEarthNet.uav[44] utilizationSecMaintenance 15229.870407525
scalar OsgEarthNet.uav[44] utilizationSecCharge 145322.62948535
scalar OsgEarthNet.uav[44] utilizationSecIdle 76052
scalar OsgEarthNet.uav[44] utilizationEnergyMission 111040.64812851
scalar OsgEarthNet.uav[44] utilizationEnergyMaintenance 71883.08908844
scalar OsgEarthNet.uav[44] utilizationEnergyCharge 180054.46582031
scalar OsgEarthNet.uav[44] utilizationEnergyOverdrawMission 0
scalar OsgEarthNet.uav[44] utilizationEnergyOverdrawMaintenance 0
scalar OsgEarthNet.uav[44] utilizationCountMissions 46
scalar OsgEarthNet.uav[44] utilizationCountManeuversMission 720
scalar OsgEarthNet.uav[44] utilizationCountManeuversMaintenance 92
scalar OsgEarthNet.uav[44] utilizationCountChargeState 46
scalar OsgEarthNet.uav[44] utilizationCountOverdrawnAfterMission 0
scalar OsgEarthNet.uav[44] utilizationCountIdleState 46
scalar OsgEarthNet.uav[44] utilizationFail 0
scalar OsgEarthNet.uav[44] simulationTime 259200
scalar OsgEarthNet.uav[45] utilizationSecMission 41496.802407349
scalar OsgEarthNet.uav[45] utilizationSecMaintenance 17690.12122577
scalar OsgEarthNet.uav[45] utilizationSecCharge 196493.44428622
scalar OsgEarthNet.uav[45] utilizationSecIdle 3519.6310806652
scalar OsgEarthNet.uav[45] utilizationEnergyMission 198087.29603195
scalar OsgEarthNet.uav[45] utilizationEnergyMaintenance 81004.113765717
scalar OsgEarthNet.uav[45] utilizationEnergyCharge 278851.03710938
scalar OsgEarthNet.uav[45] utilizationEnergyOverdrawMission 0
scalar OsgEarthNet.uav[45] utilizationEnergyOverdrawMaintenance 0
scalar OsgEarthNet.uav[45] utilizationCountMissions 61
scalar OsgEarthNet.uav[45] utilizationCountManeuversMission 1203
scalar OsgEarthNet.uav[45] utilizationCountManeuversMaintenance 122
scalar OsgEarthNet.uav[45] utilizationCountChargeState 61
scalar OsgEarthNet.uav[45] utilizationCountOverdrawnAfterMission 0
scalar OsgEarthNet.uav[45] utilizationCountIdleState 11
scalar OsgEarthNet.uav[45] utilizationFail 0
scalar OsgEarthNet.uav[45] simulationTime 259200
scalar OsgEarthNet.uav[46] utilizationSecMission 14606.360600882
scalar OsgEarthNet.uav[46] utilizationSecMaintenance 8639.7410248095
scalar OsgEarthNet.uav[46] utilizationSecCharge 87700
scalar OsgEarthNet.uav[46] utilizationSecIdle 148253.89737431
scalar OsgEarthNet.uav[46] utilizationEnergyMission 71786.131374359
scalar OsgEarthNet.uav[46] utilizationEnergyMaintenance 40883.16683197
scalar OsgEarthNet.uav[46] utilizationEnergyCharge 112782.22998047
scalar OsgEarthNet.uav[46] utilizationEnergyOverdrawMission 0
scalar OsgEarthNet.uav[46] utilizationEnergyOverdrawMaintenance 0
scalar OsgEarthNet.uav[46] utilizationCountMissions 25
scalar OsgEarthNet.uav[46] utilizationCountManeuversMission 453
scalar OsgEarthNet.uav[46] utilizationCountManeuversMaintenance 50
scalar OsgEarthNet.uav[46] utilizationCountChargeState 25
scalar OsgEarthNet.uav[46] utilizationCountOverdrawnAfterMission 0
scalar OsgEarthNet.uav[46] utilizationCountIdleState 26
scalar OsgEarthNet.uav[46] utilizationFail 0
scalar OsgEarthNet.uav[46] simulationTime 259200
scalar OsgEarthNet.uav[47] utilizationSecMission 20466.655612612
scalar OsgEarthNet.uav[47] utilizationSecMaintenance 14373.803608233
scalar OsgEarthNet.uav[47] utilizationSecCharge 136510
scalar OsgEarthNet.uav[47] utilizationSecIdle 87849.539779155
scalar OsgEarthNet.uav[47] utilizationEnergyMission 99208.776371002
scalar OsgEarthNet.uav[47] utilizationEnergyMaintenance 67660.892288208
scalar OsgEarthNet.uav[47] utilizationEnergyCharge 168223.79760742
scalar OsgEarthNet.uav[47] utilizationEnergyOverdrawMission 0
scalar OsgEarthNet.uav[47] utilizationEnergyOverdrawMaintenance 0
scalar OsgEarthNet.uav[47] utilizationCountMissions 43
scalar OsgEarthNet.uav[47] utilizationCountManeuversMission 680
scalar OsgEarthNet.uav[47] utilizationCountManeuversMaintenance 86
scalar OsgEarthNet.uav[47] utilizationCountChargeState 43
scalar OsgEarthNet.uav[47] utilizationCountOverdrawnAfterMission 0
scalar OsgEarthNet.uav[47] utilizationCountIdleState 44
scalar OsgEarthNet.uav[47] utilizationFail 0
scalar OsgEarthNet.uav[47] simulationTime 259200
scalar OsgEarthNet.uav[48] utilizationSecMission 41934.463034502
scalar OsgEarthNet.uav[48] utilizationSecMaintenance 17865.899186802
scalar OsgEarthNet.uav[48] utilizationSecCharge 195617.6317787
scalar OsgEarthNet.uav[48] utilizationSecIdle 3782.005
scalar OsgEarthNet.uav[48] utilizationEnergyMission 202131.92263412
scalar OsgEarthNet.uav[48] utilizationEnergyMaintenance 82580.318664551
scalar OsgEarthNet.uav[48] utilizationEnergyCharge 281823.5213623
scalar OsgEarthNet.uav[48] utilizationEnergyOverdrawMission 0
scalar OsgEarthNet.uav[48] utilizationEnergyOverdrawMaintenance 0
scalar OsgEarthNet.uav[48] utilizationCountMissions 62
scalar OsgEarthNet.uav[48] utilizationCountManeuversMission 1198
scalar OsgEarthNet.uav[48] utilizationCountManeuversMaintenance 124
scalar OsgEarthNet.uav[48] utilizationCountChargeState 62
scalar OsgEarthNet.uav[48] utilizationCountOverdrawnAfterMission 0
scalar OsgEarthNet.uav[48] utilizationCountIdleState 9
scalar OsgEarthNet.uav[48] utilizationFail 0
scalar OsgEarthNet.uav[48] simulationTime 259200
scalar OsgEarthNet.uav[49] utilizationSecMission 14165.626373223
scalar OsgEarthNet.uav[49] utilizationSecMaintenance 9047.1569477994
scalar OsgEarthNet.uav[49] utilizationSecCharge 84120
scalar OsgEarthNet.uav[49] utilizationSecIdle 151867.21567898
scalar OsgEarthNet.uav[49] utilizationEnergyMission 68257.79088974
scalar OsgEarthNet.uav[49] utilizationEnergyMaintenance 42868.937894649
scalar OsgEarthNet.uav[49] utilizationEnergyCharge 108091.90185547
scalar OsgEarthNet.uav[49] utilizationEnergyOverdrawMission 0
scalar OsgEarthNet.uav[49] utilizationEnergyOverdrawMaintenance 0
scalar OsgEarthNet.uav[49] utilizationCountMissions 25
scalar OsgEarthNet.uav[49] utilizationCountManeuversMission 474
scalar OsgEarthNet.uav[49] utilizationCountManeuversMaintenance 50
scalar OsgEarthNet.uav[49] utilizationCountChargeState 24
scalar OsgEarthNet.uav[49] utilizationCountOverdrawnAfterMission 0
scalar OsgEarthNet.uav[49] utilizationCountIdleState 25
scalar OsgEarthNet.uav[49] utilizationFail 0
scalar OsgEarthNet.uav[49] simulationTime 259200
scalar OsgEarthNet.uav[50] utilizationSecMission 16465.001220642
scalar OsgEarthNet.uav[50] utilizationSecMaintenance 11573.452209682
scalar OsgEarthNet.uav[50] utilizationSecCharge 106110
scalar OsgEarthNet.uav[50] utilizationSecIdle 125051.54556968
scalar OsgEarthNet.uav[50] utilizationEnergyMission 82198.301647186
scalar OsgEarthNet.uav[50] utilizationEnergyMaintenance 55006.220752716
scalar OsgEarthNet.uav[50] utilizationEnergyCharge 136643.11962891
scalar OsgEarthNet.uav[50] utilizationEnergyOverdrawMission 0
scalar OsgEarthNet.uav[50] utilizationEnergyOverdrawMaintenance 0
scalar OsgEarthNet.uav[50] utilizationCountMissions 30
scalar OsgEarthNet.uav[50] utilizationCountManeuversMission 615
scalar OsgEarthNet.uav[50] utilizationCountManeuversMaintenance 60
scalar OsgEarthNet.uav[50] utilizationCountChargeState 30
scalar OsgEarthNet.uav[50] utilizationCountOverdrawnAfterMission 0
scalar OsgEarthNet.uav[50] utilizationCountIdleState 31
scalar OsgEarthNet.uav[50] utilizationFail 0
scalar OsgEarthNet.uav[50] simulationTime 259200
scalar OsgEarthNet.uav[51] utilizationSecMission 22510.940335012
scalar OsgEarthNet.uav[51] utilizationSecMaintenance 14636.681635679
scalar OsgEarthNet.uav[51] utilizationSecCharge 142888.6150418
scalar OsgEarthNet.uav[51] utilizationSecIdle 79163.761987508
scalar OsgEarthNet.uav[51] utilizationEnergyMission 109136.27085114
scalar OsgEarthNet.uav[51] utilizationEnergyMaintenance 69532.857124329
scalar OsgEarthNet.uav[51] utilizationEnergyCharge 178017.19799805
scalar OsgEarthNet.uav[51] utilizationEnergyOverdrawMission 0
scalar OsgEarthNet.uav[51] utilizationEnergyOverdrawMaintenance 0
scalar OsgEarthNet.uav[51] utilizationCountMissions 45
scalar OsgEarthNet.uav[51] utilizationCountManeuversMission 657
scalar OsgEarthNet.uav[51] utilizationCountManeuversMaintenance 90
scalar OsgEarthNet.uav[51] utilizationCountChargeState 45
scalar OsgEarthNet.uav[51] utilizationCountOverdrawnAfterMission 0
scalar OsgEarthNet.uav[51] utilizationCountIdleState 45
scalar OsgEarthNet.uav[51] utilizationFail 0
scalar OsgEarthNet.uav[51] simulationTime 259200
scalar OsgEarthNet.uav[52] utilizationSecMission 41577.852816828
scalar OsgEarthNet.uav[52] utilizationSecMaintenance 17735.401388705
scalar OsgEarthNet.uav[52] utilizationSecCharge 198377.56968406
scalar OsgEarthNet.uav[52] utilizationSecIdle 1509.1751104107
scalar OsgEarthNet.uav[52] utilizationEnergyMission 202712.80188751
scalar OsgEarthNet.uav[52] utilizationEnergyMaintenance 82144.818000793
scalar OsgEarthNet.uav[52] utilizationEnergyCharge 284436.18212891
scalar OsgEarthNet.uav[52] utilizationEnergyOverdrawMission 0
scalar OsgEarthNet.uav[52] utilizationEnergyOverdrawMaintenance 0
scalar OsgEarthNet.uav[52] utilizationCountMissions 62
scalar OsgEarthNet.uav[52] utilizationCountManeuversMission 1351
scalar OsgEarthNet.uav[52] utilizationCountManeuversMaintenance 124
scalar OsgEarthNet.uav[52] utilizationCountChargeState 62
scalar OsgEarthNet.uav[52] utilizationCountOverdrawnAfterMission 0
scalar OsgEarthNet.uav[52] utilizationCountIdleState 8
scalar OsgEarthNet.uav[52] utilizationFail 0
scalar OsgEarthNet.uav[52] simulationTime 259200
scalar OsgEarthNet.uav[53] utilizationSecMission 14196.509564553
scalar OsgEarthNet.uav[53] utilizationSecMaintenance 8249.8801728881
scalar OsgEarthNet.uav[53] utilizationSecCharge 84120
scalar OsgEarthNet.uav[53] utilizationSecIdle 152633.60926256
scalar OsgEarthNet.uav[53] utilizationEnergyMission 69456.132526398
scalar OsgEarthNet.uav[53] utilizationEnergyMaintenance 39502.956787109
scalar OsgEarthNet.uav[53] utilizationEnergyCharge 108144.77148438
scalar OsgEarthNet.uav[53] utilizationEnergyOverdrawMission 0
scalar OsgEarthNet.uav[53] utilizationEnergyOverdrawMaintenance 0
scalar OsgEarthNet.uav[53] utilizationCountMissions 24
scalar OsgEarthNet.uav[53] utilizationCountManeuversMission 445
scalar OsgEarthNet.uav[53] utilizationCountManeuversMaintenance 48
scalar OsgEarthNet.uav[53] utilizationCountChargeState 24
scalar OsgEarthNet.uav[53] utilizationCountOverdrawnAfterMission 0
scalar OsgEarthNet.uav[53] utilizationCountIdleState 25
scalar OsgEarthNet.uav[53] utilizationFail 0
scalar OsgEarthNet.uav[53] simulationTime 259200
scalar OsgEarthNet.uav[54] utilizationSecMission 21342.592111011
scalar OsgEarthNet.uav[54] utilizationSecMaintenance 14040.510715021
scalar OsgEarthNet.uav[54] utilizationSecCharge 134780
scalar OsgEarthNet.uav[54] utilizationSecIdle 89036.896173968
scalar OsgEarthNet.uav[54] utilizationEnergyMission 105244.20757294
scalar OsgEarthNet.uav[54] utilizationEnergyMaintenance 66028.179954529
scalar OsgEarthNet.uav[54] utilizationEnergyCharge 168823.77636719
scalar OsgEarthNet.uav[54] utilizationEnergyOverdrawMission 0
scalar OsgEarthNet.uav[54] utilizationEnergyOverdrawMaintenance 0
scalar OsgEarthNet.uav[54] utilizationCountMissions 41
scalar OsgEarthNet.uav[54] utilizationCountManeuversMission 740
scalar OsgEarthNet.uav[54] utilizationCountManeuversMaintenance 82
scalar OsgEarthNet.uav[54] utilizationCountChargeState 41
scalar OsgEarthNet.uav[54] utilizationCountOverdrawnAfterMission 0
scalar OsgEarthNet.uav[54] utilizationCountIdleState 42
scalar OsgEarthNet.uav[54] utilizationFail 0
scalar OsgEarthNet.uav[54] simulationTime 259200
scalar OsgEarthNet.uav[55] utilizationSecMission 40755.241084157
scalar OsgEarthNet.uav[55] utilizationSecMaintenance 18411.84462177
scalar OsgEarthNet.uav[55] utilizationSecCharge 199360.91329407
scalar OsgEarthNet.uav[55] utilizationSecIdle 672
scalar OsgEarthNet.uav[55] utilizationEnergyMission 200765.13822556
scalar OsgEarthNet.uav[55] utilizationEnergyMaintenance 85462.892475128
scalar OsgEarthNet.uav[55] utilizationEnergyCharge 284381.50634766
scalar OsgEarthNet.uav[55] utilizationEnergyOverdrawMission 0
scalar OsgEarthNet.uav[55] utilizationEnergyOverdrawMaintenance 0
scalar OsgEarthNet.uav[55] utilizationCountMissions 62
scalar OsgEarthNet.uav[55] utilizationCountManeuversMission 1324
scalar OsgEarthNet.uav[55] utilizationCountManeuversMaintenance 124
scalar OsgEarthNet.uav[55] utilizationCountChargeState 62
scalar OsgEarthNet.uav[55] utilizationCountOverdrawnAfterMission 0
scalar OsgEarthNet.uav[55] utilizationCountIdleState 9
scalar OsgEarthNet.uav[55] utilizationFail 0
scalar OsgEarthNet.uav[55] simulationTime 259200
scalar OsgEarthNet.uav[56] utilizationSecMission 15807.487392663
scalar OsgEarthNet.uav[56] utilizationSecMaintenance 8835.3625594457
scalar OsgEarthNet.uav[56] utilizationSecCharge 91520
scalar OsgEarthNet.uav[56] utilizationSecIdle 143037.14904789
scalar OsgEarthNet.uav[56] utilizationEnergyMission 76557.511317515
scalar OsgEarthNet.uav[56] utilizationEnergyMaintenance 41966.933994293
scalar OsgEarthNet.uav[56] utilizationEnergyCharge 117926.04003906
scalar OsgEarthNet.uav[56] utilizationEnergyOverdrawMission 0
scalar OsgEarthNet.uav[56] utilizationEnergyOverdrawMaintenance 0
scalar OsgEarthNet.uav[56] utilizationCountMissions 26
scalar OsgEarthNet.uav[56] utilizationCountManeuversMission 472
scalar OsgEarthNet.uav[56] utilizationCountManeuversMaintenance 53
scalar OsgEarthNet.uav[56] utilizationCountChargeState 26
scalar OsgEarthNet.uav[56] utilizationCountOverdrawnAfterMission 0
scalar OsgEarthNet.uav[56] utilizationCountIdleState 27
scalar OsgEarthNet.uav[56] utilizationFail 0
scalar OsgEarthNet.uav[56] simulationTime 259200
scalar OsgEarthNet.uav[57] utilizationSecMission 21972.05600511
scalar OsgEarthNet.uav[57] utilizationSecMaintenance 15077.131080892
scalar OsgEarthNet.uav[57] utilizationSecCharge 144219.84792832
scalar OsgEarthNet.uav[57] utilizationSecIdle 77930.963985674
scalar OsgEarthNet.uav[57] utilizationEnergyMission 104272.9695015
scalar OsgEarthNet.uav[57] utilizationEnergyMaintenance 71973.366729736
scalar OsgEarthNet.uav[57] utilizationEnergyCharge 176052.68334961
scalar OsgEarthNet.uav[57] utilizationEnergyOverdrawMission 0
scalar OsgEarthNet.uav[57] utilizationEnergyOverdrawMaintenance 0
scalar OsgEarthNet.uav[57] utilizationCountMissions 47
scalar OsgEarthNet.uav[57] utilizationCountManeuversMission 636
scalar OsgEarthNet.uav[57] utilizationCountManeuversMaintenance 94
scalar OsgEarthNet.uav[57] utilizationCountChargeState 47
scalar OsgEarthNet.uav[57] utilizationCountOverdrawnAfterMission 0
scalar OsgEarthNet.uav[57] utilizationCountIdleState 47
scalar OsgEarthNet.uav[57] utilizationFail 0
scalar OsgEarthNet.uav[57] simulationTime 259200
scalar OsgEarthNet.uav[58] utilizationSecMission 41610.470515268
scalar OsgEarthNet.uav[58] utilizationSecMaintenance 17297.366992249
scalar OsgEarthNet.uav[58] utilizationSecCharge 195580.15549248
scalar OsgEarthNet.uav[58] utilizationSecIdle 4712.006
scalar OsgEarthNet.uav[58] utilizationEnergyMission 196621.9646492
scalar OsgEarthNet.uav[58] utilizationEnergyMaintenance 79444.689525604
scalar OsgEarthNet.uav[58] utilizationEnergyCharge 277989.02783203
scalar OsgEarthNet.uav[58] utilizationEnergyOverdrawMission 0
scalar OsgEarthNet.uav[58] utilizationEnergyOverdrawMaintenance 0
scalar OsgEarthNet.uav[58] utilizationCountMissions 61
scalar OsgEarthNet.uav[58] utilizationCountManeuversMission 1235
scalar OsgEarthNet.uav[58] utilizationCountManeuversMaintenance 122
scalar OsgEarthNet.uav[58] utilizationCountChargeState 61
scalar OsgEarthNet.uav[58] utilizationCountOverdrawnAfterMission 0
scalar OsgEarthNet.uav[58] utilizationCountIdleState 11
scalar OsgEarthNet.uav[58] utilizationFail 0
scalar OsgEarthNet.uav[58] simulationTime 259200
scalar OsgEarthNet.uav[59] utilizationSecMission 16828.126983544
scalar OsgEarthNet.uav[59] utilizationSecMaintenance 9484.6971738428
scalar OsgEarthNet.uav[59] utilizationSecCharge 98030
scalar OsgEarthNet.uav[59] utilizationSecIdle 134857.17484261
scalar OsgEarthNet.uav[59] utilizationEnergyMission 81038.249637604
scalar OsgEarthNet.uav[59] utilizationEnergyMaintenance 44648.845474243
scalar OsgEarthNet.uav[59] utilizationEnergyCharge 125863.77246094
scalar OsgEarthNet.uav[59] utilizationEnergyOverdrawMission 0
scalar OsgEarthNet.uav[59] utilizationEnergyOverdrawMaintenance 0
scalar OsgEarthNet.uav[59] utilizationCountMissions 28
scalar OsgEarthNet.uav[59] utilizationCountManeuversMission 503
scalar OsgEarthNet.uav[59] utilizationCountManeuversMaintenance 56
scalar OsgEarthNet.uav[59] utilizationCountChargeState 28
scalar OsgEarthNet.uav[59] utilizationCountOverdrawnAfterMission 0
scalar OsgEarthNet.uav[59] utilizationCountIdleState 29
scalar OsgEarthNet.uav[59] utilizationFail 0
scalar OsgEarthNet.uav[59] simulationTime 259200
scalar OsgEarthNet.uav[60] utilizationSecMission 16035.259259393
scalar OsgEarthNet.uav[60] utilizationSecMaintenance 11092.897162532
scalar OsgEarthNet.uav[60] utilizationSecCharge 98929.840578075
scalar OsgEarthNet.uav[60] utilizationSecIdle 133142.002
scalar OsgEarthNet.uav[60] utilizationEnergyMission 77538.834033966
scalar OsgEarthNet.uav[60] utilizationEnergyMaintenance 52932.486610412
scalar OsgEarthNet.uav[60] utilizationEnergyCharge 127794.8215332
scalar OsgEarthNet.uav[60] utilizationEnergyOverdrawMission 0
scalar OsgEarthNet.uav[60] utilizationEnergyOverdrawMaintenance 0
scalar OsgEarthNet.uav[60] utilizationCountMissions 29
scalar OsgEarthNet.uav[60] utilizationCountManeuversMission 589
scalar OsgEarthNet.uav[60] utilizationCountManeuversMaintenance 58
scalar OsgEarthNet.uav[60] utilizationCountChargeState 29
scalar OsgEarthNet.uav[60] utilizationCountOverdrawnAfterMission 0
scalar OsgEarthNet.uav[60] utilizationCountIdleState 29
scalar OsgEarthNet.uav[60] utilizationFail 0
scalar OsgEarthNet.uav[60] simulationTime 259200
scalar OsgEarthNet.uav[61] utilizationSecMission 22068.704349264
scalar OsgEarthNet.uav[61] utilizationSecMaintenance 14699.289650736
scalar OsgEarthNet.uav[61] utilizationSecCharge 140050
scalar OsgEarthNet.uav[61] utilizationSecIdle 82382.005
scalar OsgEarthNet.uav[61] utilizationEnergyMission 108235.97746362
scalar OsgEarthNet.uav[61] utilizationEnergyMaintenance 69523.581962585
scalar OsgEarthNet.uav[61] utilizationEnergyCharge 176133.11889648
scalar OsgEarthNet.uav[61] utilizationEnergyOverdrawMission 0
scalar OsgEarthNet.uav[61] utilizationEnergyOverdrawMaintenance 0
scalar OsgEarthNet.uav[61] utilizationCountMissions 42
scalar OsgEarthNet.uav[61] utilizationCountManeuversMission 784
scalar OsgEarthNet.uav[61] utilizationCountManeuversMaintenance 85
scalar OsgEarthNet.uav[61] utilizationCountChargeState 42
scalar OsgEarthNet.uav[61] utilizationCountOverdrawnAfterMission 0
scalar OsgEarthNet.uav[61] utilizationCountIdleState 43
scalar OsgEarthNet.uav[61] utilizationFail 0
scalar OsgEarthNet.uav[61] simulationTime 259200
scalar OsgEarthNet.uav[62] utilizationSecMission 40170.620195986
scalar OsgEarthNet.uav[62] utilizationSecMaintenance 18544.220229169
scalar OsgEarthNet.uav[62] utilizationSecCharge 197783.15557484
scalar OsgEarthNet.uav[62] utilizationSecIdle 2702.003
scalar OsgEarthNet.uav[62] utilizationEnergyMission 196868.36893082
scalar OsgEarthNet.uav[62] utilizationEnergyMaintenance 86621.773445129
scalar OsgEarthNet.uav[62] utilizationEnergyCharge 280315.48168945
scalar OsgEarthNet.uav[62] utilizationEnergyOverdrawMission 0
scalar OsgEarthNet.uav[62] utilizationEnergyOverdrawMaintenance 0
scalar OsgEarthNet.uav[62] utilizationCountMissions 62
scalar OsgEarthNet.uav[62] utilizationCountManeuversMission 1378
scalar OsgEarthNet.uav[62] utilizationCountManeuversMaintenance 124
scalar OsgEarthNet.uav[62] utilizationCountChargeState 62
scalar OsgEarthNet.uav[62] utilizationCountOverdrawnAfterMission 0
scalar OsgEarthNet.uav[62] utilizationCountIdleState 7
scalar OsgEarthNet.uav[62] utilizationFail 0
scalar OsgEarthNet.uav[62] simulationTime 259200
scalar OsgEarthNet.uav[63] utilizationSecMission 14893.199224594
scalar OsgEarthNet.uav[63] utilizationSecMaintenance 8083.547453827
scalar OsgEarthNet.uav[63] utilizationSecCharge 84420
scalar OsgEarthNet.uav[63] utilizationSecIdle 151803.25232158
scalar OsgEarthNet.uav[63] utilizationEnergyMission 71404.505465435
scalar OsgEarthNet.uav[63] utilizationEnergyMaintenance 38400.328277588
scalar OsgEarthNet.uav[63] utilizationEnergyCharge 108825.91748047
scalar OsgEarthNet.uav[63] utilizationEnergyOverdrawMission 0
scalar OsgEarthNet.uav[63] utilizationEnergyOverdrawMaintenance 0
scalar OsgEarthNet.uav[63] utilizationCountMissions 24
scalar OsgEarthNet.uav[63] utilizationCountManeuversMission 431
scalar OsgEarthNet.uav[63] utilizationCountManeuversMaintenance 49
scalar OsgEarthNet.uav[63] utilizationCountChargeState 24
scalar OsgEarthNet.uav[63] utilizationCountOverdrawnAfterMission 0
scalar OsgEarthNet.uav[63] utilizationCountIdleState 25
scalar OsgEarthNet.uav[63] utilizationFail 0
scalar OsgEarthNet.uav[63] simulationTime 259200
scalar OsgEarthNet.uav[64] utilizationSecMission 21154.369016088
scalar OsgEarthNet.uav[64] utilizationSecMaintenance 16112.825673931
scalar OsgEarthNet.uav[64] utilizationSecCharge 147331.74651479
scalar OsgEarthNet.uav[64] utilizationSecIdle 74601.057795193
scalar OsgEarthNet.uav[64] utilizationEnergyMission 104943.49394226
scalar OsgEarthNet.uav[64] utilizationEnergyMaintenance 77371.260601044
scalar OsgEarthNet.uav[64] utilizationEnergyCharge 180488.11230469
scalar OsgEarthNet.uav[64] utilizationEnergyOverdrawMission 0
scalar OsgEarthNet.uav[64] utilizationEnergyOverdrawMaintenance 0
scalar OsgEarthNet.uav[64] utilizationCountMissions 48
scalar OsgEarthNet.uav[64] utilizationCountManeuversMission 728
scalar OsgEarthNet.uav[64] utilizationCountManeuversMaintenance 96
scalar OsgEarthNet.uav[64] utilizationCountChargeState 48
scalar OsgEarthNet.uav[64] utilizationCountOverdrawnAfterMission 0
scalar OsgEarthNet.uav[64] utilizationCountIdleState 48
scalar OsgEarthNet.uav[64] utilizationFail 0
scalar OsgEarthNet.uav[64] simulationTime 259200
scalar OsgEarthNet.uav[65] utilizationSecMission 41460.946285373
scalar OsgEarthNet.uav[65] utilizationSecMaintenance 17429.010167212
scalar OsgEarthNet.uav[65] utilizationSecCharge 196000
scalar OsgEarthNet.uav[65] utilizationSecIdle 4310.0425474148
scalar OsgEarthNet.uav[65] utilizationEnergyMission 196937.72298202
[...]
scalar OsgEarthNet.uav[79] utilizationCountMissions 31
scalar OsgEarthNet.uav[79] utilizationCountManeuversMission 557
scalar OsgEarthNet.uav[79] utilizationCountManeuversMaintenance 62
scalar OsgEarthNet.uav[79] utilizationCountChargeState 31
scalar OsgEarthNet.uav[79] utilizationCountOverdrawnAfterMission 0
scalar OsgEarthNet.uav[79] utilizationCountIdleState 31
scalar OsgEarthNet.uav[79] utilizationFail 0
scalar OsgEarthNet.uav[79] simulationTime 259200
scalar OsgEarthNet.uav[80] utilizationSecMission 14665.626373223
scalar OsgEarthNet.uav[80] utilizationSecMaintenance 9694.1831089657
scalar OsgEarthNet.uav[80] utilizationSecCharge 91640
scalar OsgEarthNet.uav[80] utilizationSecIdle 143200.18951781
scalar OsgEarthNet.uav[80] utilizationEnergyMission 71173.859306335
scalar OsgEarthNet.uav[80] utilizationEnergyMaintenance 46669.071098328
scalar OsgEarthNet.uav[80] utilizationEnergyCharge 117976.74023438
scalar OsgEarthNet.uav[80] utilizationEnergyOverdrawMission 0
scalar OsgEarthNet.uav[80] utilizationEnergyOverdrawMaintenance 0
scalar OsgEarthNet.uav[80] utilizationCountMissions 26
scalar OsgEarthNet.uav[80] utilizationCountManeuversMission 499
scalar OsgEarthNet.uav[80] utilizationCountManeuversMaintenance 52
scalar OsgEarthNet.uav[80] utilizationCountChargeState 26
scalar OsgEarthNet.uav[80] utilizationCountOverdrawnAfterMission 0
scalar OsgEarthNet.uav[80] utilizationCountIdleState 27
scalar OsgEarthNet.uav[80] utilizationFail 0
scalar OsgEarthNet.uav[80] simulationTime 259200
scalar OsgEarthNet.uav[81] utilizationSecMission 22383.914580971
scalar OsgEarthNet.uav[81] utilizationSecMaintenance 16504.729305077
scalar OsgEarthNet.uav[81] utilizationSecCharge 154049.35211395
scalar OsgEarthNet.uav[81] utilizationSecIdle 66262.003
scalar OsgEarthNet.uav[81] utilizationEnergyMission 109357.4454422
scalar OsgEarthNet.uav[81] utilizationEnergyMaintenance 78853.487560272
scalar OsgEarthNet.uav[81] utilizationEnergyCharge 189076.62597656
scalar OsgEarthNet.uav[81] utilizationEnergyOverdrawMission 0
scalar OsgEarthNet.uav[81] utilizationEnergyOverdrawMaintenance 0
scalar OsgEarthNet.uav[81] utilizationCountMissions 49
scalar OsgEarthNet.uav[81] utilizationCountManeuversMission 775
scalar OsgEarthNet.uav[81] utilizationCountManeuversMaintenance 98
scalar OsgEarthNet.uav[81] utilizationCountChargeState 49
scalar OsgEarthNet.uav[81] utilizationCountOverdrawnAfterMission 0
scalar OsgEarthNet.uav[81] utilizationCountIdleState 49
scalar OsgEarthNet.uav[81] utilizationFail 0
scalar OsgEarthNet.uav[81] simulationTime 259200
scalar OsgEarthNet.uav[82] utilizationSecMission 41086.275890438
scalar OsgEarthNet.uav[82] utilizationSecMaintenance 18562.304732222
scalar OsgEarthNet.uav[82] utilizationSecCharge 196179.41437734
scalar OsgEarthNet.uav[82] utilizationSecIdle 3372.004
scalar OsgEarthNet.uav[82] utilizationEnergyMission 199540.21377182
scalar OsgEarthNet.uav[82] utilizationEnergyMaintenance 86960.232395172
scalar OsgEarthNet.uav[82] utilizationEnergyCharge 281011.53289795
scalar OsgEarthNet.uav[82] utilizationEnergyOverdrawMission 0
scalar OsgEarthNet.uav[82] utilizationEnergyOverdrawMaintenance 0
scalar OsgEarthNet.uav[82] utilizationCountMissions 62
scalar OsgEarthNet.uav[82] utilizationCountManeuversMission 1274
scalar OsgEarthNet.uav[82] utilizationCountManeuversMaintenance 124
scalar OsgEarthNet.uav[82] utilizationCountChargeState 62
scalar OsgEarthNet.uav[82] utilizationCountOverdrawnAfterMission 0
scalar OsgEarthNet.uav[82] utilizationCountIdleState 7
scalar OsgEarthNet.uav[82] utilizationFail 0
scalar OsgEarthNet.uav[82] simulationTime 259200
scalar OsgEarthNet.uav[83] utilizationSecMission 17095.884411973
scalar OsgEarthNet.uav[83] utilizationSecMaintenance 11733.546420061
scalar OsgEarthNet.uav[83] utilizationSecCharge 107436.54988105
scalar OsgEarthNet.uav[83] utilizationSecIdle 122934.01828692
scalar OsgEarthNet.uav[83] utilizationEnergyMission 83746.43838501
scalar OsgEarthNet.uav[83] utilizationEnergyMaintenance 55705.881835937
scalar OsgEarthNet.uav[83] utilizationEnergyCharge 139375.31420898
scalar OsgEarthNet.uav[83] utilizationEnergyOverdrawMission 0
scalar OsgEarthNet.uav[83] utilizationEnergyOverdrawMaintenance 0
scalar OsgEarthNet.uav[83] utilizationCountMissions 31
scalar OsgEarthNet.uav[83] utilizationCountManeuversMission 616
scalar OsgEarthNet.uav[83] utilizationCountManeuversMaintenance 62
scalar OsgEarthNet.uav[83] utilizationCountChargeState 31
scalar OsgEarthNet.uav[83] utilizationCountOverdrawnAfterMission 0
scalar OsgEarthNet.uav[83] utilizationCountIdleState 31
scalar OsgEarthNet.uav[83] utilizationFail 0
scalar OsgEarthNet.uav[83] simulationTime 259200
scalar OsgEarthNet.uav[84] utilizationSecMission 21712.344475756
scalar OsgEarthNet.uav[84] utilizationSecMaintenance 14498.940636073
scalar OsgEarthNet.uav[84] utilizationSecCharge 139090
scalar OsgEarthNet.uav[84] utilizationSecIdle 83898.713888171
scalar OsgEarthNet.uav[84] utilizationEnergyMission 105735.28952789
scalar OsgEarthNet.uav[84] utilizationEnergyMaintenance 68798.536117554
scalar OsgEarthNet.uav[84] utilizationEnergyCharge 172665.36694336
scalar OsgEarthNet.uav[84] utilizationEnergyOverdrawMission 0
scalar OsgEarthNet.uav[84] utilizationEnergyOverdrawMaintenance 0
scalar OsgEarthNet.uav[84] utilizationCountMissions 43
scalar OsgEarthNet.uav[84] utilizationCountManeuversMission 721
scalar OsgEarthNet.uav[84] utilizationCountManeuversMaintenance 86
scalar OsgEarthNet.uav[84] utilizationCountChargeState 43
scalar OsgEarthNet.uav[84] utilizationCountOverdrawnAfterMission 0
scalar OsgEarthNet.uav[84] utilizationCountIdleState 44
scalar OsgEarthNet.uav[84] utilizationFail 0
scalar OsgEarthNet.uav[84] simulationTime 259200
scalar OsgEarthNet.uav[85] utilizationSecMission 42215.529942619
scalar OsgEarthNet.uav[85] utilizationSecMaintenance 17206.248310754
scalar OsgEarthNet.uav[85] utilizationSecCharge 199026.22074663
scalar OsgEarthNet.uav[85] utilizationSecIdle 752
scalar OsgEarthNet.uav[85] utilizationEnergyMission 204677.96288871
scalar OsgEarthNet.uav[85] utilizationEnergyMaintenance 78619.20684433
scalar OsgEarthNet.uav[85] utilizationEnergyCharge 282039.26074219
scalar OsgEarthNet.uav[85] utilizationEnergyOverdrawMission 0
scalar OsgEarthNet.uav[85] utilizationEnergyOverdrawMaintenance 0
scalar OsgEarthNet.uav[85] utilizationCountMissions 61
scalar OsgEarthNet.uav[85] utilizationCountManeuversMission 1228
scalar OsgEarthNet.uav[85] utilizationCountManeuversMaintenance 121
scalar OsgEarthNet.uav[85] utilizationCountChargeState 61
scalar OsgEarthNet.uav[85] utilizationCountOverdrawnAfterMission 0
scalar OsgEarthNet.uav[85] utilizationCountIdleState 8
scalar OsgEarthNet.uav[85] utilizationFail 0
scalar OsgEarthNet.uav[85] simulationTime 259200
scalar OsgEarthNet.uav[86] utilizationSecMission 14305.001220642
scalar OsgEarthNet.uav[86] utilizationSecMaintenance 9871.0926242523
scalar OsgEarthNet.uav[86] utilizationSecCharge 91750
scalar OsgEarthNet.uav[86] utilizationSecIdle 143273.90515511
scalar OsgEarthNet.uav[86] utilizationEnergyMission 70487.156993866
scalar OsgEarthNet.uav[86] utilizationEnergyMaintenance 46932.140598297
scalar OsgEarthNet.uav[86] utilizationEnergyCharge 118303.60644531
scalar OsgEarthNet.uav[86] utilizationEnergyOverdrawMission 0
scalar OsgEarthNet.uav[86] utilizationEnergyOverdrawMaintenance 0
scalar OsgEarthNet.uav[86] utilizationCountMissions 26
scalar OsgEarthNet.uav[86] utilizationCountManeuversMission 507
scalar OsgEarthNet.uav[86] utilizationCountManeuversMaintenance 52
scalar OsgEarthNet.uav[86] utilizationCountChargeState 26
scalar OsgEarthNet.uav[86] utilizationCountOverdrawnAfterMission 0
scalar OsgEarthNet.uav[86] utilizationCountIdleState 27
scalar OsgEarthNet.uav[86] utilizationFail 0
scalar OsgEarthNet.uav[86] simulationTime 259200
scalar OsgEarthNet.uav[87] utilizationSecMission 23619.355808861
scalar OsgEarthNet.uav[87] utilizationSecMaintenance 16692.808401987
scalar OsgEarthNet.uav[87] utilizationSecCharge 158205.83378915
scalar OsgEarthNet.uav[87] utilizationSecIdle 60682.001
scalar OsgEarthNet.uav[87] utilizationEnergyMission 114867.99504089
scalar OsgEarthNet.uav[87] utilizationEnergyMaintenance 78943.410240173
scalar OsgEarthNet.uav[87] utilizationEnergyCharge 194963.10327148
scalar OsgEarthNet.uav[87] utilizationEnergyOverdrawMission 0
scalar OsgEarthNet.uav[87] utilizationEnergyOverdrawMaintenance 0
scalar OsgEarthNet.uav[87] utilizationCountMissions 50
scalar OsgEarthNet.uav[87] utilizationCountManeuversMission 778
scalar OsgEarthNet.uav[87] utilizationCountManeuversMaintenance 100
scalar OsgEarthNet.uav[87] utilizationCountChargeState 50
scalar OsgEarthNet.uav[87] utilizationCountOverdrawnAfterMission 0
scalar OsgEarthNet.uav[87] utilizationCountIdleState 50
scalar OsgEarthNet.uav[87] utilizationFail 0
scalar OsgEarthNet.uav[87] simulationTime 259200
scalar OsgEarthNet.uav[88] utilizationSecMission 41924.7464902
scalar OsgEarthNet.uav[88] utilizationSecMaintenance 17402.430068898
scalar OsgEarthNet.uav[88] utilizationSecCharge 196666.11707836
scalar OsgEarthNet.uav[88] utilizationSecIdle 3206.705362542
scalar OsgEarthNet.uav[88] utilizationEnergyMission 200208.06141281
scalar OsgEarthNet.uav[88] utilizationEnergyMaintenance 79551.870399475
scalar OsgEarthNet.uav[88] utilizationEnergyCharge 280430.15820312
scalar OsgEarthNet.uav[88] utilizationEnergyOverdrawMission 0
scalar OsgEarthNet.uav[88] utilizationEnergyOverdrawMaintenance 0
scalar OsgEarthNet.uav[88] utilizationCountMissions 61
scalar OsgEarthNet.uav[88] utilizationCountManeuversMission 1221
scalar OsgEarthNet.uav[88] utilizationCountManeuversMaintenance 122
scalar OsgEarthNet.uav[88] utilizationCountChargeState 61
scalar OsgEarthNet.uav[88] utilizationCountOverdrawnAfterMission 0
scalar OsgEarthNet.uav[88] utilizationCountIdleState 12
scalar OsgEarthNet.uav[88] utilizationFail 0
scalar OsgEarthNet.uav[88] simulationTime 259200
scalar OsgEarthNet.uav[89] utilizationSecMission 15235.368334472
scalar OsgEarthNet.uav[89] utilizationSecMaintenance 10010.003512178
scalar OsgEarthNet.uav[89] utilizationSecCharge 93896.22580107
scalar OsgEarthNet.uav[89] utilizationSecIdle 140058.40135228
scalar OsgEarthNet.uav[89] utilizationEnergyMission 77054.040267944
scalar OsgEarthNet.uav[89] utilizationEnergyMaintenance 47321.308120727
scalar OsgEarthNet.uav[89] utilizationEnergyCharge 122153.08984375
scalar OsgEarthNet.uav[89] utilizationEnergyOverdrawMission 0
scalar OsgEarthNet.uav[89] utilizationEnergyOverdrawMaintenance 0
scalar OsgEarthNet.uav[89] utilizationCountMissions 27
scalar OsgEarthNet.uav[89] utilizationCountManeuversMission 532
scalar OsgEarthNet.uav[89] utilizationCountManeuversMaintenance 54
scalar OsgEarthNet.uav[89] utilizationCountChargeState 27
scalar OsgEarthNet.uav[89] utilizationCountOverdrawnAfterMission 0
scalar OsgEarthNet.uav[89] utilizationCountIdleState 27
scalar OsgEarthNet.uav[89] utilizationFail 0
scalar OsgEarthNet.uav[89] simulationTime 259200
scalar OsgEarthNet.uav[90] utilizationSecMission 16176.509564553
scalar OsgEarthNet.uav[90] utilizationSecMaintenance 10214.341724225
scalar OsgEarthNet.uav[90] utilizationSecCharge 97417.135711222
scalar OsgEarthNet.uav[90] utilizationSecIdle 135392.012
scalar OsgEarthNet.uav[90] utilizationEnergyMission 78574.109443665
scalar OsgEarthNet.uav[90] utilizationEnergyMaintenance 48134.885513306
scalar OsgEarthNet.uav[90] utilizationEnergyCharge 126653.62011719
scalar OsgEarthNet.uav[90] utilizationEnergyOverdrawMission 0
scalar OsgEarthNet.uav[90] utilizationEnergyOverdrawMaintenance 0
scalar OsgEarthNet.uav[90] utilizationCountMissions 28
scalar OsgEarthNet.uav[90] utilizationCountManeuversMission 544
scalar OsgEarthNet.uav[90] utilizationCountManeuversMaintenance 56
scalar OsgEarthNet.uav[90] utilizationCountChargeState 28
scalar OsgEarthNet.uav[90] utilizationCountOverdrawnAfterMission 0
scalar OsgEarthNet.uav[90] utilizationCountIdleState 28
scalar OsgEarthNet.uav[90] utilizationFail 0
scalar OsgEarthNet.uav[90] simulationTime 259200
scalar OsgEarthNet.uav[91] utilizationSecMission 22600.057879233
scalar OsgEarthNet.uav[91] utilizationSecMaintenance 16228.254866562
scalar OsgEarthNet.uav[91] utilizationSecCharge 148429.67825421
scalar OsgEarthNet.uav[91] utilizationSecIdle 71942.008
scalar OsgEarthNet.uav[91] utilizationEnergyMission 110011.66834259
scalar OsgEarthNet.uav[91] utilizationEnergyMaintenance 76576.908477783
scalar OsgEarthNet.uav[91] utilizationEnergyCharge 182266.25476074
scalar OsgEarthNet.uav[91] utilizationEnergyOverdrawMission 0
scalar OsgEarthNet.uav[91] utilizationEnergyOverdrawMaintenance 0
scalar OsgEarthNet.uav[91] utilizationCountMissions 48
scalar OsgEarthNet.uav[91] utilizationCountManeuversMission 779
scalar OsgEarthNet.uav[91] utilizationCountManeuversMaintenance 96
scalar OsgEarthNet.uav[91] utilizationCountChargeState 48
scalar OsgEarthNet.uav[91] utilizationCountOverdrawnAfterMission 0
scalar OsgEarthNet.uav[91] utilizationCountIdleState 48
scalar OsgEarthNet.uav[91] utilizationFail 0
scalar OsgEarthNet.uav[91] simulationTime 259200
scalar OsgEarthNet.uav[92] utilizationSecMission 41943.271324399
scalar OsgEarthNet.uav[92] utilizationSecMaintenance 17757.508061685
scalar OsgEarthNet.uav[92] utilizationSecCharge 197350
scalar OsgEarthNet.uav[92] utilizationSecIdle 2149.2196139157
scalar OsgEarthNet.uav[92] utilizationEnergyMission 201825.00098167
scalar OsgEarthNet.uav[92] utilizationEnergyMaintenance 82370.190944672
scalar OsgEarthNet.uav[92] utilizationEnergyCharge 280057.69628906
scalar OsgEarthNet.uav[92] utilizationEnergyOverdrawMission 0
scalar OsgEarthNet.uav[92] utilizationEnergyOverdrawMaintenance 0
scalar OsgEarthNet.uav[92] utilizationCountMissions 61
scalar OsgEarthNet.uav[92] utilizationCountManeuversMission 1204
scalar OsgEarthNet.uav[92] utilizationCountManeuversMaintenance 123
scalar OsgEarthNet.uav[92] utilizationCountChargeState 61
scalar OsgEarthNet.uav[92] utilizationCountOverdrawnAfterMission 0
scalar OsgEarthNet.uav[92] utilizationCountIdleState 10
scalar OsgEarthNet.uav[92] utilizationFail 0
scalar OsgEarthNet.uav[92] simulationTime 259200
scalar OsgEarthNet.uav[93] utilizationSecMission 14355.884411973
scalar OsgEarthNet.uav[93] utilizationSecMaintenance 9038.9247384201
scalar OsgEarthNet.uav[93] utilizationSecCharge 87093.173849607
scalar OsgEarthNet.uav[93] utilizationSecIdle 148712.016
scalar OsgEarthNet.uav[93] utilizationEnergyMission 70316.854824066
scalar OsgEarthNet.uav[93] utilizationEnergyMaintenance 42949.651439667
scalar OsgEarthNet.uav[93] utilizationEnergyCharge 113302.56640625
scalar OsgEarthNet.uav[93] utilizationEnergyOverdrawMission 0
scalar OsgEarthNet.uav[93] utilizationEnergyOverdrawMaintenance 0
scalar OsgEarthNet.uav[93] utilizationCountMissions 25
scalar OsgEarthNet.uav[93] utilizationCountManeuversMission 479
scalar OsgEarthNet.uav[93] utilizationCountManeuversMaintenance 50
scalar OsgEarthNet.uav[93] utilizationCountChargeState 25
scalar OsgEarthNet.uav[93] utilizationCountOverdrawnAfterMission 0
scalar OsgEarthNet.uav[93] utilizationCountIdleState 25
scalar OsgEarthNet.uav[93] utilizationFail 0
scalar OsgEarthNet.uav[93] simulationTime 259200
scalar OsgEarthNet.uav[94] utilizationSecMission 23731.642405384
scalar OsgEarthNet.uav[94] utilizationSecMaintenance 15744.371672975
scalar OsgEarthNet.uav[94] utilizationSecCharge 149691.97492164
scalar OsgEarthNet.uav[94] utilizationSecIdle 70032.01
scalar OsgEarthNet.uav[94] utilizationEnergyMission 114027.57897568
scalar OsgEarthNet.uav[94] utilizationEnergyMaintenance 75312.151752472
scalar OsgEarthNet.uav[94] utilizationEnergyCharge 186521.59118652
scalar OsgEarthNet.uav[94] utilizationEnergyOverdrawMission 0
scalar OsgEarthNet.uav[94] utilizationEnergyOverdrawMaintenance 0
scalar OsgEarthNet.uav[94] utilizationCountMissions 47
scalar OsgEarthNet.uav[94] utilizationCountManeuversMission 770
scalar OsgEarthNet.uav[94] utilizationCountManeuversMaintenance 94
scalar OsgEarthNet.uav[94] utilizationCountChargeState 47
scalar OsgEarthNet.uav[94] utilizationCountOverdrawnAfterMission 0
scalar OsgEarthNet.uav[94] utilizationCountIdleState 47
scalar OsgEarthNet.uav[94] utilizationFail 0
scalar OsgEarthNet.uav[94] simulationTime 259200
scalar OsgEarthNet.uav[95] utilizationSecMission 41835.771983108
scalar OsgEarthNet.uav[95] utilizationSecMaintenance 17573.980246
scalar OsgEarthNet.uav[95] utilizationSecCharge 197540.8214236
scalar OsgEarthNet.uav[95] utilizationSecIdle 2249.4253472904
scalar OsgEarthNet.uav[95] utilizationEnergyMission 199792.37331772
scalar OsgEarthNet.uav[95] utilizationEnergyMaintenance 81584.263080597
scalar OsgEarthNet.uav[95] utilizationEnergyCharge 280797.21044922
scalar OsgEarthNet.uav[95] utilizationEnergyOverdrawMission 0
scalar OsgEarthNet.uav[95] utilizationEnergyOverdrawMaintenance 0
scalar OsgEarthNet.uav[95] utilizationCountMissions 61
scalar OsgEarthNet.uav[95] utilizationCountManeuversMission 1152
scalar OsgEarthNet.uav[95] utilizationCountManeuversMaintenance 122
scalar OsgEarthNet.uav[95] utilizationCountChargeState 61
scalar OsgEarthNet.uav[95] utilizationCountOverdrawnAfterMission 0
scalar OsgEarthNet.uav[95] utilizationCountIdleState 9
scalar OsgEarthNet.uav[95] utilizationFail 0
scalar OsgEarthNet.uav[95] simulationTime 259200
scalar OsgEarthNet.uav[96] utilizationSecMission 17661.029349065
scalar OsgEarthNet.uav[96] utilizationSecMaintenance 11438.306452295
scalar OsgEarthNet.uav[96] utilizationSecCharge 108448.66319864
scalar OsgEarthNet.uav[96] utilizationSecIdle 121652
scalar OsgEarthNet.uav[96] utilizationEnergyMission 86152.198867798
scalar OsgEarthNet.uav[96] utilizationEnergyMaintenance 54386.018390655
scalar OsgEarthNet.uav[96] utilizationEnergyCharge 139657.80664062
scalar OsgEarthNet.uav[96] utilizationEnergyOverdrawMission 0
scalar OsgEarthNet.uav[96] utilizationEnergyOverdrawMaintenance 0
scalar OsgEarthNet.uav[96] utilizationCountMissions 31
scalar OsgEarthNet.uav[96] utilizationCountManeuversMission 613
scalar OsgEarthNet.uav[96] utilizationCountManeuversMaintenance 61
scalar OsgEarthNet.uav[96] utilizationCountChargeState 31
scalar OsgEarthNet.uav[96] utilizationCountOverdrawnAfterMission 0
scalar OsgEarthNet.uav[96] utilizationCountIdleState 31
scalar OsgEarthNet.uav[96] utilizationFail 0
scalar OsgEarthNet.uav[96] simulationTime 259200
scalar OsgEarthNet.uav[97] utilizationSecMission 19377.316847592
scalar OsgEarthNet.uav[97] utilizationSecMaintenance 14424.498448557
scalar OsgEarthNet.uav[97] utilizationSecCharge 134171.81133355
scalar OsgEarthNet.uav[97] utilizationSecIdle 91226.372370302
scalar OsgEarthNet.uav[97] utilizationEnergyMission 94874.960159302
scalar OsgEarthNet.uav[97] utilizationEnergyMaintenance 68986.408443451
scalar OsgEarthNet.uav[97] utilizationEnergyCharge 163819.46630859
scalar OsgEarthNet.uav[97] utilizationEnergyOverdrawMission 0
scalar OsgEarthNet.uav[97] utilizationEnergyOverdrawMaintenance 0
scalar OsgEarthNet.uav[97] utilizationCountMissions 44
scalar OsgEarthNet.uav[97] utilizationCountManeuversMission 617
scalar OsgEarthNet.uav[97] utilizationCountManeuversMaintenance 88
scalar OsgEarthNet.uav[97] utilizationCountChargeState 44
scalar OsgEarthNet.uav[97] utilizationCountOverdrawnAfterMission 0
scalar OsgEarthNet.uav[97] utilizationCountIdleState 44
scalar OsgEarthNet.uav[97] utilizationFail 0
scalar OsgEarthNet.uav[97] simulationTime 259200
scalar OsgEarthNet.cs[0] usedPower 3997797.93291
scalar OsgEarthNet.cs[0] chargedPower 3997797.93291
scalar OsgEarthNet.cs[0] chargedMobileNodes 876
scalar OsgEarthNet.cs[0] reservations 889
scalar OsgEarthNet.cs[1] usedPower 4157153.8104526
scalar OsgEarthNet.cs[1] chargedPower 4157153.8104526
scalar OsgEarthNet.cs[1] chargedMobileNodes 1040
scalar OsgEarthNet.cs[1] reservations 1054
scalar OsgEarthNet.cs[2] usedPower 8674279.797902
scalar OsgEarthNet.cs[2] chargedPower 8674279.797902
scalar OsgEarthNet.cs[2] chargedMobileNodes 269
scalar OsgEarthNet.cs[2] reservations 1896

