version 2
run Szenario_Hotel_Gabelbach-503-20180719-21:30:31-24868
attr configname Szenario_Hotel_Gabelbach
attr datetime 20180719-21:30:31
attr experiment Szenario_Hotel_Gabelbach
attr inifile omnetpp.ini
attr iterationvars "$replM=2, $biWeight=0.35, $replSearchM=1, $numUAVs=95"
attr iterationvarsf replM=2,biWeight=0.35,replSearchM=1,numUAVs=95-
attr measurement "$replM=2, $biWeight=0.35, $replSearchM=1, $numUAVs=95"
attr network OsgEarthNet
attr processid 24868
attr repetition 23
attr replication #23
attr resultdir results
attr runnumber 503
attr seedset 503
itervar biWeight 0.35
itervar numUAVs 95
itervar replM 2
itervar replSearchM 1
param *.osgEarthScene.scene "\"Szenario_Hotel_Gabelbach.earth\""
param *.playgroundLatitude 50.6830269
param *.playgroundLongitude 10.8538055
param *.playgroundWidth 3500m
param *.playgroundHeight 3500m
param *.cs[0].posX 3537m
param *.cs[0].posY 965m
param *.cs[0].posZ 538m
param *.cs[1].posX 312m
param *.cs[1].posY 1262m
param *.cs[1].posZ 539m
param *.cs[2].posX 2185m
param *.cs[2].posY 3026m
param *.cs[2].posZ 777m
param *.cs[3].posX 10m
param *.cs[3].posY 2200m
param *.cs[3].posZ 560m
param *.cs[4].posX 750m
param *.cs[4].posY 200m
param *.cs[4].posZ 540m
param *.cs[5].posX 2450m
param *.cs[5].posY 180m
param *.cs[5].posZ 524m
param *.cs[6].posX 3140m
param *.cs[6].posY 1790m
param *.cs[6].posZ 606m
param *.numCSs 3
param *.uav[*].replacementMethod 2
param *.uav[*].weightedSumWeight 0.35
param *.missionControl.replacementSearchMethod 1
param *.numUAVs 95
param *.*.timeStep 10s
param *.uav[*].commandPreviewCommandCount 20
param *.missionControl.missionFiles "\"missions\\\\Szenario_WB_Hotel_Gabelbach_Mission_Hotel.waypoints,missions\\\\Szenario_WB_Hotel_Gabelbach_Mission_Kickelhahn.waypoints,missions\\\\Szenario_WB_Hotel_Gabelbach_Mission_Ilmenau_Sportplatz.waypoints,missions\\\\Szenario_WB_Hotel_Gabelbach_Mission_Manebach_Mitte.waypoints,missions\\\\Szenario_WB_Hotel_Gabelbach_Mission_Manebach_Sued.waypoints,missions\\\\Szenario_WB_Hotel_Gabelbach_Hover_HoheSchlaufe.waypoints,missions\\\\Szenario_WB_Hotel_Gabelbach_Hover_Kickelhahn.waypoints,missions\\\\Szenario_WB_Hotel_Gabelbach_Hover_Gabelbachskopf.waypoints,missions\\\\Szenario_WB_Hotel_Gabelbach_Hover_Dachskopf.waypoints\""
param *.uav[0].startX 3537m
param *.uav[0].startY 965m
param *.uav[0].startZ 539m
param *.uav[1].startX 312m
param *.uav[1].startY 1262m
param *.uav[1].startZ 540m
param *.uav[2].startX 2185m
param *.uav[2].startY 3026m
param *.uav[2].startZ 778m
param *.uav[3].startX 3537m
param *.uav[3].startY 965m
param *.uav[3].startZ 539m
param *.uav[4].startX 312m
param *.uav[4].startY 1262m
param *.uav[4].startZ 540m
param *.uav[5].startX 2185m
param *.uav[5].startY 3026m
param *.uav[5].startZ 778m
param *.uav[6].startX 3537m
param *.uav[6].startY 965m
param *.uav[6].startZ 539m
param *.uav[7].startX 312m
param *.uav[7].startY 1262m
param *.uav[7].startZ 540m
param *.uav[8].startX 2185m
param *.uav[8].startY 3026m
param *.uav[8].startZ 778m
param *.uav[9].startX 3537m
param *.uav[9].startY 965m
param *.uav[9].startZ 539m
param *.uav[10].startX 3537m
param *.uav[10].startY 965m
param *.uav[10].startZ 539m
param *.uav[11].startX 312m
param *.uav[11].startY 1262m
param *.uav[11].startZ 540m
param *.uav[12].startX 2185m
param *.uav[12].startY 3026m
param *.uav[12].startZ 778m
param *.uav[13].startX 3537m
param *.uav[13].startY 965m
param *.uav[13].startZ 539m
param *.uav[14].startX 312m
param *.uav[14].startY 1262m
param *.uav[14].startZ 540m
param *.uav[15].startX 2185m
param *.uav[15].startY 3026m
param *.uav[15].startZ 778m
param *.uav[16].startX 3537m
param *.uav[16].startY 965m
param *.uav[16].startZ 539m
param *.uav[17].startX 312m
param *.uav[17].startY 1262m
param *.uav[17].startZ 540m
param *.uav[18].startX 2185m
param *.uav[18].startY 3026m
param *.uav[18].startZ 778m
param *.uav[19].startX 3537m
param *.uav[19].startY 965m
param *.uav[19].startZ 539m
param *.uav[20].startX 3537m
param *.uav[20].startY 965m
param *.uav[20].startZ 539m
param *.uav[21].startX 312m
param *.uav[21].startY 1262m
param *.uav[21].startZ 540m
param *.uav[22].startX 2185m
param *.uav[22].startY 3026m
param *.uav[22].startZ 778m
param *.uav[23].startX 3537m
param *.uav[23].startY 965m
param *.uav[23].startZ 539m
param *.uav[24].startX 312m
param *.uav[24].startY 1262m
param *.uav[24].startZ 540m
param *.uav[25].startX 2185m
param *.uav[25].startY 3026m
param *.uav[25].startZ 778m
param *.uav[26].startX 3537m
param *.uav[26].startY 965m
param *.uav[26].startZ 539m
param *.uav[27].startX 312m
param *.uav[27].startY 1262m
param *.uav[27].startZ 540m
param *.uav[28].startX 2185m
param *.uav[28].startY 3026m
param *.uav[28].startZ 778m
param *.uav[29].startX 3537m
param *.uav[29].startY 965m
param *.uav[29].startZ 539m
param *.uav[30].startX 3537m
param *.uav[30].startY 965m
param *.uav[30].startZ 539m
param *.uav[31].startX 312m
param *.uav[31].startY 1262m
param *.uav[31].startZ 540m
param *.uav[32].startX 2185m
param *.uav[32].startY 3026m
param *.uav[32].startZ 778m
param *.uav[33].startX 3537m
param *.uav[33].startY 965m
param *.uav[33].startZ 539m
param *.uav[34].startX 312m
param *.uav[34].startY 1262m
param *.uav[34].startZ 540m
param *.uav[35].startX 2185m
param *.uav[35].startY 3026m
param *.uav[35].startZ 778m
param *.uav[36].startX 3537m
param *.uav[36].startY 965m
param *.uav[36].startZ 539m
param *.uav[37].startX 312m
param *.uav[37].startY 1262m
param *.uav[37].startZ 540m
param *.uav[38].startX 2185m
param *.uav[38].startY 3026m
param *.uav[38].startZ 778m
param *.uav[39].startX 3537m
param *.uav[39].startY 965m
param *.uav[39].startZ 539m
param *.uav[40].startX 3537m
param *.uav[40].startY 965m
param *.uav[40].startZ 539m
param *.uav[41].startX 312m
param *.uav[41].startY 1262m
param *.uav[41].startZ 540m
param *.uav[42].startX 2185m
param *.uav[42].startY 3026m
param *.uav[42].startZ 778m
param *.uav[43].startX 3537m
param *.uav[43].startY 965m
param *.uav[43].startZ 539m
param *.uav[44].startX 312m
param *.uav[44].startY 1262m
param *.uav[44].startZ 540m
param *.uav[45].startX 2185m
param *.uav[45].startY 3026m
param *.uav[45].startZ 778m
param *.uav[46].startX 3537m
param *.uav[46].startY 965m
param *.uav[46].startZ 539m
param *.uav[47].startX 312m
param *.uav[47].startY 1262m
param *.uav[47].startZ 540m
param *.uav[48].startX 2185m
param *.uav[48].startY 3026m
param *.uav[48].startZ 778m
param *.uav[49].startX 3537m
param *.uav[49].startY 965m
param *.uav[49].startZ 539m
param *.uav[50].startX 3537m
param *.uav[50].startY 965m
param *.uav[50].startZ 539m
param *.uav[51].startX 312m
param *.uav[51].startY 1262m
param *.uav[51].startZ 540m
param *.uav[52].startX 2185m
param *.uav[52].startY 3026m
param *.uav[52].startZ 778m
param *.uav[53].startX 3537m
param *.uav[53].startY 965m
param *.uav[53].startZ 539m
param *.uav[54].startX 312m
param *.uav[54].startY 1262m
param *.uav[54].startZ 540m
param *.uav[55].startX 2185m
param *.uav[55].startY 3026m
param *.uav[55].startZ 778m
param *.uav[56].startX 3537m
param *.uav[56].startY 965m
param *.uav[56].startZ 539m
param *.uav[57].startX 312m
param *.uav[57].startY 1262m
param *.uav[57].startZ 540m
param *.uav[58].startX 2185m
param *.uav[58].startY 3026m
param *.uav[58].startZ 778m
param *.uav[59].startX 3537m
param *.uav[59].startY 965m
param *.uav[59].startZ 539m
param *.uav[60].startX 3537m
param *.uav[60].startY 965m
param *.uav[60].startZ 539m
param *.uav[61].startX 312m
param *.uav[61].startY 1262m
param *.uav[61].startZ 540m
param *.uav[62].startX 2185m
param *.uav[62].startY 3026m
param *.uav[62].startZ 778m
param *.uav[63].startX 3537m
param *.uav[63].startY 965m
param *.uav[63].startZ 539m
param *.uav[64].startX 312m
param *.uav[64].startY 1262m
param *.uav[64].startZ 540m
param *.uav[65].startX 2185m
param *.uav[65].startY 3026m
param *.uav[65].startZ 778m
param *.uav[66].startX 3537m
param *.uav[66].startY 965m
param *.uav[66].startZ 539m
param *.uav[67].startX 312m
param *.uav[67].startY 1262m
param *.uav[67].startZ 540m
param *.uav[68].startX 2185m
param *.uav[68].startY 3026m
param *.uav[68].startZ 778m
param *.uav[69].startX 3537m
param *.uav[69].startY 965m
param *.uav[69].startZ 539m
param *.uav[70].startX 3537m
param *.uav[70].startY 965m
param *.uav[70].startZ 539m
param *.uav[71].startX 312m
param *.uav[71].startY 1262m
param *.uav[71].startZ 540m
param *.uav[72].startX 2185m
param *.uav[72].startY 3026m
param *.uav[72].startZ 778m
param *.uav[73].startX 3537m
param *.uav[73].startY 965m
param *.uav[73].startZ 539m
param *.uav[74].startX 312m
param *.uav[74].startY 1262m
param *.uav[74].startZ 540m
param *.uav[75].startX 2185m
param *.uav[75].startY 3026m
param *.uav[75].startZ 778m
param *.uav[76].startX 3537m
param *.uav[76].startY 965m
param *.uav[76].startZ 539m
param *.uav[77].startX 312m
param *.uav[77].startY 1262m
param *.uav[77].startZ 540m
param *.uav[78].startX 2185m
param *.uav[78].startY 3026m
param *.uav[78].startZ 778m
param *.uav[79].startX 3537m
param *.uav[79].startY 965m
param *.uav[79].startZ 539m
param *.uav[80].startX 3537m
param *.uav[80].startY 965m
param *.uav[80].startZ 539m
param *.uav[81].startX 312m
param *.uav[81].startY 1262m
param *.uav[81].startZ 540m
param *.uav[82].startX 2185m
param *.uav[82].startY 3026m
param *.uav[82].startZ 778m
param *.uav[83].startX 3537m
param *.uav[83].startY 965m
param *.uav[83].startZ 539m
param *.uav[84].startX 312m
param *.uav[84].startY 1262m
param *.uav[84].startZ 540m
param *.uav[85].startX 2185m
param *.uav[85].startY 3026m
param *.uav[85].startZ 778m
param *.uav[86].startX 3537m
param *.uav[86].startY 965m
param *.uav[86].startZ 539m
param *.uav[87].startX 312m
param *.uav[87].startY 1262m
param *.uav[87].startZ 540m
param *.uav[88].startX 2185m
param *.uav[88].startY 3026m
param *.uav[88].startZ 778m
param *.uav[89].startX 3537m
param *.uav[89].startY 965m
param *.uav[89].startZ 539m
param *.uav[90].startX 3537m
param *.uav[90].startY 965m
param *.uav[90].startZ 539m
param *.uav[91].startX 312m
param *.uav[91].startY 1262m
param *.uav[91].startZ 540m
param *.uav[92].startX 2185m
param *.uav[92].startY 3026m
param *.uav[92].startZ 778m
param *.uav[93].startX 3537m
param *.uav[93].startY 965m
param *.uav[93].startZ 539m
param *.uav[94].startX 312m
param *.uav[94].startY 1262m
param *.uav[94].startZ 540m
param *.uav[95].startX 2185m
param *.uav[95].startY 3026m
param *.uav[95].startZ 778m
param *.uav[96].startX 3537m
param *.uav[96].startY 965m
param *.uav[96].startZ 539m
param *.uav[97].startX 312m
param *.uav[97].startY 1262m
param *.uav[97].startZ 540m
param *.uav[98].startX 2185m
param *.uav[98].startY 3026m
param *.uav[98].startZ 778m
param *.uav[99].startX 3537m
param *.uav[99].startY 965m
param *.uav[99].startZ 539m
param *.osgEarthScene.scene "\"boston.earth\""
param *.playgroundLatitude 42.3558
param *.playgroundLongitude -71.0677
param *.playgroundWidth 400m
param *.playgroundHeight 200m
param *.channelController.connectionColor "\"#0000FF40\""
param *.channelController.showConnections false
param *.uav[*].modelURL "\"quadrocopter.small.obj.15.scale.0,0,90.rot\""
param *.uav[*].labelColor "\"#FF7C00CC\""
param *.uav[*].label2Color "\"#FF7C00EE\""
param *.uav[*].batteryCapacity 5200mAh
param *.uav[*].batteryRemaining uav[index].batteryCapacity
param *.uav[*].predictionQuantile 0.95
param *.uav[*].replacementMethod 2
param *.uav[*].weightedSumWeight 0.5
param *.cs[*].modelURL "\"chargingstation_v1.osgt.2.scale.0,0,0.rot.0,0,-15e-1.trans\""
param *.cs[*].spotsWaiting 999
param *.cs[*].spotsCharging 999
param *.cs[*].chargeEffectivenessPercentage 100
param *.cs[*].nonLinearPhaseStartPercentage 85
param *.cs[*].chargeCurrent 6.0A
param *.cs[*].prioritizeFastCharge true
param *.missionControl.replacementSearchMethod 0
param *.*.timeStep 9s

scalar OsgEarthNet.uav[0] utilizationSecMission 15044.376068062
scalar OsgEarthNet.uav[0] utilizationSecMaintenance 11097.537596092
scalar OsgEarthNet.uav[0] utilizationSecCharge 95776.085335846
scalar OsgEarthNet.uav[0] utilizationSecIdle 137282
scalar OsgEarthNet.uav[0] utilizationEnergyMission 74369.318984985
scalar OsgEarthNet.uav[0] utilizationEnergyMaintenance 52737.045455932
scalar OsgEarthNet.uav[0] utilizationEnergyCharge 123807.31835938
scalar OsgEarthNet.uav[0] utilizationEnergyOverdrawMission 0
scalar OsgEarthNet.uav[0] utilizationEnergyOverdrawMaintenance 0
scalar OsgEarthNet.uav[0] utilizationCountMissions 28
scalar OsgEarthNet.uav[0] utilizationCountManeuversMission 570
scalar OsgEarthNet.uav[0] utilizationCountManeuversMaintenance 56
scalar OsgEarthNet.uav[0] utilizationCountChargeState 28
scalar OsgEarthNet.uav[0] utilizationCountOverdrawnAfterMission 0
scalar OsgEarthNet.uav[0] utilizationCountIdleState 28
scalar OsgEarthNet.uav[0] utilizationFail 0
scalar OsgEarthNet.uav[0] simulationTime 259200
scalar OsgEarthNet.uav[1] utilizationSecMission 1720.2067998628
scalar OsgEarthNet.uav[1] utilizationSecMaintenance 1638.4930533169
scalar OsgEarthNet.uav[1] utilizationSecCharge 13830
scalar OsgEarthNet.uav[1] utilizationSecIdle 242011.29914682
scalar OsgEarthNet.uav[1] utilizationEnergyMission 8982.1042251587
scalar OsgEarthNet.uav[1] utilizationEnergyMaintenance 7537.2496299744
scalar OsgEarthNet.uav[1] utilizationEnergyCharge 15950.33984375
scalar OsgEarthNet.uav[1] utilizationEnergyOverdrawMission 0
scalar OsgEarthNet.uav[1] utilizationEnergyOverdrawMaintenance 0
scalar OsgEarthNet.uav[1] utilizationCountMissions 5
scalar OsgEarthNet.uav[1] utilizationCountManeuversMission 63
scalar OsgEarthNet.uav[1] utilizationCountManeuversMaintenance 10
scalar OsgEarthNet.uav[1] utilizationCountChargeState 5
scalar OsgEarthNet.uav[1] utilizationCountOverdrawnAfterMission 0
scalar OsgEarthNet.uav[1] utilizationCountIdleState 6
scalar OsgEarthNet.uav[1] utilizationFail 0
scalar OsgEarthNet.uav[1] simulationTime 259200
scalar OsgEarthNet.uav[2] utilizationSecMission 42957.92124657
scalar OsgEarthNet.uav[2] utilizationSecMaintenance 18624.778660402
scalar OsgEarthNet.uav[2] utilizationSecCharge 196632.80115185
scalar OsgEarthNet.uav[2] utilizationSecIdle 984.49794117561
scalar OsgEarthNet.uav[2] utilizationEnergyMission 205376.95492935
scalar OsgEarthNet.uav[2] utilizationEnergyMaintenance 85540.253910065
scalar OsgEarthNet.uav[2] utilizationEnergyCharge 290836.97003174
scalar OsgEarthNet.uav[2] utilizationEnergyOverdrawMission 0
scalar OsgEarthNet.uav[2] utilizationEnergyOverdrawMaintenance 0
scalar OsgEarthNet.uav[2] utilizationCountMissions 65
scalar OsgEarthNet.uav[2] utilizationCountManeuversMission 1407
scalar OsgEarthNet.uav[2] utilizationCountManeuversMaintenance 130
scalar OsgEarthNet.uav[2] utilizationCountChargeState 65
scalar OsgEarthNet.uav[2] utilizationCountOverdrawnAfterMission 0
scalar OsgEarthNet.uav[2] utilizationCountIdleState 2
scalar OsgEarthNet.uav[2] utilizationFail 0
scalar OsgEarthNet.uav[2] simulationTime 259200
scalar OsgEarthNet.uav[3] utilizationSecMission 9374.1180293114
scalar OsgEarthNet.uav[3] utilizationSecMaintenance 5674.0815516844
scalar OsgEarthNet.uav[3] utilizationSecCharge 56290
scalar OsgEarthNet.uav[3] utilizationSecIdle 187861.799419
scalar OsgEarthNet.uav[3] utilizationEnergyMission 45707.902111053
scalar OsgEarthNet.uav[3] utilizationEnergyMaintenance 27082.518249512
scalar OsgEarthNet.uav[3] utilizationEnergyCharge 72349.076171875
scalar OsgEarthNet.uav[3] utilizationEnergyOverdrawMission 0
scalar OsgEarthNet.uav[3] utilizationEnergyOverdrawMaintenance 0
scalar OsgEarthNet.uav[3] utilizationCountMissions 16
scalar OsgEarthNet.uav[3] utilizationCountManeuversMission 291
scalar OsgEarthNet.uav[3] utilizationCountManeuversMaintenance 32
scalar OsgEarthNet.uav[3] utilizationCountChargeState 16
scalar OsgEarthNet.uav[3] utilizationCountOverdrawnAfterMission 0
scalar OsgEarthNet.uav[3] utilizationCountIdleState 17
scalar OsgEarthNet.uav[3] utilizationFail 0
scalar OsgEarthNet.uav[3] simulationTime 259200
scalar OsgEarthNet.uav[4] utilizationSecMission 1740.2067998628
scalar OsgEarthNet.uav[4] utilizationSecMaintenance 1638.4930533169
scalar OsgEarthNet.uav[4] utilizationSecCharge 13860
scalar OsgEarthNet.uav[4] utilizationSecIdle 241961.29914682
scalar OsgEarthNet.uav[4] utilizationEnergyMission 8800.895576477
scalar OsgEarthNet.uav[4] utilizationEnergyMaintenance 7604.0499839783
scalar OsgEarthNet.uav[4] utilizationEnergyCharge 15901.352783203
scalar OsgEarthNet.uav[4] utilizationEnergyOverdrawMission 0
scalar OsgEarthNet.uav[4] utilizationEnergyOverdrawMaintenance 0
scalar OsgEarthNet.uav[4] utilizationCountMissions 5
scalar OsgEarthNet.uav[4] utilizationCountManeuversMission 64
scalar OsgEarthNet.uav[4] utilizationCountManeuversMaintenance 10
scalar OsgEarthNet.uav[4] utilizationCountChargeState 5
scalar OsgEarthNet.uav[4] utilizationCountOverdrawnAfterMission 0
scalar OsgEarthNet.uav[4] utilizationCountIdleState 6
scalar OsgEarthNet.uav[4] utilizationFail 0
scalar OsgEarthNet.uav[4] simulationTime 259200
scalar OsgEarthNet.uav[5] utilizationSecMission 42778.660319755
scalar OsgEarthNet.uav[5] utilizationSecMaintenance 18319.334680245
scalar OsgEarthNet.uav[5] utilizationSecCharge 195400
scalar OsgEarthNet.uav[5] utilizationSecIdle 2702.004
scalar OsgEarthNet.uav[5] utilizationEnergyMission 207481.22858748
scalar OsgEarthNet.uav[5] utilizationEnergyMaintenance 83970.1003685
scalar OsgEarthNet.uav[5] utilizationEnergyCharge 288799.25439453
scalar OsgEarthNet.uav[5] utilizationEnergyOverdrawMission 0
scalar OsgEarthNet.uav[5] utilizationEnergyOverdrawMaintenance 0
scalar OsgEarthNet.uav[5] utilizationCountMissions 63
scalar OsgEarthNet.uav[5] utilizationCountManeuversMission 1231
scalar OsgEarthNet.uav[5] utilizationCountManeuversMaintenance 127
scalar OsgEarthNet.uav[5] utilizationCountChargeState 63
scalar OsgEarthNet.uav[5] utilizationCountOverdrawnAfterMission 0
scalar OsgEarthNet.uav[5] utilizationCountIdleState 1
scalar OsgEarthNet.uav[5] utilizationFail 0
scalar OsgEarthNet.uav[5] simulationTime 259200
scalar OsgEarthNet.uav[6] utilizationSecMission 6162.5006103211
scalar OsgEarthNet.uav[6] utilizationSecMaintenance 4176.5987883605
scalar OsgEarthNet.uav[6] utilizationSecCharge 39120
scalar OsgEarthNet.uav[6] utilizationSecIdle 209740.89960132
scalar OsgEarthNet.uav[6] utilizationEnergyMission 30692.328430176
scalar OsgEarthNet.uav[6] utilizationEnergyMaintenance 19669.691635132
scalar OsgEarthNet.uav[6] utilizationEnergyCharge 50704.193847656
scalar OsgEarthNet.uav[6] utilizationEnergyOverdrawMission 0
scalar OsgEarthNet.uav[6] utilizationEnergyOverdrawMaintenance 0
scalar OsgEarthNet.uav[6] utilizationCountMissions 11
scalar OsgEarthNet.uav[6] utilizationCountManeuversMission 204
scalar OsgEarthNet.uav[6] utilizationCountManeuversMaintenance 22
scalar OsgEarthNet.uav[6] utilizationCountChargeState 11
scalar OsgEarthNet.uav[6] utilizationCountOverdrawnAfterMission 0
scalar OsgEarthNet.uav[6] utilizationCountIdleState 12
scalar OsgEarthNet.uav[6] utilizationFail 0
scalar OsgEarthNet.uav[6] simulationTime 259200
scalar OsgEarthNet.uav[7] utilizationSecMission 15110.098714624
scalar OsgEarthNet.uav[7] utilizationSecMaintenance 10185.88439827
scalar OsgEarthNet.uav[7] utilizationSecCharge 99090
scalar OsgEarthNet.uav[7] utilizationSecIdle 134814.01588711
scalar OsgEarthNet.uav[7] utilizationEnergyMission 74394.584033966
scalar OsgEarthNet.uav[7] utilizationEnergyMaintenance 48604.996887207
scalar OsgEarthNet.uav[7] utilizationEnergyCharge 122612.24023438
scalar OsgEarthNet.uav[7] utilizationEnergyOverdrawMission 0
scalar OsgEarthNet.uav[7] utilizationEnergyOverdrawMaintenance 0
scalar OsgEarthNet.uav[7] utilizationCountMissions 31
scalar OsgEarthNet.uav[7] utilizationCountManeuversMission 465
scalar OsgEarthNet.uav[7] utilizationCountManeuversMaintenance 62
scalar OsgEarthNet.uav[7] utilizationCountChargeState 31
scalar OsgEarthNet.uav[7] utilizationCountOverdrawnAfterMission 0
scalar OsgEarthNet.uav[7] utilizationCountIdleState 32
scalar OsgEarthNet.uav[7] utilizationFail 0
scalar OsgEarthNet.uav[7] simulationTime 259200
scalar OsgEarthNet.uav[8] utilizationSecMission 42343.787010556
scalar OsgEarthNet.uav[8] utilizationSecMaintenance 18490.860845119
scalar OsgEarthNet.uav[8] utilizationSecCharge 196343.34714433
scalar OsgEarthNet.uav[8] utilizationSecIdle 2022.004
scalar OsgEarthNet.uav[8] utilizationEnergyMission 206212.32061386
scalar OsgEarthNet.uav[8] utilizationEnergyMaintenance 84857.004470825
scalar OsgEarthNet.uav[8] utilizationEnergyCharge 292264.23779297
scalar OsgEarthNet.uav[8] utilizationEnergyOverdrawMission 0
scalar OsgEarthNet.uav[8] utilizationEnergyOverdrawMaintenance 0
scalar OsgEarthNet.uav[8] utilizationCountMissions 64
scalar OsgEarthNet.uav[8] utilizationCountManeuversMission 1370
scalar OsgEarthNet.uav[8] utilizationCountManeuversMaintenance 128
scalar OsgEarthNet.uav[8] utilizationCountChargeState 64
scalar OsgEarthNet.uav[8] utilizationCountOverdrawnAfterMission 0
scalar OsgEarthNet.uav[8] utilizationCountIdleState 2
scalar OsgEarthNet.uav[8] utilizationFail 0
scalar OsgEarthNet.uav[8] simulationTime 259200
scalar OsgEarthNet.uav[9] utilizationSecMission 8803.7509154817
scalar OsgEarthNet.uav[9] utilizationSecMaintenance 5360.4360198211
scalar OsgEarthNet.uav[9] utilizationSecCharge 53210
scalar OsgEarthNet.uav[9] utilizationSecIdle 191825.8120647
scalar OsgEarthNet.uav[9] utilizationEnergyMission 42057.192802429
scalar OsgEarthNet.uav[9] utilizationEnergyMaintenance 25309.006427765
scalar OsgEarthNet.uav[9] utilizationEnergyCharge 68758.469238281
scalar OsgEarthNet.uav[9] utilizationEnergyOverdrawMission 0
scalar OsgEarthNet.uav[9] utilizationEnergyOverdrawMaintenance 0
scalar OsgEarthNet.uav[9] utilizationCountMissions 15
scalar OsgEarthNet.uav[9] utilizationCountManeuversMission 284
scalar OsgEarthNet.uav[9] utilizationCountManeuversMaintenance 30
scalar OsgEarthNet.uav[9] utilizationCountChargeState 15
scalar OsgEarthNet.uav[9] utilizationCountOverdrawnAfterMission 0
scalar OsgEarthNet.uav[9] utilizationCountIdleState 16
scalar OsgEarthNet.uav[9] utilizationFail 0
scalar OsgEarthNet.uav[9] simulationTime 259200
scalar OsgEarthNet.uav[10] utilizationSecMission 11555.884411973
scalar OsgEarthNet.uav[10] utilizationSecMaintenance 6354.3343773221
scalar OsgEarthNet.uav[10] utilizationSecCharge 66730
scalar OsgEarthNet.uav[10] utilizationSecIdle 174559.7802107
scalar OsgEarthNet.uav[10] utilizationEnergyMission 55800.021995544
scalar OsgEarthNet.uav[10] utilizationEnergyMaintenance 30181.663455963
scalar OsgEarthNet.uav[10] utilizationEnergyCharge 85588.196289062
scalar OsgEarthNet.uav[10] utilizationEnergyOverdrawMission 0
scalar OsgEarthNet.uav[10] utilizationEnergyOverdrawMaintenance 0
scalar OsgEarthNet.uav[10] utilizationCountMissions 19
scalar OsgEarthNet.uav[10] utilizationCountManeuversMission 339
scalar OsgEarthNet.uav[10] utilizationCountManeuversMaintenance 38
scalar OsgEarthNet.uav[10] utilizationCountChargeState 19
scalar OsgEarthNet.uav[10] utilizationCountOverdrawnAfterMission 0
scalar OsgEarthNet.uav[10] utilizationCountIdleState 20
scalar OsgEarthNet.uav[10] utilizationFail 0
scalar OsgEarthNet.uav[10] simulationTime 259200
scalar OsgEarthNet.uav[11] utilizationSecMission 11648.348224002
scalar OsgEarthNet.uav[11] utilizationSecMaintenance 8110.5536662906
scalar OsgEarthNet.uav[11] utilizationSecCharge 75279.089109708
scalar OsgEarthNet.uav[11] utilizationSecIdle 164162.008
scalar OsgEarthNet.uav[11] utilizationEnergyMission 56892.92980957
scalar OsgEarthNet.uav[11] utilizationEnergyMaintenance 37721.23872757
scalar OsgEarthNet.uav[11] utilizationEnergyCharge 95422.909667969
scalar OsgEarthNet.uav[11] utilizationEnergyOverdrawMission 0
scalar OsgEarthNet.uav[11] utilizationEnergyOverdrawMaintenance 0
scalar OsgEarthNet.uav[11] utilizationCountMissions 23
scalar OsgEarthNet.uav[11] utilizationCountManeuversMission 441
scalar OsgEarthNet.uav[11] utilizationCountManeuversMaintenance 46
scalar OsgEarthNet.uav[11] utilizationCountChargeState 23
scalar OsgEarthNet.uav[11] utilizationCountOverdrawnAfterMission 0
scalar OsgEarthNet.uav[11] utilizationCountIdleState 23
scalar OsgEarthNet.uav[11] utilizationFail 0
scalar OsgEarthNet.uav[11] simulationTime 259200
scalar OsgEarthNet.uav[12] utilizationSecMission 43575.048261822
scalar OsgEarthNet.uav[12] utilizationSecMaintenance 17999.440726107
scalar OsgEarthNet.uav[12] utilizationSecCharge 195450.05435545
scalar OsgEarthNet.uav[12] utilizationSecIdle 2175.4556566199
scalar OsgEarthNet.uav[12] utilizationEnergyMission 211397.41233063
scalar OsgEarthNet.uav[12] utilizationEnergyMaintenance 81962.644115448
scalar OsgEarthNet.uav[12] utilizationEnergyCharge 289699.53222656
scalar OsgEarthNet.uav[12] utilizationEnergyOverdrawMission 0
scalar OsgEarthNet.uav[12] utilizationEnergyOverdrawMaintenance 0
scalar OsgEarthNet.uav[12] utilizationCountMissions 64
scalar OsgEarthNet.uav[12] utilizationCountManeuversMission 1289
scalar OsgEarthNet.uav[12] utilizationCountManeuversMaintenance 128
scalar OsgEarthNet.uav[12] utilizationCountChargeState 64
scalar OsgEarthNet.uav[12] utilizationCountOverdrawnAfterMission 0
scalar OsgEarthNet.uav[12] utilizationCountIdleState 2
scalar OsgEarthNet.uav[12] utilizationFail 0
scalar OsgEarthNet.uav[12] simulationTime 259200
scalar OsgEarthNet.uav[13] utilizationSecMission 8794.0089542322
scalar OsgEarthNet.uav[13] utilizationSecMaintenance 5337.3753406057
scalar OsgEarthNet.uav[13] utilizationSecCharge 52390
scalar OsgEarthNet.uav[13] utilizationSecIdle 192678.61470516
scalar OsgEarthNet.uav[13] utilizationEnergyMission 41992.126422882
scalar OsgEarthNet.uav[13] utilizationEnergyMaintenance 25213.06954956
scalar OsgEarthNet.uav[13] utilizationEnergyCharge 67088.008789062
scalar OsgEarthNet.uav[13] utilizationEnergyOverdrawMission 0
scalar OsgEarthNet.uav[13] utilizationEnergyOverdrawMaintenance 0
scalar OsgEarthNet.uav[13] utilizationCountMissions 15
scalar OsgEarthNet.uav[13] utilizationCountManeuversMission 279
scalar OsgEarthNet.uav[13] utilizationCountManeuversMaintenance 30
scalar OsgEarthNet.uav[13] utilizationCountChargeState 15
scalar OsgEarthNet.uav[13] utilizationCountOverdrawnAfterMission 0
scalar OsgEarthNet.uav[13] utilizationCountIdleState 16
scalar OsgEarthNet.uav[13] utilizationFail 0
scalar OsgEarthNet.uav[13] simulationTime 259200
scalar OsgEarthNet.uav[14] utilizationSecMission 12989.891914762
scalar OsgEarthNet.uav[14] utilizationSecMaintenance 8151.6266836614
scalar OsgEarthNet.uav[14] utilizationSecCharge 77353.774702541
scalar OsgEarthNet.uav[14] utilizationSecIdle 160704.70569904
scalar OsgEarthNet.uav[14] utilizationEnergyMission 62526.679103851
scalar OsgEarthNet.uav[14] utilizationEnergyMaintenance 38201.8592453
scalar OsgEarthNet.uav[14] utilizationEnergyCharge 96166.329833984
scalar OsgEarthNet.uav[14] utilizationEnergyOverdrawMission 0
scalar OsgEarthNet.uav[14] utilizationEnergyOverdrawMaintenance 0
scalar OsgEarthNet.uav[14] utilizationCountMissions 25
scalar OsgEarthNet.uav[14] utilizationCountManeuversMission 382
scalar OsgEarthNet.uav[14] utilizationCountManeuversMaintenance 50
scalar OsgEarthNet.uav[14] utilizationCountChargeState 25
scalar OsgEarthNet.uav[14] utilizationCountOverdrawnAfterMission 0
scalar OsgEarthNet.uav[14] utilizationCountIdleState 25
scalar OsgEarthNet.uav[14] utilizationFail 0
scalar OsgEarthNet.uav[14] simulationTime 259200
scalar OsgEarthNet.uav[15] utilizationSecMission 42515.885270041
scalar OsgEarthNet.uav[15] utilizationSecMaintenance 19804.963155088
scalar OsgEarthNet.uav[15] utilizationSecCharge 195597.14857487
scalar OsgEarthNet.uav[15] utilizationSecIdle 1282.002
scalar OsgEarthNet.uav[15] utilizationEnergyMission 204535.53469467
scalar OsgEarthNet.uav[15] utilizationEnergyMaintenance 90376.604774475
scalar OsgEarthNet.uav[15] utilizationEnergyCharge 294596.8425293
scalar OsgEarthNet.uav[15] utilizationEnergyOverdrawMission 0
scalar OsgEarthNet.uav[15] utilizationEnergyOverdrawMaintenance 0
scalar OsgEarthNet.uav[15] utilizationCountMissions 66
scalar OsgEarthNet.uav[15] utilizationCountManeuversMission 1395
scalar OsgEarthNet.uav[15] utilizationCountManeuversMaintenance 132
scalar OsgEarthNet.uav[15] utilizationCountChargeState 66
scalar OsgEarthNet.uav[15] utilizationCountOverdrawnAfterMission 0
scalar OsgEarthNet.uav[15] utilizationCountIdleState 1
scalar OsgEarthNet.uav[15] utilizationFail 0
scalar OsgEarthNet.uav[15] simulationTime 259200
scalar OsgEarthNet.uav[16] utilizationSecMission 6001.8754577408
scalar OsgEarthNet.uav[16] utilizationSecMaintenance 4158.7110186242
scalar OsgEarthNet.uav[16] utilizationSecCharge 38450
scalar OsgEarthNet.uav[16] utilizationSecIdle 210589.41252363
scalar OsgEarthNet.uav[16] utilizationEnergyMission 29156.596046448
scalar OsgEarthNet.uav[16] utilizationEnergyMaintenance 19854.527500153
scalar OsgEarthNet.uav[16] utilizationEnergyCharge 49116.90234375
scalar OsgEarthNet.uav[16] utilizationEnergyOverdrawMission 0
scalar OsgEarthNet.uav[16] utilizationEnergyOverdrawMaintenance 0
scalar OsgEarthNet.uav[16] utilizationCountMissions 11
scalar OsgEarthNet.uav[16] utilizationCountManeuversMission 222
scalar OsgEarthNet.uav[16] utilizationCountManeuversMaintenance 22
scalar OsgEarthNet.uav[16] utilizationCountChargeState 11
scalar OsgEarthNet.uav[16] utilizationCountOverdrawnAfterMission 0
scalar OsgEarthNet.uav[16] utilizationCountIdleState 12
scalar OsgEarthNet.uav[16] utilizationFail 0
scalar OsgEarthNet.uav[16] simulationTime 259200
scalar OsgEarthNet.uav[17] utilizationSecMission 16419.644279507
scalar OsgEarthNet.uav[17] utilizationSecMaintenance 10406.686542505
scalar OsgEarthNet.uav[17] utilizationSecCharge 100240
scalar OsgEarthNet.uav[17] utilizationSecIdle 132133.66817799
scalar OsgEarthNet.uav[17] utilizationEnergyMission 81205.921646118
scalar OsgEarthNet.uav[17] utilizationEnergyMaintenance 49506.939867383
scalar OsgEarthNet.uav[17] utilizationEnergyCharge 124799.71923828
scalar OsgEarthNet.uav[17] utilizationEnergyOverdrawMission 0
scalar OsgEarthNet.uav[17] utilizationEnergyOverdrawMaintenance 0
scalar OsgEarthNet.uav[17] utilizationCountMissions 32
scalar OsgEarthNet.uav[17] utilizationCountManeuversMission 516
scalar OsgEarthNet.uav[17] utilizationCountManeuversMaintenance 64
scalar OsgEarthNet.uav[17] utilizationCountChargeState 31
scalar OsgEarthNet.uav[17] utilizationCountOverdrawnAfterMission 0
scalar OsgEarthNet.uav[17] utilizationCountIdleState 32
scalar OsgEarthNet.uav[17] utilizationFail 0
scalar OsgEarthNet.uav[17] simulationTime 259200
scalar OsgEarthNet.uav[18] utilizationSecMission 43637.514430188
scalar OsgEarthNet.uav[18] utilizationSecMaintenance 17850.811520429
scalar OsgEarthNet.uav[18] utilizationSecCharge 195960
scalar OsgEarthNet.uav[18] utilizationSecIdle 1751.673049383
scalar OsgEarthNet.uav[18] utilizationEnergyMission 211134.82130528
scalar OsgEarthNet.uav[18] utilizationEnergyMaintenance 81428.263214111
scalar OsgEarthNet.uav[18] utilizationEnergyCharge 289218.83447266
scalar OsgEarthNet.uav[18] utilizationEnergyOverdrawMission 0
scalar OsgEarthNet.uav[18] utilizationEnergyOverdrawMaintenance 0
scalar OsgEarthNet.uav[18] utilizationCountMissions 63
scalar OsgEarthNet.uav[18] utilizationCountManeuversMission 1337
scalar OsgEarthNet.uav[18] utilizationCountManeuversMaintenance 127
scalar OsgEarthNet.uav[18] utilizationCountChargeState 63
scalar OsgEarthNet.uav[18] utilizationCountOverdrawnAfterMission 0
scalar OsgEarthNet.uav[18] utilizationCountIdleState 1
scalar OsgEarthNet.uav[18] utilizationFail 0
scalar OsgEarthNet.uav[18] simulationTime 259200
scalar OsgEarthNet.uav[19] utilizationSecMission 8203.7509154817
scalar OsgEarthNet.uav[19] utilizationSecMaintenance 5000.3916771482
scalar OsgEarthNet.uav[19] utilizationSecCharge 49590
scalar OsgEarthNet.uav[19] utilizationSecIdle 196405.85640737
scalar OsgEarthNet.uav[19] utilizationEnergyMission 40660.925457001
scalar OsgEarthNet.uav[19] utilizationEnergyMaintenance 23873.498451233
scalar OsgEarthNet.uav[19] utilizationEnergyCharge 63974.010253906
scalar OsgEarthNet.uav[19] utilizationEnergyOverdrawMission 0
scalar OsgEarthNet.uav[19] utilizationEnergyOverdrawMaintenance 0
scalar OsgEarthNet.uav[19] utilizationCountMissions 14
scalar OsgEarthNet.uav[19] utilizationCountManeuversMission 254
scalar OsgEarthNet.uav[19] utilizationCountManeuversMaintenance 28
scalar OsgEarthNet.uav[19] utilizationCountChargeState 14
scalar OsgEarthNet.uav[19] utilizationCountOverdrawnAfterMission 0
scalar OsgEarthNet.uav[19] utilizationCountIdleState 15
scalar OsgEarthNet.uav[19] utilizationFail 0
scalar OsgEarthNet.uav[19] simulationTime 259200
scalar OsgEarthNet.uav[20] utilizationSecMission 8383.1257629014
scalar OsgEarthNet.uav[20] utilizationSecMaintenance 5614.6815365344
scalar OsgEarthNet.uav[20] utilizationSecCharge 52560
scalar OsgEarthNet.uav[20] utilizationSecIdle 192642.19170056
scalar OsgEarthNet.uav[20] utilizationEnergyMission 40678.628513336
scalar OsgEarthNet.uav[20] utilizationEnergyMaintenance 26769.75358963
scalar OsgEarthNet.uav[20] utilizationEnergyCharge 67735.799804688
scalar OsgEarthNet.uav[20] utilizationEnergyOverdrawMission 0
scalar OsgEarthNet.uav[20] utilizationEnergyOverdrawMaintenance 0
scalar OsgEarthNet.uav[20] utilizationCountMissions 15
scalar OsgEarthNet.uav[20] utilizationCountManeuversMission 289
scalar OsgEarthNet.uav[20] utilizationCountManeuversMaintenance 30
scalar OsgEarthNet.uav[20] utilizationCountChargeState 15
scalar OsgEarthNet.uav[20] utilizationCountOverdrawnAfterMission 0
scalar OsgEarthNet.uav[20] utilizationCountIdleState 16
scalar OsgEarthNet.uav[20] utilizationFail 0
scalar OsgEarthNet.uav[20] simulationTime 259200
scalar OsgEarthNet.uav[21] utilizationSecMission 11051.502855368
scalar OsgEarthNet.uav[21] utilizationSecMaintenance 7665.1180842828
scalar OsgEarthNet.uav[21] utilizationSecCharge 70601.365060349
scalar OsgEarthNet.uav[21] utilizationSecIdle 169882.013
scalar OsgEarthNet.uav[21] utilizationEnergyMission 53349.849754333
scalar OsgEarthNet.uav[21] utilizationEnergyMaintenance 36200.157032013
scalar OsgEarthNet.uav[21] utilizationEnergyCharge 87493.944824219
scalar OsgEarthNet.uav[21] utilizationEnergyOverdrawMission 0
scalar OsgEarthNet.uav[21] utilizationEnergyOverdrawMaintenance 0
scalar OsgEarthNet.uav[21] utilizationCountMissions 23
scalar OsgEarthNet.uav[21] utilizationCountManeuversMission 366
scalar OsgEarthNet.uav[21] utilizationCountManeuversMaintenance 46
scalar OsgEarthNet.uav[21] utilizationCountChargeState 23
scalar OsgEarthNet.uav[21] utilizationCountOverdrawnAfterMission 0
scalar OsgEarthNet.uav[21] utilizationCountIdleState 23
scalar OsgEarthNet.uav[21] utilizationFail 0
scalar OsgEarthNet.uav[21] simulationTime 259200
scalar OsgEarthNet.uav[22] utilizationSecMission 43259.527212416
scalar OsgEarthNet.uav[22] utilizationSecMaintenance 18080.634973544
scalar OsgEarthNet.uav[22] utilizationSecCharge 194900
scalar OsgEarthNet.uav[22] utilizationSecIdle 2959.83681404
scalar OsgEarthNet.uav[22] utilizationEnergyMission 208614.11087521
scalar OsgEarthNet.uav[22] utilizationEnergyMaintenance 81739.219882965
scalar OsgEarthNet.uav[22] utilizationEnergyCharge 287372.15722656
scalar OsgEarthNet.uav[22] utilizationEnergyOverdrawMission 0
scalar OsgEarthNet.uav[22] utilizationEnergyOverdrawMaintenance 0
scalar OsgEarthNet.uav[22] utilizationCountMissions 63
scalar OsgEarthNet.uav[22] utilizationCountManeuversMission 1278
scalar OsgEarthNet.uav[22] utilizationCountManeuversMaintenance 127
scalar OsgEarthNet.uav[22] utilizationCountChargeState 63
scalar OsgEarthNet.uav[22] utilizationCountOverdrawnAfterMission 0
scalar OsgEarthNet.uav[22] utilizationCountIdleState 2
scalar OsgEarthNet.uav[22] utilizationFail 0
scalar OsgEarthNet.uav[22] simulationTime 259200
scalar OsgEarthNet.uav[23] utilizationSecMission 7323.7509154817
scalar OsgEarthNet.uav[23] utilizationSecMaintenance 4018.1408392721
scalar OsgEarthNet.uav[23] utilizationSecCharge 41890
scalar OsgEarthNet.uav[23] utilizationSecIdle 205968.10724525
scalar OsgEarthNet.uav[23] utilizationEnergyMission 35346.687526703
scalar OsgEarthNet.uav[23] utilizationEnergyMaintenance 18782.071456909
scalar OsgEarthNet.uav[23] utilizationEnergyCharge 53857.379882812
scalar OsgEarthNet.uav[23] utilizationEnergyOverdrawMission 0
scalar OsgEarthNet.uav[23] utilizationEnergyOverdrawMaintenance 0
scalar OsgEarthNet.uav[23] utilizationCountMissions 12
scalar OsgEarthNet.uav[23] utilizationCountManeuversMission 210
scalar OsgEarthNet.uav[23] utilizationCountManeuversMaintenance 24
scalar OsgEarthNet.uav[23] utilizationCountChargeState 12
scalar OsgEarthNet.uav[23] utilizationCountOverdrawnAfterMission 0
scalar OsgEarthNet.uav[23] utilizationCountIdleState 13
scalar OsgEarthNet.uav[23] utilizationFail 0
scalar OsgEarthNet.uav[23] simulationTime 259200
scalar OsgEarthNet.uav[24] utilizationSecMission 12617.398518375
scalar OsgEarthNet.uav[24] utilizationSecMaintenance 8647.7571059936
scalar OsgEarthNet.uav[24] utilizationSecCharge 83070
scalar OsgEarthNet.uav[24] utilizationSecIdle 154864.84337563
scalar OsgEarthNet.uav[24] utilizationEnergyMission 62330.285480499
scalar OsgEarthNet.uav[24] utilizationEnergyMaintenance 41035.605869293
scalar OsgEarthNet.uav[24] utilizationEnergyCharge 102875.02758789
scalar OsgEarthNet.uav[24] utilizationEnergyOverdrawMission 0
scalar OsgEarthNet.uav[24] utilizationEnergyOverdrawMaintenance 0
scalar OsgEarthNet.uav[24] utilizationCountMissions 26
scalar OsgEarthNet.uav[24] utilizationCountManeuversMission 400
scalar OsgEarthNet.uav[24] utilizationCountManeuversMaintenance 52
scalar OsgEarthNet.uav[24] utilizationCountChargeState 26
scalar OsgEarthNet.uav[24] utilizationCountOverdrawnAfterMission 0
scalar OsgEarthNet.uav[24] utilizationCountIdleState 27
scalar OsgEarthNet.uav[24] utilizationFail 0
scalar OsgEarthNet.uav[24] simulationTime 259200
scalar OsgEarthNet.uav[25] utilizationSecMission 42192.741845816
scalar OsgEarthNet.uav[25] utilizationSecMaintenance 19961.737107884
scalar OsgEarthNet.uav[25] utilizationSecCharge 196306.62367116
scalar OsgEarthNet.uav[25] utilizationSecIdle 738.89637514353
scalar OsgEarthNet.uav[25] utilizationEnergyMission 204248.70087051
scalar OsgEarthNet.uav[25] utilizationEnergyMaintenance 92217.845867157
scalar OsgEarthNet.uav[25] utilizationEnergyCharge 292207.88189697
scalar OsgEarthNet.uav[25] utilizationEnergyOverdrawMission 0
scalar OsgEarthNet.uav[25] utilizationEnergyOverdrawMaintenance 0
scalar OsgEarthNet.uav[25] utilizationCountMissions 65
scalar OsgEarthNet.uav[25] utilizationCountManeuversMission 1200
scalar OsgEarthNet.uav[25] utilizationCountManeuversMaintenance 130
scalar OsgEarthNet.uav[25] utilizationCountChargeState 65
scalar OsgEarthNet.uav[25] utilizationCountOverdrawnAfterMission 0
scalar OsgEarthNet.uav[25] utilizationCountIdleState 2
scalar OsgEarthNet.uav[25] utilizationFail 0
scalar OsgEarthNet.uav[25] simulationTime 259200
scalar OsgEarthNet.uav[26] utilizationSecMission 11565.626373223
scalar OsgEarthNet.uav[26] utilizationSecMaintenance 6562.161021018
scalar OsgEarthNet.uav[26] utilizationSecCharge 67350
scalar OsgEarthNet.uav[26] utilizationSecIdle 173722.21160576
scalar OsgEarthNet.uav[26] utilizationEnergyMission 55685.970169067
scalar OsgEarthNet.uav[26] utilizationEnergyMaintenance 31162.085208893
scalar OsgEarthNet.uav[26] utilizationEnergyCharge 86814.500488281
scalar OsgEarthNet.uav[26] utilizationEnergyOverdrawMission 0
scalar OsgEarthNet.uav[26] utilizationEnergyOverdrawMaintenance 0
scalar OsgEarthNet.uav[26] utilizationCountMissions 19
scalar OsgEarthNet.uav[26] utilizationCountManeuversMission 344
scalar OsgEarthNet.uav[26] utilizationCountManeuversMaintenance 38
scalar OsgEarthNet.uav[26] utilizationCountChargeState 19
scalar OsgEarthNet.uav[26] utilizationCountOverdrawnAfterMission 0
scalar OsgEarthNet.uav[26] utilizationCountIdleState 20
scalar OsgEarthNet.uav[26] utilizationFail 0
scalar OsgEarthNet.uav[26] simulationTime 259200
scalar OsgEarthNet.uav[27] utilizationSecMission 12217.893788884
scalar OsgEarthNet.uav[27] utilizationSecMaintenance 8116.6772806632
scalar OsgEarthNet.uav[27] utilizationSecCharge 77873.416930452
scalar OsgEarthNet.uav[27] utilizationSecIdle 160992.011
scalar OsgEarthNet.uav[27] utilizationEnergyMission 60009.451759338
scalar OsgEarthNet.uav[27] utilizationEnergyMaintenance 38977.344287872
scalar OsgEarthNet.uav[27] utilizationEnergyCharge 98990.977783203
scalar OsgEarthNet.uav[27] utilizationEnergyOverdrawMission 0
scalar OsgEarthNet.uav[27] utilizationEnergyOverdrawMaintenance 0
scalar OsgEarthNet.uav[27] utilizationCountMissions 23
scalar OsgEarthNet.uav[27] utilizationCountManeuversMission 455
scalar OsgEarthNet.uav[27] utilizationCountManeuversMaintenance 46
scalar OsgEarthNet.uav[27] utilizationCountChargeState 23
scalar OsgEarthNet.uav[27] utilizationCountOverdrawnAfterMission 0
scalar OsgEarthNet.uav[27] utilizationCountIdleState 23
scalar OsgEarthNet.uav[27] utilizationFail 0
scalar OsgEarthNet.uav[27] simulationTime 259200
scalar OsgEarthNet.uav[28] utilizationSecMission 43883.946921894
scalar OsgEarthNet.uav[28] utilizationSecMaintenance 17052.910455575
scalar OsgEarthNet.uav[28] utilizationSecCharge 195614.56802994
scalar OsgEarthNet.uav[28] utilizationSecIdle 2648.5735925931
scalar OsgEarthNet.uav[28] utilizationEnergyMission 208408.89057922
scalar OsgEarthNet.uav[28] utilizationEnergyMaintenance 78950.536392212
scalar OsgEarthNet.uav[28] utilizationEnergyCharge 286569.53222656
scalar OsgEarthNet.uav[28] utilizationEnergyOverdrawMission 0
scalar OsgEarthNet.uav[28] utilizationEnergyOverdrawMaintenance 0
scalar OsgEarthNet.uav[28] utilizationCountMissions 62
scalar OsgEarthNet.uav[28] utilizationCountManeuversMission 1102
scalar OsgEarthNet.uav[28] utilizationCountManeuversMaintenance 124
scalar OsgEarthNet.uav[28] utilizationCountChargeState 62
scalar OsgEarthNet.uav[28] utilizationCountOverdrawnAfterMission 0
scalar OsgEarthNet.uav[28] utilizationCountIdleState 4
scalar OsgEarthNet.uav[28] utilizationFail 0
scalar OsgEarthNet.uav[28] simulationTime 259200
scalar OsgEarthNet.uav[29] utilizationSecMission 7621.2503051606
scalar OsgEarthNet.uav[29] utilizationSecMaintenance 6377.438148882
scalar OsgEarthNet.uav[29] utilizationSecCharge 52750
scalar OsgEarthNet.uav[29] utilizationSecIdle 192451.31054596
scalar OsgEarthNet.uav[29] utilizationEnergyMission 37114.313327789
scalar OsgEarthNet.uav[29] utilizationEnergyMaintenance 30107.512134552
scalar OsgEarthNet.uav[29] utilizationEnergyCharge 68031.440917969
scalar OsgEarthNet.uav[29] utilizationEnergyOverdrawMission 0
scalar OsgEarthNet.uav[29] utilizationEnergyOverdrawMaintenance 0
scalar OsgEarthNet.uav[29] utilizationCountMissions 15
scalar OsgEarthNet.uav[29] utilizationCountManeuversMission 329
scalar OsgEarthNet.uav[29] utilizationCountManeuversMaintenance 30
scalar OsgEarthNet.uav[29] utilizationCountChargeState 15
scalar OsgEarthNet.uav[29] utilizationCountOverdrawnAfterMission 0
scalar OsgEarthNet.uav[29] utilizationCountIdleState 16
scalar OsgEarthNet.uav[29] utilizationFail 0
scalar OsgEarthNet.uav[29] simulationTime 259200
scalar OsgEarthNet.uav[30] utilizationSecMission 7883.1257629014
scalar OsgEarthNet.uav[30] utilizationSecMaintenance 5002.5464862891
scalar OsgEarthNet.uav[30] utilizationSecCharge 48025.298227227
scalar OsgEarthNet.uav[30] utilizationSecIdle 198289.02852358
scalar OsgEarthNet.uav[30] utilizationEnergyMission 38828.67609024
scalar OsgEarthNet.uav[30] utilizationEnergyMaintenance 23867.227802277
scalar OsgEarthNet.uav[30] utilizationEnergyCharge 62933.749023438
scalar OsgEarthNet.uav[30] utilizationEnergyOverdrawMission 0
scalar OsgEarthNet.uav[30] utilizationEnergyOverdrawMaintenance 0
scalar OsgEarthNet.uav[30] utilizationCountMissions 14
scalar OsgEarthNet.uav[30] utilizationCountManeuversMission 264
scalar OsgEarthNet.uav[30] utilizationCountManeuversMaintenance 28
scalar OsgEarthNet.uav[30] utilizationCountChargeState 14
scalar OsgEarthNet.uav[30] utilizationCountOverdrawnAfterMission 0
scalar OsgEarthNet.uav[30] utilizationCountIdleState 14
scalar OsgEarthNet.uav[30] utilizationFail 0
scalar OsgEarthNet.uav[30] simulationTime 259200
scalar OsgEarthNet.uav[31] utilizationSecMission 21155.994377632
scalar OsgEarthNet.uav[31] utilizationSecMaintenance 13927.620915926
scalar OsgEarthNet.uav[31] utilizationSecCharge 134100
scalar OsgEarthNet.uav[31] utilizationSecIdle 90016.383706442
scalar OsgEarthNet.uav[31] utilizationEnergyMission 103707.4493103
scalar OsgEarthNet.uav[31] utilizationEnergyMaintenance 66512.825645447
scalar OsgEarthNet.uav[31] utilizationEnergyCharge 167955.99633789
scalar OsgEarthNet.uav[31] utilizationEnergyOverdrawMission 0
scalar OsgEarthNet.uav[31] utilizationEnergyOverdrawMaintenance 0
scalar OsgEarthNet.uav[31] utilizationCountMissions 41
scalar OsgEarthNet.uav[31] utilizationCountManeuversMission 723
scalar OsgEarthNet.uav[31] utilizationCountManeuversMaintenance 82
scalar OsgEarthNet.uav[31] utilizationCountChargeState 41
scalar OsgEarthNet.uav[31] utilizationCountOverdrawnAfterMission 0
scalar OsgEarthNet.uav[31] utilizationCountIdleState 42
scalar OsgEarthNet.uav[31] utilizationFail 0
scalar OsgEarthNet.uav[31] simulationTime 259200
scalar OsgEarthNet.uav[32] utilizationSecMission 37510.368138726
scalar OsgEarthNet.uav[32] utilizationSecMaintenance 17458.226060316
scalar OsgEarthNet.uav[32] utilizationSecCharge 181759.40380096
scalar OsgEarthNet.uav[32] utilizationSecIdle 22472.001
scalar OsgEarthNet.uav[32] utilizationEnergyMission 184054.91872406
scalar OsgEarthNet.uav[32] utilizationEnergyMaintenance 82478.066482544
scalar OsgEarthNet.uav[32] utilizationEnergyCharge 265050.55810547
scalar OsgEarthNet.uav[32] utilizationEnergyOverdrawMission 0
scalar OsgEarthNet.uav[32] utilizationEnergyOverdrawMaintenance 0
scalar OsgEarthNet.uav[32] utilizationCountMissions 59
scalar OsgEarthNet.uav[32] utilizationCountManeuversMission 1294
scalar OsgEarthNet.uav[32] utilizationCountManeuversMaintenance 118
scalar OsgEarthNet.uav[32] utilizationCountChargeState 59
scalar OsgEarthNet.uav[32] utilizationCountOverdrawnAfterMission 0
scalar OsgEarthNet.uav[32] utilizationCountIdleState 8
scalar OsgEarthNet.uav[32] utilizationFail 0
scalar OsgEarthNet.uav[32] simulationTime 259200
scalar OsgEarthNet.uav[33] utilizationSecMission 13275.889367187
scalar OsgEarthNet.uav[33] utilizationSecMaintenance 9836.3361472199
scalar OsgEarthNet.uav[33] utilizationSecCharge 87090
scalar OsgEarthNet.uav[33] utilizationSecIdle 148997.77348559
scalar OsgEarthNet.uav[33] utilizationEnergyMission 65694.3322258
scalar OsgEarthNet.uav[33] utilizationEnergyMaintenance 46657.738079071
scalar OsgEarthNet.uav[33] utilizationEnergyCharge 111726.34423828
scalar OsgEarthNet.uav[33] utilizationEnergyOverdrawMission 0
scalar OsgEarthNet.uav[33] utilizationEnergyOverdrawMaintenance 0
scalar OsgEarthNet.uav[33] utilizationCountMissions 25
scalar OsgEarthNet.uav[33] utilizationCountManeuversMission 496
scalar OsgEarthNet.uav[33] utilizationCountManeuversMaintenance 50
scalar OsgEarthNet.uav[33] utilizationCountChargeState 25
scalar OsgEarthNet.uav[33] utilizationCountOverdrawnAfterMission 0
scalar OsgEarthNet.uav[33] utilizationCountIdleState 26
scalar OsgEarthNet.uav[33] utilizationFail 0
scalar OsgEarthNet.uav[33] simulationTime 259200
scalar OsgEarthNet.uav[34] utilizationSecMission 18432.344475756
scalar OsgEarthNet.uav[34] utilizationSecMaintenance 12125.623156901
scalar OsgEarthNet.uav[34] utilizationSecCharge 118610
scalar OsgEarthNet.uav[34] utilizationSecIdle 110032.03136734
scalar OsgEarthNet.uav[34] utilizationEnergyMission 88993.865123749
scalar OsgEarthNet.uav[34] utilizationEnergyMaintenance 57552.126869202
scalar OsgEarthNet.uav[34] utilizationEnergyCharge 147266.1887207
scalar OsgEarthNet.uav[34] utilizationEnergyOverdrawMission 0
scalar OsgEarthNet.uav[34] utilizationEnergyOverdrawMaintenance 0
scalar OsgEarthNet.uav[34] utilizationCountMissions 37
scalar OsgEarthNet.uav[34] utilizationCountManeuversMission 557
scalar OsgEarthNet.uav[34] utilizationCountManeuversMaintenance 74
scalar OsgEarthNet.uav[34] utilizationCountChargeState 37
scalar OsgEarthNet.uav[34] utilizationCountOverdrawnAfterMission 0
scalar OsgEarthNet.uav[34] utilizationCountIdleState 38
scalar OsgEarthNet.uav[34] utilizationFail 0
scalar OsgEarthNet.uav[34] simulationTime 259200
scalar OsgEarthNet.uav[35] utilizationSecMission 42643.325302426
scalar OsgEarthNet.uav[35] utilizationSecMaintenance 17627.093679513
scalar OsgEarthNet.uav[35] utilizationSecCharge 195193.83132756
scalar OsgEarthNet.uav[35] utilizationSecIdle 3735.7486904992
scalar OsgEarthNet.uav[35] utilizationEnergyMission 204165.06310272
scalar OsgEarthNet.uav[35] utilizationEnergyMaintenance 81174.027740479
scalar OsgEarthNet.uav[35] utilizationEnergyCharge 287470.75292969
scalar OsgEarthNet.uav[35] utilizationEnergyOverdrawMission 0
scalar OsgEarthNet.uav[35] utilizationEnergyOverdrawMaintenance 0
scalar OsgEarthNet.uav[35] utilizationCountMissions 63
scalar OsgEarthNet.uav[35] utilizationCountManeuversMission 1234
scalar OsgEarthNet.uav[35] utilizationCountManeuversMaintenance 126
scalar OsgEarthNet.uav[35] utilizationCountChargeState 63
scalar OsgEarthNet.uav[35] utilizationCountOverdrawnAfterMission 0
scalar OsgEarthNet.uav[35] utilizationCountIdleState 2
scalar OsgEarthNet.uav[35] utilizationFail 0
scalar OsgEarthNet.uav[35] simulationTime 259200
scalar OsgEarthNet.uav[36] utilizationSecMission 43338.954769647
scalar OsgEarthNet.uav[36] utilizationSecMaintenance 17690.783218093
scalar OsgEarthNet.uav[36] utilizationSecCharge 196874.23940106
scalar OsgEarthNet.uav[36] utilizationSecIdle 1296.0216111988
scalar OsgEarthNet.uav[36] utilizationEnergyMission 208543.65704346
scalar OsgEarthNet.uav[36] utilizationEnergyMaintenance 82342.326869965
scalar OsgEarthNet.uav[36] utilizationEnergyCharge 288855.09423828
scalar OsgEarthNet.uav[36] utilizationEnergyOverdrawMission 0
scalar OsgEarthNet.uav[36] utilizationEnergyOverdrawMaintenance 0
scalar OsgEarthNet.uav[36] utilizationCountMissions 64
scalar OsgEarthNet.uav[36] utilizationCountManeuversMission 1216
scalar OsgEarthNet.uav[36] utilizationCountManeuversMaintenance 128
scalar OsgEarthNet.uav[36] utilizationCountChargeState 64
scalar OsgEarthNet.uav[36] utilizationCountOverdrawnAfterMission 0
scalar OsgEarthNet.uav[36] utilizationCountIdleState 3
scalar OsgEarthNet.uav[36] utilizationFail 0
scalar OsgEarthNet.uav[36] simulationTime 259200
scalar OsgEarthNet.uav[37] utilizationSecMission 17135.616410476
scalar OsgEarthNet.uav[37] utilizationSecMaintenance 11476.028986645
scalar OsgEarthNet.uav[37] utilizationSecCharge 109100
scalar OsgEarthNet.uav[37] utilizationSecIdle 121488.35360288
scalar OsgEarthNet.uav[37] utilizationEnergyMission 84300.974227009
scalar OsgEarthNet.uav[37] utilizationEnergyMaintenance 54240.291801453
scalar OsgEarthNet.uav[37] utilizationEnergyCharge 137279.55932617
scalar OsgEarthNet.uav[37] utilizationEnergyOverdrawMission 0
scalar OsgEarthNet.uav[37] utilizationEnergyOverdrawMaintenance 0
scalar OsgEarthNet.uav[37] utilizationCountMissions 33
scalar OsgEarthNet.uav[37] utilizationCountManeuversMission 589
scalar OsgEarthNet.uav[37] utilizationCountManeuversMaintenance 67
scalar OsgEarthNet.uav[37] utilizationCountChargeState 33
scalar OsgEarthNet.uav[37] utilizationCountOverdrawnAfterMission 0
scalar OsgEarthNet.uav[37] utilizationCountIdleState 34
scalar OsgEarthNet.uav[37] utilizationFail 0
scalar OsgEarthNet.uav[37] simulationTime 259200
scalar OsgEarthNet.uav[38] utilizationSecMission 43056.952080437
scalar OsgEarthNet.uav[38] utilizationSecMaintenance 17795.641523769
scalar OsgEarthNet.uav[38] utilizationSecCharge 194945.40039579
scalar OsgEarthNet.uav[38] utilizationSecIdle 3402.005
scalar OsgEarthNet.uav[38] utilizationEnergyMission 207265.5402832
scalar OsgEarthNet.uav[38] utilizationEnergyMaintenance 81722.448261261
scalar OsgEarthNet.uav[38] utilizationEnergyCharge 287529.8503418
scalar OsgEarthNet.uav[38] utilizationEnergyOverdrawMission 0
scalar OsgEarthNet.uav[38] utilizationEnergyOverdrawMaintenance 0
scalar OsgEarthNet.uav[38] utilizationCountMissions 63
scalar OsgEarthNet.uav[38] utilizationCountManeuversMission 1224
scalar OsgEarthNet.uav[38] utilizationCountManeuversMaintenance 126
scalar OsgEarthNet.uav[38] utilizationCountChargeState 63
scalar OsgEarthNet.uav[38] utilizationCountOverdrawnAfterMission 0
scalar OsgEarthNet.uav[38] utilizationCountIdleState 2
scalar OsgEarthNet.uav[38] utilizationFail 0
scalar OsgEarthNet.uav[38] simulationTime 259200
scalar OsgEarthNet.uav[39] utilizationSecMission 15144.376068062
scalar OsgEarthNet.uav[39] utilizationSecMaintenance 10845.435630184
scalar OsgEarthNet.uav[39] utilizationSecCharge 97940
scalar OsgEarthNet.uav[39] utilizationSecIdle 135270.18730175
scalar OsgEarthNet.uav[39] utilizationEnergyMission 75784.728618622
scalar OsgEarthNet.uav[39] utilizationEnergyMaintenance 51432.810970306
scalar OsgEarthNet.uav[39] utilizationEnergyCharge 125906.16845703
scalar OsgEarthNet.uav[39] utilizationEnergyOverdrawMission 0
scalar OsgEarthNet.uav[39] utilizationEnergyOverdrawMaintenance 0
scalar OsgEarthNet.uav[39] utilizationCountMissions 28
scalar OsgEarthNet.uav[39] utilizationCountManeuversMission 575
scalar OsgEarthNet.uav[39] utilizationCountManeuversMaintenance 56
scalar OsgEarthNet.uav[39] utilizationCountChargeState 28
scalar OsgEarthNet.uav[39] utilizationCountOverdrawnAfterMission 0
scalar OsgEarthNet.uav[39] utilizationCountIdleState 29
scalar OsgEarthNet.uav[39] utilizationFail 0
scalar OsgEarthNet.uav[39] simulationTime 259200
scalar OsgEarthNet.uav[40] utilizationSecMission 14166.056562022
scalar OsgEarthNet.uav[40] utilizationSecMaintenance 9911.5526203144
scalar OsgEarthNet.uav[40] utilizationSecCharge 90310
scalar OsgEarthNet.uav[40] utilizationSecIdle 144812.38981766
scalar OsgEarthNet.uav[40] utilizationEnergyMission 68622.798633575
scalar OsgEarthNet.uav[40] utilizationEnergyMaintenance 46582.274101257
scalar OsgEarthNet.uav[40] utilizationEnergyCharge 115892.52832031
scalar OsgEarthNet.uav[40] utilizationEnergyOverdrawMission 0
scalar OsgEarthNet.uav[40] utilizationEnergyOverdrawMaintenance 0
scalar OsgEarthNet.uav[40] utilizationCountMissions 26
scalar OsgEarthNet.uav[40] utilizationCountManeuversMission 511
scalar OsgEarthNet.uav[40] utilizationCountManeuversMaintenance 52
scalar OsgEarthNet.uav[40] utilizationCountChargeState 26
scalar OsgEarthNet.uav[40] utilizationCountOverdrawnAfterMission 0
scalar OsgEarthNet.uav[40] utilizationCountIdleState 27
scalar OsgEarthNet.uav[40] utilizationFail 0
scalar OsgEarthNet.uav[40] simulationTime 259200
scalar OsgEarthNet.uav[41] utilizationSecMission 13875.152757244
scalar OsgEarthNet.uav[41] utilizationSecMaintenance 9872.3115304992
scalar OsgEarthNet.uav[41] utilizationSecCharge 91850
scalar OsgEarthNet.uav[41] utilizationSecIdle 143602.53471226
scalar OsgEarthNet.uav[41] utilizationEnergyMission 68746.717437744
scalar OsgEarthNet.uav[41] utilizationEnergyMaintenance 45976.894100189
scalar OsgEarthNet.uav[41] utilizationEnergyCharge 115007.58618164
scalar OsgEarthNet.uav[41] utilizationEnergyOverdrawMission 0
scalar OsgEarthNet.uav[41] utilizationEnergyOverdrawMaintenance 0
scalar OsgEarthNet.uav[41] utilizationCountMissions 28
scalar OsgEarthNet.uav[41] utilizationCountManeuversMission 537
scalar OsgEarthNet.uav[41] utilizationCountManeuversMaintenance 56
scalar OsgEarthNet.uav[41] utilizationCountChargeState 28
scalar OsgEarthNet.uav[41] utilizationCountOverdrawnAfterMission 0
scalar OsgEarthNet.uav[41] utilizationCountIdleState 29
scalar OsgEarthNet.uav[41] utilizationFail 0
scalar OsgEarthNet.uav[41] simulationTime 259200
scalar OsgEarthNet.uav[42] utilizationSecMission 42837.354848137
scalar OsgEarthNet.uav[42] utilizationSecMaintenance 17980.638151863
scalar OsgEarthNet.uav[42] utilizationSecCharge 195420
scalar OsgEarthNet.uav[42] utilizationSecIdle 2962.006
scalar OsgEarthNet.uav[42] utilizationEnergyMission 207202.82281113
scalar OsgEarthNet.uav[42] utilizationEnergyMaintenance 83984.999302847
scalar OsgEarthNet.uav[42] utilizationEnergyCharge 290070.03662109
scalar OsgEarthNet.uav[42] utilizationEnergyOverdrawMission 0
scalar OsgEarthNet.uav[42] utilizationEnergyOverdrawMaintenance 0
scalar OsgEarthNet.uav[42] utilizationCountMissions 63
scalar OsgEarthNet.uav[42] utilizationCountManeuversMission 1295
scalar OsgEarthNet.uav[42] utilizationCountManeuversMaintenance 127
scalar OsgEarthNet.uav[42] utilizationCountChargeState 63
scalar OsgEarthNet.uav[42] utilizationCountOverdrawnAfterMission 0
scalar OsgEarthNet.uav[42] utilizationCountIdleState 1
scalar OsgEarthNet.uav[42] utilizationFail 0
scalar OsgEarthNet.uav[42] simulationTime 259200
scalar OsgEarthNet.uav[43] utilizationSecMission 19410.002441285
scalar OsgEarthNet.uav[43] utilizationSecMaintenance 10686.42217504
scalar OsgEarthNet.uav[43] utilizationSecCharge 112120
scalar OsgEarthNet.uav[43] utilizationSecIdle 116983.57438368
scalar OsgEarthNet.uav[43] utilizationEnergyMission 93593.957321167
scalar OsgEarthNet.uav[43] utilizationEnergyMaintenance 50766.627655029
scalar OsgEarthNet.uav[43] utilizationEnergyCharge 144145.82617188
scalar OsgEarthNet.uav[43] utilizationEnergyOverdrawMission 0
scalar OsgEarthNet.uav[43] utilizationEnergyOverdrawMaintenance 0
scalar OsgEarthNet.uav[43] utilizationCountMissions 32
scalar OsgEarthNet.uav[43] utilizationCountManeuversMission 554
scalar OsgEarthNet.uav[43] utilizationCountManeuversMaintenance 64
scalar OsgEarthNet.uav[43] utilizationCountChargeState 32
scalar OsgEarthNet.uav[43] utilizationCountOverdrawnAfterMission 0
scalar OsgEarthNet.uav[43] utilizationCountIdleState 33
scalar OsgEarthNet.uav[43] utilizationFail 0
scalar OsgEarthNet.uav[43] simulationTime 259200
scalar OsgEarthNet.uav[44] utilizationSecMission 21991.701740389
scalar OsgEarthNet.uav[44] utilizationSecMaintenance 15723.685370094
scalar OsgEarthNet.uav[44] utilizationSecCharge 148510
scalar OsgEarthNet.uav[44] utilizationSecIdle 72974.611889516
scalar OsgEarthNet.uav[44] utilizationEnergyMission 107579.85646851
scalar OsgEarthNet.uav[44] utilizationEnergyMaintenance 73675.225494385
scalar OsgEarthNet.uav[44] utilizationEnergyCharge 182988.19799805
scalar OsgEarthNet.uav[44] utilizationEnergyOverdrawMission 0
scalar OsgEarthNet.uav[44] utilizationEnergyOverdrawMaintenance 0
scalar OsgEarthNet.uav[44] utilizationCountMissions 47
scalar OsgEarthNet.uav[44] utilizationCountManeuversMission 695
scalar OsgEarthNet.uav[44] utilizationCountManeuversMaintenance 95
scalar OsgEarthNet.uav[44] utilizationCountChargeState 47
scalar OsgEarthNet.uav[44] utilizationCountOverdrawnAfterMission 0
scalar OsgEarthNet.uav[44] utilizationCountIdleState 48
scalar OsgEarthNet.uav[44] utilizationFail 0
scalar OsgEarthNet.uav[44] simulationTime 259200
scalar OsgEarthNet.uav[45] utilizationSecMission 43303.011804804
scalar OsgEarthNet.uav[45] utilizationSecMaintenance 17939.255599267
scalar OsgEarthNet.uav[45] utilizationSecCharge 196025.72859593
scalar OsgEarthNet.uav[45] utilizationSecIdle 1932.003
scalar OsgEarthNet.uav[45] utilizationEnergyMission 207594.30084991
scalar OsgEarthNet.uav[45] utilizationEnergyMaintenance 82638.490512848
scalar OsgEarthNet.uav[45] utilizationEnergyCharge 286843.60229492
scalar OsgEarthNet.uav[45] utilizationEnergyOverdrawMission 0
scalar OsgEarthNet.uav[45] utilizationEnergyOverdrawMaintenance 0
scalar OsgEarthNet.uav[45] utilizationCountMissions 63
scalar OsgEarthNet.uav[45] utilizationCountManeuversMission 1172
scalar OsgEarthNet.uav[45] utilizationCountManeuversMaintenance 126
scalar OsgEarthNet.uav[45] utilizationCountChargeState 63
scalar OsgEarthNet.uav[45] utilizationCountOverdrawnAfterMission 0
scalar OsgEarthNet.uav[45] utilizationCountIdleState 4
scalar OsgEarthNet.uav[45] utilizationFail 0
scalar OsgEarthNet.uav[45] simulationTime 259200
scalar OsgEarthNet.uav[46] utilizationSecMission 13505.517298143
scalar OsgEarthNet.uav[46] utilizationSecMaintenance 8539.9494456142
scalar OsgEarthNet.uav[46] utilizationSecCharge 78442.521256242
scalar OsgEarthNet.uav[46] utilizationSecIdle 158712.011
scalar OsgEarthNet.uav[46] utilizationEnergyMission 64987.084117889
scalar OsgEarthNet.uav[46] utilizationEnergyMaintenance 40479.495105743
scalar OsgEarthNet.uav[46] utilizationEnergyCharge 101572.17382812
scalar OsgEarthNet.uav[46] utilizationEnergyOverdrawMission 0
scalar OsgEarthNet.uav[46] utilizationEnergyOverdrawMaintenance 0
scalar OsgEarthNet.uav[46] utilizationCountMissions 23
scalar OsgEarthNet.uav[46] utilizationCountManeuversMission 458
scalar OsgEarthNet.uav[46] utilizationCountManeuversMaintenance 46
scalar OsgEarthNet.uav[46] utilizationCountChargeState 23
scalar OsgEarthNet.uav[46] utilizationCountOverdrawnAfterMission 0
scalar OsgEarthNet.uav[46] utilizationCountIdleState 23
scalar OsgEarthNet.uav[46] utilizationFail 0
scalar OsgEarthNet.uav[46] simulationTime 259200
scalar OsgEarthNet.uav[47] utilizationSecMission 17197.812118101
scalar OsgEarthNet.uav[47] utilizationSecMaintenance 12716.272535211
scalar OsgEarthNet.uav[47] utilizationSecCharge 118810
scalar OsgEarthNet.uav[47] utilizationSecIdle 110475.91434669
scalar OsgEarthNet.uav[47] utilizationEnergyMission 83651.222026825
scalar OsgEarthNet.uav[47] utilizationEnergyMaintenance 60800.167591095
scalar OsgEarthNet.uav[47] utilizationEnergyCharge 145554.58618164
scalar OsgEarthNet.uav[47] utilizationEnergyOverdrawMission 0
scalar OsgEarthNet.uav[47] utilizationEnergyOverdrawMaintenance 0
scalar OsgEarthNet.uav[47] utilizationCountMissions 38
scalar OsgEarthNet.uav[47] utilizationCountManeuversMission 583
scalar OsgEarthNet.uav[47] utilizationCountManeuversMaintenance 76
scalar OsgEarthNet.uav[47] utilizationCountChargeState 38
scalar OsgEarthNet.uav[47] utilizationCountOverdrawnAfterMission 0
scalar OsgEarthNet.uav[47] utilizationCountIdleState 39
scalar OsgEarthNet.uav[47] utilizationFail 0
scalar OsgEarthNet.uav[47] simulationTime 259200
scalar OsgEarthNet.uav[48] utilizationSecMission 41518.934597879
scalar OsgEarthNet.uav[48] utilizationSecMaintenance 19661.844788205
scalar OsgEarthNet.uav[48] utilizationSecCharge 197110
scalar OsgEarthNet.uav[48] utilizationSecIdle 909.21961391566
scalar OsgEarthNet.uav[48] utilizationEnergyMission 201919.620942
scalar OsgEarthNet.uav[48] utilizationEnergyMaintenance 90819.830490112
scalar OsgEarthNet.uav[48] utilizationEnergyCharge 291526.48828125
scalar OsgEarthNet.uav[48] utilizationEnergyOverdrawMission 0
scalar OsgEarthNet.uav[48] utilizationEnergyOverdrawMaintenance 0
scalar OsgEarthNet.uav[48] utilizationCountMissions 64
scalar OsgEarthNet.uav[48] utilizationCountManeuversMission 1282
scalar OsgEarthNet.uav[48] utilizationCountManeuversMaintenance 129
scalar OsgEarthNet.uav[48] utilizationCountChargeState 64
scalar OsgEarthNet.uav[48] utilizationCountOverdrawnAfterMission 0
scalar OsgEarthNet.uav[48] utilizationCountIdleState 3
scalar OsgEarthNet.uav[48] utilizationFail 0
scalar OsgEarthNet.uav[48] simulationTime 259200
scalar OsgEarthNet.uav[49] utilizationSecMission 16387.891302344
scalar OsgEarthNet.uav[49] utilizationSecMaintenance 11037.545049195
scalar OsgEarthNet.uav[49] utilizationSecCharge 102620
scalar OsgEarthNet.uav[49] utilizationSecIdle 129154.56264846
scalar OsgEarthNet.uav[49] utilizationEnergyMission 81738.8920784
scalar OsgEarthNet.uav[49] utilizationEnergyMaintenance 53061.475399017
scalar OsgEarthNet.uav[49] utilizationEnergyCharge 132351.89794922
scalar OsgEarthNet.uav[49] utilizationEnergyOverdrawMission 0
scalar OsgEarthNet.uav[49] utilizationEnergyOverdrawMaintenance 0
scalar OsgEarthNet.uav[49] utilizationCountMissions 29
scalar OsgEarthNet.uav[49] utilizationCountManeuversMission 578
scalar OsgEarthNet.uav[49] utilizationCountManeuversMaintenance 57
scalar OsgEarthNet.uav[49] utilizationCountChargeState 29
scalar OsgEarthNet.uav[49] utilizationCountOverdrawnAfterMission 0
scalar OsgEarthNet.uav[49] utilizationCountIdleState 30
scalar OsgEarthNet.uav[49] utilizationFail 0
scalar OsgEarthNet.uav[49] simulationTime 259200
scalar OsgEarthNet.uav[50] utilizationSecMission 16647.501830963
scalar OsgEarthNet.uav[50] utilizationSecMaintenance 10001.064718671
scalar OsgEarthNet.uav[50] utilizationSecCharge 96298.357396463
scalar OsgEarthNet.uav[50] utilizationSecIdle 136253.0750539
scalar OsgEarthNet.uav[50] utilizationEnergyMission 80883.463550568
scalar OsgEarthNet.uav[50] utilizationEnergyMaintenance 47334.401809692
scalar OsgEarthNet.uav[50] utilizationEnergyCharge 124830.9465332
scalar OsgEarthNet.uav[50] utilizationEnergyOverdrawMission 0
scalar OsgEarthNet.uav[50] utilizationEnergyOverdrawMaintenance 0
scalar OsgEarthNet.uav[50] utilizationCountMissions 28
scalar OsgEarthNet.uav[50] utilizationCountManeuversMission 520
scalar OsgEarthNet.uav[50] utilizationCountManeuversMaintenance 56
scalar OsgEarthNet.uav[50] utilizationCountChargeState 28
scalar OsgEarthNet.uav[50] utilizationCountOverdrawnAfterMission 0
scalar OsgEarthNet.uav[50] utilizationCountIdleState 28
scalar OsgEarthNet.uav[50] utilizationFail 0
scalar OsgEarthNet.uav[50] simulationTime 259200
scalar OsgEarthNet.uav[51] utilizationSecMission 20885.862976127
scalar OsgEarthNet.uav[51] utilizationSecMaintenance 13503.724259458
scalar OsgEarthNet.uav[51] utilizationSecCharge 129859.35396922
scalar OsgEarthNet.uav[51] utilizationSecIdle 94951.057795193
scalar OsgEarthNet.uav[51] utilizationEnergyMission 103542.75847244
scalar OsgEarthNet.uav[51] utilizationEnergyMaintenance 63903.372863769
scalar OsgEarthNet.uav[51] utilizationEnergyCharge 165374.92700195
scalar OsgEarthNet.uav[51] utilizationEnergyOverdrawMission 0
scalar OsgEarthNet.uav[51] utilizationEnergyOverdrawMaintenance 0
scalar OsgEarthNet.uav[51] utilizationCountMissions 39
scalar OsgEarthNet.uav[51] utilizationCountManeuversMission 663
scalar OsgEarthNet.uav[51] utilizationCountManeuversMaintenance 78
scalar OsgEarthNet.uav[51] utilizationCountChargeState 39
scalar OsgEarthNet.uav[51] utilizationCountOverdrawnAfterMission 0
scalar OsgEarthNet.uav[51] utilizationCountIdleState 39
scalar OsgEarthNet.uav[51] utilizationFail 0
scalar OsgEarthNet.uav[51] simulationTime 259200
scalar OsgEarthNet.uav[52] utilizationSecMission 42265.326936774
scalar OsgEarthNet.uav[52] utilizationSecMaintenance 19091.954471654
scalar OsgEarthNet.uav[52] utilizationSecCharge 196243.29224428
scalar OsgEarthNet.uav[52] utilizationSecIdle 1599.4253472904
scalar OsgEarthNet.uav[52] utilizationEnergyMission 205639.22563934
scalar OsgEarthNet.uav[52] utilizationEnergyMaintenance 88358.745464325
scalar OsgEarthNet.uav[52] utilizationEnergyCharge 292407.88818359
scalar OsgEarthNet.uav[52] utilizationEnergyOverdrawMission 0
scalar OsgEarthNet.uav[52] utilizationEnergyOverdrawMaintenance 0
scalar OsgEarthNet.uav[52] utilizationCountMissions 65
scalar OsgEarthNet.uav[52] utilizationCountManeuversMission 1418
scalar OsgEarthNet.uav[52] utilizationCountManeuversMaintenance 130
scalar OsgEarthNet.uav[52] utilizationCountChargeState 65
scalar OsgEarthNet.uav[52] utilizationCountOverdrawnAfterMission 0
scalar OsgEarthNet.uav[52] utilizationCountIdleState 3
scalar OsgEarthNet.uav[52] utilizationFail 0
scalar OsgEarthNet.uav[52] simulationTime 259200
scalar OsgEarthNet.uav[53] utilizationSecMission 16206.876678383
scalar OsgEarthNet.uav[53] utilizationSecMaintenance 10167.922851207
scalar OsgEarthNet.uav[53] utilizationSecCharge 98990
scalar OsgEarthNet.uav[53] utilizationSecIdle 133835.19947041
scalar OsgEarthNet.uav[53] utilizationEnergyMission 79291.424247742
scalar OsgEarthNet.uav[53] utilizationEnergyMaintenance 48123.286453247
scalar OsgEarthNet.uav[53] utilizationEnergyCharge 127576.31982422
scalar OsgEarthNet.uav[53] utilizationEnergyOverdrawMission 0
scalar OsgEarthNet.uav[53] utilizationEnergyOverdrawMaintenance 0
scalar OsgEarthNet.uav[53] utilizationCountMissions 28
scalar OsgEarthNet.uav[53] utilizationCountManeuversMission 524
scalar OsgEarthNet.uav[53] utilizationCountManeuversMaintenance 56
scalar OsgEarthNet.uav[53] utilizationCountChargeState 28
scalar OsgEarthNet.uav[53] utilizationCountOverdrawnAfterMission 0
scalar OsgEarthNet.uav[53] utilizationCountIdleState 29
scalar OsgEarthNet.uav[53] utilizationFail 0
scalar OsgEarthNet.uav[53] simulationTime 259200
scalar OsgEarthNet.uav[54] utilizationSecMission 20592.137675893
scalar OsgEarthNet.uav[54] utilizationSecMaintenance 13245.560422942
scalar OsgEarthNet.uav[54] utilizationSecCharge 127710.28890116
scalar OsgEarthNet.uav[54] utilizationSecIdle 97652.012
scalar OsgEarthNet.uav[54] utilizationEnergyMission 100220.04753876
scalar OsgEarthNet.uav[54] utilizationEnergyMaintenance 62707.384601593
scalar OsgEarthNet.uav[54] utilizationEnergyCharge 161602.91015625
scalar OsgEarthNet.uav[54] utilizationEnergyOverdrawMission 0
scalar OsgEarthNet.uav[54] utilizationEnergyOverdrawMaintenance 0
scalar OsgEarthNet.uav[54] utilizationCountMissions 39
scalar OsgEarthNet.uav[54] utilizationCountManeuversMission 688
scalar OsgEarthNet.uav[54] utilizationCountManeuversMaintenance 78
scalar OsgEarthNet.uav[54] utilizationCountChargeState 39
scalar OsgEarthNet.uav[54] utilizationCountOverdrawnAfterMission 0
scalar OsgEarthNet.uav[54] utilizationCountIdleState 39
scalar OsgEarthNet.uav[54] utilizationFail 0
scalar OsgEarthNet.uav[54] simulationTime 259200
scalar OsgEarthNet.uav[55] utilizationSecMission 42225.603556457
scalar OsgEarthNet.uav[55] utilizationSecMaintenance 18417.517162291
scalar OsgEarthNet.uav[55] utilizationSecCharge 195904.87328125
scalar OsgEarthNet.uav[55] utilizationSecIdle 2652.005
scalar OsgEarthNet.uav[55] utilizationEnergyMission 205838.72338867
scalar OsgEarthNet.uav[55] utilizationEnergyMaintenance 85236.523345947
scalar OsgEarthNet.uav[55] utilizationEnergyCharge 290054.62988281
scalar OsgEarthNet.uav[55] utilizationEnergyOverdrawMission 0
scalar OsgEarthNet.uav[55] utilizationEnergyOverdrawMaintenance 0
scalar OsgEarthNet.uav[55] utilizationCountMissions 64
scalar OsgEarthNet.uav[55] utilizationCountManeuversMission 1250
scalar OsgEarthNet.uav[55] utilizationCountManeuversMaintenance 128
scalar OsgEarthNet.uav[55] utilizationCountChargeState 64
scalar OsgEarthNet.uav[55] utilizationCountOverdrawnAfterMission 0
scalar OsgEarthNet.uav[55] utilizationCountIdleState 5
scalar OsgEarthNet.uav[55] utilizationFail 0
scalar OsgEarthNet.uav[55] simulationTime 259200
scalar OsgEarthNet.uav[56] utilizationSecMission 17877.243792213
scalar OsgEarthNet.uav[56] utilizationSecMaintenance 11299.064514801
scalar OsgEarthNet.uav[56] utilizationSecCharge 107861.68669299
scalar OsgEarthNet.uav[56] utilizationSecIdle 122162.004
scalar OsgEarthNet.uav[56] utilizationEnergyMission 86148.60515213
scalar OsgEarthNet.uav[56] utilizationEnergyMaintenance 53806.469085693
scalar OsgEarthNet.uav[56] utilizationEnergyCharge 140543.82910156
scalar OsgEarthNet.uav[56] utilizationEnergyOverdrawMission 0
scalar OsgEarthNet.uav[56] utilizationEnergyOverdrawMaintenance 0
scalar OsgEarthNet.uav[56] utilizationCountMissions 31
scalar OsgEarthNet.uav[56] utilizationCountManeuversMission 586
scalar OsgEarthNet.uav[56] utilizationCountManeuversMaintenance 62
scalar OsgEarthNet.uav[56] utilizationCountChargeState 31
scalar OsgEarthNet.uav[56] utilizationCountOverdrawnAfterMission 0
scalar OsgEarthNet.uav[56] utilizationCountIdleState 31
scalar OsgEarthNet.uav[56] utilizationFail 0
scalar OsgEarthNet.uav[56] simulationTime 259200
scalar OsgEarthNet.uav[57] utilizationSecMission 22393.253345991
scalar OsgEarthNet.uav[57] utilizationSecMaintenance 15663.058760788
scalar OsgEarthNet.uav[57] utilizationSecCharge 147731.68489322
scalar OsgEarthNet.uav[57] utilizationSecIdle 73412.002
scalar OsgEarthNet.uav[57] utilizationEnergyMission 111502.49190903
scalar OsgEarthNet.uav[57] utilizationEnergyMaintenance 74392.519844055
scalar OsgEarthNet.uav[57] utilizationEnergyCharge 183769.08862305
scalar OsgEarthNet.uav[57] utilizationEnergyOverdrawMission 0
scalar OsgEarthNet.uav[57] utilizationEnergyOverdrawMaintenance 0
scalar OsgEarthNet.uav[57] utilizationCountMissions 46
scalar OsgEarthNet.uav[57] utilizationCountManeuversMission 784
scalar OsgEarthNet.uav[57] utilizationCountManeuversMaintenance 92
scalar OsgEarthNet.uav[57] utilizationCountChargeState 46
scalar OsgEarthNet.uav[57] utilizationCountOverdrawnAfterMission 0
scalar OsgEarthNet.uav[57] utilizationCountIdleState 46
scalar OsgEarthNet.uav[57] utilizationFail 0
scalar OsgEarthNet.uav[57] simulationTime 259200
scalar OsgEarthNet.uav[58] utilizationSecMission 42264.829970275
scalar OsgEarthNet.uav[58] utilizationSecMaintenance 18682.554524254
scalar OsgEarthNet.uav[58] utilizationSecCharge 197020.61250547
scalar OsgEarthNet.uav[58] utilizationSecIdle 1232.002
scalar OsgEarthNet.uav[58] utilizationEnergyMission 204307.51821899
scalar OsgEarthNet.uav[58] utilizationEnergyMaintenance 84968.082958221
scalar OsgEarthNet.uav[58] utilizationEnergyCharge 290113.56152344
scalar OsgEarthNet.uav[58] utilizationEnergyOverdrawMission 0
scalar OsgEarthNet.uav[58] utilizationEnergyOverdrawMaintenance 0
scalar OsgEarthNet.uav[58] utilizationCountMissions 64
scalar OsgEarthNet.uav[58] utilizationCountManeuversMission 1284
scalar OsgEarthNet.uav[58] utilizationCountManeuversMaintenance 128
scalar OsgEarthNet.uav[58] utilizationCountChargeState 64
scalar OsgEarthNet.uav[58] utilizationCountOverdrawnAfterMission 0
scalar OsgEarthNet.uav[58] utilizationCountIdleState 4
scalar OsgEarthNet.uav[58] utilizationFail 0
scalar OsgEarthNet.uav[58] simulationTime 259200
scalar OsgEarthNet.uav[59] utilizationSecMission 16806.251525803
scalar OsgEarthNet.uav[59] utilizationSecMaintenance 11530.046265083
scalar OsgEarthNet.uav[59] utilizationSecCharge 106080
scalar OsgEarthNet.uav[59] utilizationSecIdle 124783.70120911
scalar OsgEarthNet.uav[59] utilizationEnergyMission 81074.113960266
scalar OsgEarthNet.uav[59] utilizationEnergyMaintenance 55335.189212935
scalar OsgEarthNet.uav[59] utilizationEnergyCharge 136918.83496094
scalar OsgEarthNet.uav[59] utilizationEnergyOverdrawMission 0
scalar OsgEarthNet.uav[59] utilizationEnergyOverdrawMaintenance 0
scalar OsgEarthNet.uav[59] utilizationCountMissions 30
scalar OsgEarthNet.uav[59] utilizationCountManeuversMission 580
scalar OsgEarthNet.uav[59] utilizationCountManeuversMaintenance 61
scalar OsgEarthNet.uav[59] utilizationCountChargeState 30
scalar OsgEarthNet.uav[59] utilizationCountOverdrawnAfterMission 0
scalar OsgEarthNet.uav[59] utilizationCountIdleState 31
scalar OsgEarthNet.uav[59] utilizationFail 0
scalar OsgEarthNet.uav[59] simulationTime 259200
scalar OsgEarthNet.uav[60] utilizationSecMission 19488.752136124
scalar OsgEarthNet.uav[60] utilizationSecMaintenance 11380.242969409
scalar OsgEarthNet.uav[60] utilizationSecCharge 116290
scalar OsgEarthNet.uav[60] utilizationSecIdle 112041.00389447
scalar OsgEarthNet.uav[60] utilizationEnergyMission 95353.822540283
scalar OsgEarthNet.uav[60] utilizationEnergyMaintenance 54154.267559051
scalar OsgEarthNet.uav[60] utilizationEnergyCharge 149530.23779297
scalar OsgEarthNet.uav[60] utilizationEnergyOverdrawMission 0
scalar OsgEarthNet.uav[60] utilizationEnergyOverdrawMaintenance 0
scalar OsgEarthNet.uav[60] utilizationCountMissions 33
scalar OsgEarthNet.uav[60] utilizationCountManeuversMission 610
scalar OsgEarthNet.uav[60] utilizationCountManeuversMaintenance 66
scalar OsgEarthNet.uav[60] utilizationCountChargeState 33
scalar OsgEarthNet.uav[60] utilizationCountOverdrawnAfterMission 0
scalar OsgEarthNet.uav[60] utilizationCountIdleState 34
scalar OsgEarthNet.uav[60] utilizationFail 0
scalar OsgEarthNet.uav[60] simulationTime 259200
scalar OsgEarthNet.uav[61] utilizationSecMission 23451.849205247
scalar OsgEarthNet.uav[61] utilizationSecMaintenance 15811.190127672
scalar OsgEarthNet.uav[61] utilizationSecCharge 150484.95866708
scalar OsgEarthNet.uav[61] utilizationSecIdle 69452.001
scalar OsgEarthNet.uav[61] utilizationEnergyMission 114261.31333542
scalar OsgEarthNet.uav[61] utilizationEnergyMaintenance 75431.955089569
scalar OsgEarthNet.uav[61] utilizationEnergyCharge 186475.10083008
scalar OsgEarthNet.uav[61] utilizationEnergyOverdrawMission 0
scalar OsgEarthNet.uav[61] utilizationEnergyOverdrawMaintenance 0
scalar OsgEarthNet.uav[61] utilizationCountMissions 48
scalar OsgEarthNet.uav[61] utilizationCountManeuversMission 733
scalar OsgEarthNet.uav[61] utilizationCountManeuversMaintenance 96
scalar OsgEarthNet.uav[61] utilizationCountChargeState 48
scalar OsgEarthNet.uav[61] utilizationCountOverdrawnAfterMission 0
scalar OsgEarthNet.uav[61] utilizationCountIdleState 48
scalar OsgEarthNet.uav[61] utilizationFail 0
scalar OsgEarthNet.uav[61] simulationTime 259200
scalar OsgEarthNet.uav[62] utilizationSecMission 43273.211361986
scalar OsgEarthNet.uav[62] utilizationSecMaintenance 17959.811029397
scalar OsgEarthNet.uav[62] utilizationSecCharge 197774.97660862
scalar OsgEarthNet.uav[62] utilizationSecIdle 192
scalar OsgEarthNet.uav[62] utilizationEnergyMission 209109.72390398
scalar OsgEarthNet.uav[62] utilizationEnergyMaintenance 82446.5701828
scalar OsgEarthNet.uav[62] utilizationEnergyCharge 287837.40881348
scalar OsgEarthNet.uav[62] utilizationEnergyOverdrawMission 0
scalar OsgEarthNet.uav[62] utilizationEnergyOverdrawMaintenance 0
scalar OsgEarthNet.uav[62] utilizationCountMissions 64
scalar OsgEarthNet.uav[62] utilizationCountManeuversMission 1224
scalar OsgEarthNet.uav[62] utilizationCountManeuversMaintenance 127
scalar OsgEarthNet.uav[62] utilizationCountChargeState 64
scalar OsgEarthNet.uav[62] utilizationCountOverdrawnAfterMission 0
scalar OsgEarthNet.uav[62] utilizationCountIdleState 4
scalar OsgEarthNet.uav[62] utilizationFail 0
scalar OsgEarthNet.uav[62] simulationTime 259200
scalar OsgEarthNet.uav[63] utilizationSecMission 17793.425188007
scalar OsgEarthNet.uav[63] utilizationSecMaintenance 9417.1320851432
scalar OsgEarthNet.uav[63] utilizationSecCharge 98450
scalar OsgEarthNet.uav[63] utilizationSecIdle 133539.44172685
scalar OsgEarthNet.uav[63] utilizationEnergyMission 84991.169641911
scalar OsgEarthNet.uav[63] utilizationEnergyMaintenance 44847.462356567
scalar OsgEarthNet.uav[63] utilizationEnergyCharge 126911.48242188
scalar OsgEarthNet.uav[63] utilizationEnergyOverdrawMission 0
scalar OsgEarthNet.uav[63] utilizationEnergyOverdrawMaintenance 0
scalar OsgEarthNet.uav[63] utilizationCountMissions 28
scalar OsgEarthNet.uav[63] utilizationCountManeuversMission 517
scalar OsgEarthNet.uav[63] utilizationCountManeuversMaintenance 57
scalar OsgEarthNet.uav[63] utilizationCountChargeState 28
scalar OsgEarthNet.uav[63] utilizationCountOverdrawnAfterMission 0
scalar OsgEarthNet.uav[63] utilizationCountIdleState 29
scalar OsgEarthNet.uav[63] utilizationFail 0
scalar OsgEarthNet.uav[63] simulationTime 259200
scalar OsgEarthNet.uav[64] utilizationSecMission 23606.4406524
scalar OsgEarthNet.uav[64] utilizationSecMaintenance 14999.183265489
scalar OsgEarthNet.uav[64] utilizationSecCharge 144152.36908211
scalar OsgEarthNet.uav[64] utilizationSecIdle 76442.006
scalar OsgEarthNet.uav[64] utilizationEnergyMission 115339.15379715
scalar OsgEarthNet.uav[64] utilizationEnergyMaintenance 71423.046638489
scalar OsgEarthNet.uav[64] utilizationEnergyCharge 185032.27050781
scalar OsgEarthNet.uav[64] utilizationEnergyOverdrawMission 0
scalar OsgEarthNet.uav[64] utilizationEnergyOverdrawMaintenance 0
scalar OsgEarthNet.uav[64] utilizationCountMissions 46
scalar OsgEarthNet.uav[64] utilizationCountManeuversMission 785
scalar OsgEarthNet.uav[64] utilizationCountManeuversMaintenance 92
scalar OsgEarthNet.uav[64] utilizationCountChargeState 46
scalar OsgEarthNet.uav[64] utilizationCountOverdrawnAfterMission 0
scalar OsgEarthNet.uav[64] utilizationCountIdleState 39
scalar OsgEarthNet.uav[64] utilizationFail 0
scalar OsgEarthNet.uav[64] simulationTime 259200
scalar OsgEarthNet.uav[65] utilizationSecMission 42061.015276526
scalar OsgEarthNet.uav[65] utilizationSecMaintenance 19329.062321999
scalar OsgEarthNet.uav[65] utilizationSecCharge 197707.92140148
[...]
scalar OsgEarthNet.uav[76] utilizationCountMissions 30
scalar OsgEarthNet.uav[76] utilizationCountManeuversMission 564
scalar OsgEarthNet.uav[76] utilizationCountManeuversMaintenance 60
scalar OsgEarthNet.uav[76] utilizationCountChargeState 30
scalar OsgEarthNet.uav[76] utilizationCountOverdrawnAfterMission 0
scalar OsgEarthNet.uav[76] utilizationCountIdleState 31
scalar OsgEarthNet.uav[76] utilizationFail 0
scalar OsgEarthNet.uav[76] simulationTime 259200
scalar OsgEarthNet.uav[77] utilizationSecMission 20147.150883121
scalar OsgEarthNet.uav[77] utilizationSecMaintenance 14237.821267606
scalar OsgEarthNet.uav[77] utilizationSecCharge 133280
scalar OsgEarthNet.uav[77] utilizationSecIdle 91535.026849273
scalar OsgEarthNet.uav[77] utilizationEnergyMission 98886.108867645
scalar OsgEarthNet.uav[77] utilizationEnergyMaintenance 67582.657146454
scalar OsgEarthNet.uav[77] utilizationEnergyCharge 166432.56274414
scalar OsgEarthNet.uav[77] utilizationEnergyOverdrawMission 0
scalar OsgEarthNet.uav[77] utilizationEnergyOverdrawMaintenance 0
scalar OsgEarthNet.uav[77] utilizationCountMissions 41
scalar OsgEarthNet.uav[77] utilizationCountManeuversMission 739
scalar OsgEarthNet.uav[77] utilizationCountManeuversMaintenance 82
scalar OsgEarthNet.uav[77] utilizationCountChargeState 41
scalar OsgEarthNet.uav[77] utilizationCountOverdrawnAfterMission 0
scalar OsgEarthNet.uav[77] utilizationCountIdleState 42
scalar OsgEarthNet.uav[77] utilizationFail 0
scalar OsgEarthNet.uav[77] simulationTime 259200
scalar OsgEarthNet.uav[78] utilizationSecMission 42873.644041308
scalar OsgEarthNet.uav[78] utilizationSecMaintenance 18654.351958692
scalar OsgEarthNet.uav[78] utilizationSecCharge 195570
scalar OsgEarthNet.uav[78] utilizationSecIdle 2102.003
scalar OsgEarthNet.uav[78] utilizationEnergyMission 205849.62613903
scalar OsgEarthNet.uav[78] utilizationEnergyMaintenance 86553.764812469
scalar OsgEarthNet.uav[78] utilizationEnergyCharge 289942.14111328
scalar OsgEarthNet.uav[78] utilizationEnergyOverdrawMission 0
scalar OsgEarthNet.uav[78] utilizationEnergyOverdrawMaintenance 0
scalar OsgEarthNet.uav[78] utilizationCountMissions 63
scalar OsgEarthNet.uav[78] utilizationCountManeuversMission 1194
scalar OsgEarthNet.uav[78] utilizationCountManeuversMaintenance 127
scalar OsgEarthNet.uav[78] utilizationCountChargeState 63
scalar OsgEarthNet.uav[78] utilizationCountOverdrawnAfterMission 0
scalar OsgEarthNet.uav[78] utilizationCountIdleState 2
scalar OsgEarthNet.uav[78] utilizationFail 0
scalar OsgEarthNet.uav[78] simulationTime 259200
scalar OsgEarthNet.uav[79] utilizationSecMission 20007.610906043
scalar OsgEarthNet.uav[79] utilizationSecMaintenance 12857.657967452
scalar OsgEarthNet.uav[79] utilizationSecCharge 119590.40276218
scalar OsgEarthNet.uav[79] utilizationSecIdle 106744.32736433
scalar OsgEarthNet.uav[79] utilizationEnergyMission 96379.100471497
scalar OsgEarthNet.uav[79] utilizationEnergyMaintenance 61191.91336441
scalar OsgEarthNet.uav[79] utilizationEnergyCharge 154250.29620361
scalar OsgEarthNet.uav[79] utilizationEnergyOverdrawMission 0
scalar OsgEarthNet.uav[79] utilizationEnergyOverdrawMaintenance 0
scalar OsgEarthNet.uav[79] utilizationCountMissions 35
scalar OsgEarthNet.uav[79] utilizationCountManeuversMission 671
scalar OsgEarthNet.uav[79] utilizationCountManeuversMaintenance 70
scalar OsgEarthNet.uav[79] utilizationCountChargeState 35
scalar OsgEarthNet.uav[79] utilizationCountOverdrawnAfterMission 0
scalar OsgEarthNet.uav[79] utilizationCountIdleState 35
scalar OsgEarthNet.uav[79] utilizationFail 0
scalar OsgEarthNet.uav[79] simulationTime 259200
scalar OsgEarthNet.uav[80] utilizationSecMission 44399.575262745
scalar OsgEarthNet.uav[80] utilizationSecMaintenance 17936.096839515
scalar OsgEarthNet.uav[80] utilizationSecCharge 196832.32689774
scalar OsgEarthNet.uav[80] utilizationSecIdle 32
scalar OsgEarthNet.uav[80] utilizationEnergyMission 211449.10404205
scalar OsgEarthNet.uav[80] utilizationEnergyMaintenance 81630.052871704
scalar OsgEarthNet.uav[80] utilizationEnergyCharge 289984.59643555
scalar OsgEarthNet.uav[80] utilizationEnergyOverdrawMission 0
scalar OsgEarthNet.uav[80] utilizationEnergyOverdrawMaintenance 0
scalar OsgEarthNet.uav[80] utilizationCountMissions 64
scalar OsgEarthNet.uav[80] utilizationCountManeuversMission 1289
scalar OsgEarthNet.uav[80] utilizationCountManeuversMaintenance 127
scalar OsgEarthNet.uav[80] utilizationCountChargeState 64
scalar OsgEarthNet.uav[80] utilizationCountOverdrawnAfterMission 0
scalar OsgEarthNet.uav[80] utilizationCountIdleState 3
scalar OsgEarthNet.uav[80] utilizationFail 0
scalar OsgEarthNet.uav[80] simulationTime 259200
scalar OsgEarthNet.uav[81] utilizationSecMission 22840.057879233
scalar OsgEarthNet.uav[81] utilizationSecMaintenance 16238.353069049
scalar OsgEarthNet.uav[81] utilizationSecCharge 150860.62406604
scalar OsgEarthNet.uav[81] utilizationSecIdle 69260.963985674
scalar OsgEarthNet.uav[81] utilizationEnergyMission 113072.52656555
scalar OsgEarthNet.uav[81] utilizationEnergyMaintenance 77747.20356369
scalar OsgEarthNet.uav[81] utilizationEnergyCharge 186987.18847656
scalar OsgEarthNet.uav[81] utilizationEnergyOverdrawMission 0
scalar OsgEarthNet.uav[81] utilizationEnergyOverdrawMaintenance 0
scalar OsgEarthNet.uav[81] utilizationCountMissions 48
scalar OsgEarthNet.uav[81] utilizationCountManeuversMission 791
scalar OsgEarthNet.uav[81] utilizationCountManeuversMaintenance 96
scalar OsgEarthNet.uav[81] utilizationCountChargeState 48
scalar OsgEarthNet.uav[81] utilizationCountOverdrawnAfterMission 0
scalar OsgEarthNet.uav[81] utilizationCountIdleState 48
scalar OsgEarthNet.uav[81] utilizationFail 0
scalar OsgEarthNet.uav[81] simulationTime 259200
scalar OsgEarthNet.uav[82] utilizationSecMission 17798.795313251
scalar OsgEarthNet.uav[82] utilizationSecMaintenance 11667.827844911
scalar OsgEarthNet.uav[82] utilizationSecCharge 105360
scalar OsgEarthNet.uav[82] utilizationSecIdle 124373.37584184
scalar OsgEarthNet.uav[82] utilizationEnergyMission 86963.526123047
scalar OsgEarthNet.uav[82] utilizationEnergyMaintenance 55516.553334327
scalar OsgEarthNet.uav[82] utilizationEnergyCharge 135626.04541016
scalar OsgEarthNet.uav[82] utilizationEnergyOverdrawMission 0
scalar OsgEarthNet.uav[82] utilizationEnergyOverdrawMaintenance 0
scalar OsgEarthNet.uav[82] utilizationCountMissions 31
scalar OsgEarthNet.uav[82] utilizationCountManeuversMission 604
scalar OsgEarthNet.uav[82] utilizationCountManeuversMaintenance 62
scalar OsgEarthNet.uav[82] utilizationCountChargeState 30
scalar OsgEarthNet.uav[82] utilizationCountOverdrawnAfterMission 0
scalar OsgEarthNet.uav[82] utilizationCountIdleState 31
scalar OsgEarthNet.uav[82] utilizationFail 0
scalar OsgEarthNet.uav[82] simulationTime 259200
scalar OsgEarthNet.uav[83] utilizationSecMission 16236.618639633
scalar OsgEarthNet.uav[83] utilizationSecMaintenance 10113.647528996
scalar OsgEarthNet.uav[83] utilizationSecCharge 98600
scalar OsgEarthNet.uav[83] utilizationSecIdle 134249.73283137
scalar OsgEarthNet.uav[83] utilizationEnergyMission 77102.320579529
scalar OsgEarthNet.uav[83] utilizationEnergyMaintenance 47964.972854614
scalar OsgEarthNet.uav[83] utilizationEnergyCharge 127160.77685547
scalar OsgEarthNet.uav[83] utilizationEnergyOverdrawMission 0
scalar OsgEarthNet.uav[83] utilizationEnergyOverdrawMaintenance 0
scalar OsgEarthNet.uav[83] utilizationCountMissions 28
scalar OsgEarthNet.uav[83] utilizationCountManeuversMission 530
scalar OsgEarthNet.uav[83] utilizationCountManeuversMaintenance 56
scalar OsgEarthNet.uav[83] utilizationCountChargeState 28
scalar OsgEarthNet.uav[83] utilizationCountOverdrawnAfterMission 0
scalar OsgEarthNet.uav[83] utilizationCountIdleState 29
scalar OsgEarthNet.uav[83] utilizationFail 0
scalar OsgEarthNet.uav[83] simulationTime 259200
scalar OsgEarthNet.uav[84] utilizationSecMission 26520.469838872
scalar OsgEarthNet.uav[84] utilizationSecMaintenance 16939.397833534
scalar OsgEarthNet.uav[84] utilizationSecCharge 164338.13132759
scalar OsgEarthNet.uav[84] utilizationSecIdle 51402
scalar OsgEarthNet.uav[84] utilizationEnergyMission 127388.40045929
scalar OsgEarthNet.uav[84] utilizationEnergyMaintenance 80702.621444702
scalar OsgEarthNet.uav[84] utilizationEnergyCharge 205777.13256836
scalar OsgEarthNet.uav[84] utilizationEnergyOverdrawMission 0
scalar OsgEarthNet.uav[84] utilizationEnergyOverdrawMaintenance 0
scalar OsgEarthNet.uav[84] utilizationCountMissions 51
scalar OsgEarthNet.uav[84] utilizationCountManeuversMission 840
scalar OsgEarthNet.uav[84] utilizationCountManeuversMaintenance 101
scalar OsgEarthNet.uav[84] utilizationCountChargeState 51
scalar OsgEarthNet.uav[84] utilizationCountOverdrawnAfterMission 0
scalar OsgEarthNet.uav[84] utilizationCountIdleState 51
scalar OsgEarthNet.uav[84] utilizationFail 0
scalar OsgEarthNet.uav[84] simulationTime 259200
scalar OsgEarthNet.uav[85] utilizationSecMission 42837.339797234
scalar OsgEarthNet.uav[85] utilizationSecMaintenance 18241.683371331
scalar OsgEarthNet.uav[85] utilizationSecCharge 195160.26777113
scalar OsgEarthNet.uav[85] utilizationSecIdle 2960.7080603066
scalar OsgEarthNet.uav[85] utilizationEnergyMission 204358.55146027
scalar OsgEarthNet.uav[85] utilizationEnergyMaintenance 83939.278675079
scalar OsgEarthNet.uav[85] utilizationEnergyCharge 287365.55200195
scalar OsgEarthNet.uav[85] utilizationEnergyOverdrawMission 0
scalar OsgEarthNet.uav[85] utilizationEnergyOverdrawMaintenance 0
scalar OsgEarthNet.uav[85] utilizationCountMissions 63
scalar OsgEarthNet.uav[85] utilizationCountManeuversMission 1230
scalar OsgEarthNet.uav[85] utilizationCountManeuversMaintenance 126
scalar OsgEarthNet.uav[85] utilizationCountChargeState 63
scalar OsgEarthNet.uav[85] utilizationCountOverdrawnAfterMission 0
scalar OsgEarthNet.uav[85] utilizationCountIdleState 3
scalar OsgEarthNet.uav[85] utilizationFail 0
scalar OsgEarthNet.uav[85] simulationTime 259200
scalar OsgEarthNet.uav[86] utilizationSecMission 19219.119249954
scalar OsgEarthNet.uav[86] utilizationSecMaintenance 11061.12701348
scalar OsgEarthNet.uav[86] utilizationSecCharge 111997.74473657
scalar OsgEarthNet.uav[86] utilizationSecIdle 116922.008
scalar OsgEarthNet.uav[86] utilizationEnergyMission 91432.257656097
scalar OsgEarthNet.uav[86] utilizationEnergyMaintenance 52421.852294922
scalar OsgEarthNet.uav[86] utilizationEnergyCharge 145113.59082031
scalar OsgEarthNet.uav[86] utilizationEnergyOverdrawMission 0
scalar OsgEarthNet.uav[86] utilizationEnergyOverdrawMaintenance 0
scalar OsgEarthNet.uav[86] utilizationCountMissions 32
scalar OsgEarthNet.uav[86] utilizationCountManeuversMission 575
scalar OsgEarthNet.uav[86] utilizationCountManeuversMaintenance 64
scalar OsgEarthNet.uav[86] utilizationCountChargeState 32
scalar OsgEarthNet.uav[86] utilizationCountOverdrawnAfterMission 0
scalar OsgEarthNet.uav[86] utilizationCountIdleState 32
scalar OsgEarthNet.uav[86] utilizationFail 0
scalar OsgEarthNet.uav[86] simulationTime 259200
scalar OsgEarthNet.uav[87] utilizationSecMission 21584.616651343
scalar OsgEarthNet.uav[87] utilizationSecMaintenance 16050.27397214
scalar OsgEarthNet.uav[87] utilizationSecCharge 145751.79197518
scalar OsgEarthNet.uav[87] utilizationSecIdle 75813.316401339
scalar OsgEarthNet.uav[87] utilizationEnergyMission 105737.56254196
scalar OsgEarthNet.uav[87] utilizationEnergyMaintenance 75861.525695801
scalar OsgEarthNet.uav[87] utilizationEnergyCharge 179316.69213867
scalar OsgEarthNet.uav[87] utilizationEnergyOverdrawMission 0
scalar OsgEarthNet.uav[87] utilizationEnergyOverdrawMaintenance 0
scalar OsgEarthNet.uav[87] utilizationCountMissions 47
scalar OsgEarthNet.uav[87] utilizationCountManeuversMission 787
scalar OsgEarthNet.uav[87] utilizationCountManeuversMaintenance 94
scalar OsgEarthNet.uav[87] utilizationCountChargeState 47
scalar OsgEarthNet.uav[87] utilizationCountOverdrawnAfterMission 0
scalar OsgEarthNet.uav[87] utilizationCountIdleState 47
scalar OsgEarthNet.uav[87] utilizationFail 0
scalar OsgEarthNet.uav[87] simulationTime 259200
scalar OsgEarthNet.uav[88] utilizationSecMission 43008.756245577
scalar OsgEarthNet.uav[88] utilizationSecMaintenance 18683.923069255
scalar OsgEarthNet.uav[88] utilizationSecCharge 196025.86672323
scalar OsgEarthNet.uav[88] utilizationSecIdle 1481.4529619338
scalar OsgEarthNet.uav[88] utilizationEnergyMission 205823.58606339
scalar OsgEarthNet.uav[88] utilizationEnergyMaintenance 86012.813594818
scalar OsgEarthNet.uav[88] utilizationEnergyCharge 289762.56738281
scalar OsgEarthNet.uav[88] utilizationEnergyOverdrawMission 0
scalar OsgEarthNet.uav[88] utilizationEnergyOverdrawMaintenance 0
scalar OsgEarthNet.uav[88] utilizationCountMissions 64
scalar OsgEarthNet.uav[88] utilizationCountManeuversMission 1192
scalar OsgEarthNet.uav[88] utilizationCountManeuversMaintenance 128
scalar OsgEarthNet.uav[88] utilizationCountChargeState 64
scalar OsgEarthNet.uav[88] utilizationCountOverdrawnAfterMission 0
scalar OsgEarthNet.uav[88] utilizationCountIdleState 2
scalar OsgEarthNet.uav[88] utilizationFail 0
scalar OsgEarthNet.uav[88] simulationTime 259200
scalar OsgEarthNet.uav[89] utilizationSecMission 20720.994707695
scalar OsgEarthNet.uav[89] utilizationSecMaintenance 10833.209574366
scalar OsgEarthNet.uav[89] utilizationSecCharge 116540
scalar OsgEarthNet.uav[89] utilizationSecIdle 111105.79471794
scalar OsgEarthNet.uav[89] utilizationEnergyMission 100157.62841415
scalar OsgEarthNet.uav[89] utilizationEnergyMaintenance 51599.917034149
scalar OsgEarthNet.uav[89] utilizationEnergyCharge 150387.24023438
scalar OsgEarthNet.uav[89] utilizationEnergyOverdrawMission 0
scalar OsgEarthNet.uav[89] utilizationEnergyOverdrawMaintenance 0
scalar OsgEarthNet.uav[89] utilizationCountMissions 33
scalar OsgEarthNet.uav[89] utilizationCountManeuversMission 572
scalar OsgEarthNet.uav[89] utilizationCountManeuversMaintenance 66
scalar OsgEarthNet.uav[89] utilizationCountChargeState 33
scalar OsgEarthNet.uav[89] utilizationCountOverdrawnAfterMission 0
scalar OsgEarthNet.uav[89] utilizationCountIdleState 34
scalar OsgEarthNet.uav[89] utilizationFail 0
scalar OsgEarthNet.uav[89] simulationTime 259200
scalar OsgEarthNet.uav[90] utilizationSecMission 17556.509564553
scalar OsgEarthNet.uav[90] utilizationSecMaintenance 11906.10619265
scalar OsgEarthNet.uav[90] utilizationSecCharge 108835.3742428
scalar OsgEarthNet.uav[90] utilizationSecIdle 120902.009
scalar OsgEarthNet.uav[90] utilizationEnergyMission 85103.997550964
scalar OsgEarthNet.uav[90] utilizationEnergyMaintenance 56391.366657257
scalar OsgEarthNet.uav[90] utilizationEnergyCharge 140893.70458984
scalar OsgEarthNet.uav[90] utilizationEnergyOverdrawMission 0
scalar OsgEarthNet.uav[90] utilizationEnergyOverdrawMaintenance 0
scalar OsgEarthNet.uav[90] utilizationCountMissions 31
scalar OsgEarthNet.uav[90] utilizationCountManeuversMission 613
scalar OsgEarthNet.uav[90] utilizationCountManeuversMaintenance 62
scalar OsgEarthNet.uav[90] utilizationCountChargeState 31
scalar OsgEarthNet.uav[90] utilizationCountOverdrawnAfterMission 0
scalar OsgEarthNet.uav[90] utilizationCountIdleState 31
scalar OsgEarthNet.uav[90] utilizationFail 0
scalar OsgEarthNet.uav[90] simulationTime 259200
scalar OsgEarthNet.uav[91] utilizationSecMission 23791.642405384
scalar OsgEarthNet.uav[91] utilizationSecMaintenance 15744.371672975
scalar OsgEarthNet.uav[91] utilizationSecCharge 151761.98492164
scalar OsgEarthNet.uav[91] utilizationSecIdle 67902
scalar OsgEarthNet.uav[91] utilizationEnergyMission 116705.65459442
scalar OsgEarthNet.uav[91] utilizationEnergyMaintenance 74815.215503693
scalar OsgEarthNet.uav[91] utilizationEnergyCharge 190116.74023438
scalar OsgEarthNet.uav[91] utilizationEnergyOverdrawMission 0
scalar OsgEarthNet.uav[91] utilizationEnergyOverdrawMaintenance 0
scalar OsgEarthNet.uav[91] utilizationCountMissions 47
scalar OsgEarthNet.uav[91] utilizationCountManeuversMission 773
scalar OsgEarthNet.uav[91] utilizationCountManeuversMaintenance 94
scalar OsgEarthNet.uav[91] utilizationCountChargeState 47
scalar OsgEarthNet.uav[91] utilizationCountOverdrawnAfterMission 0
scalar OsgEarthNet.uav[91] utilizationCountIdleState 47
scalar OsgEarthNet.uav[91] utilizationFail 0
scalar OsgEarthNet.uav[91] simulationTime 259200
scalar OsgEarthNet.uav[92] utilizationSecMission 44417.227721169
scalar OsgEarthNet.uav[92] utilizationSecMaintenance 17042.797560205
scalar OsgEarthNet.uav[92] utilizationSecCharge 197637.97371863
scalar OsgEarthNet.uav[92] utilizationSecIdle 102
scalar OsgEarthNet.uav[92] utilizationEnergyMission 213349.08412993
scalar OsgEarthNet.uav[92] utilizationEnergyMaintenance 77584.424041748
scalar OsgEarthNet.uav[92] utilizationEnergyCharge 289097.7512207
scalar OsgEarthNet.uav[92] utilizationEnergyOverdrawMission 0
scalar OsgEarthNet.uav[92] utilizationEnergyOverdrawMaintenance 0
scalar OsgEarthNet.uav[92] utilizationCountMissions 64
scalar OsgEarthNet.uav[92] utilizationCountManeuversMission 1215
scalar OsgEarthNet.uav[92] utilizationCountManeuversMaintenance 127
scalar OsgEarthNet.uav[92] utilizationCountChargeState 64
scalar OsgEarthNet.uav[92] utilizationCountOverdrawnAfterMission 0
scalar OsgEarthNet.uav[92] utilizationCountIdleState 2
scalar OsgEarthNet.uav[92] utilizationFail 0
scalar OsgEarthNet.uav[92] simulationTime 259200
scalar OsgEarthNet.uav[93] utilizationSecMission 44180.165271611
scalar OsgEarthNet.uav[93] utilizationSecMaintenance 16526.595376027
scalar OsgEarthNet.uav[93] utilizationSecCharge 193837.99765687
scalar OsgEarthNet.uav[93] utilizationSecIdle 4655.2406954966
scalar OsgEarthNet.uav[93] utilizationEnergyMission 210433.80042648
scalar OsgEarthNet.uav[93] utilizationEnergyMaintenance 75273.099597931
scalar OsgEarthNet.uav[93] utilizationEnergyCharge 283683.11547852
scalar OsgEarthNet.uav[93] utilizationEnergyOverdrawMission 0
scalar OsgEarthNet.uav[93] utilizationEnergyOverdrawMaintenance 0
scalar OsgEarthNet.uav[93] utilizationCountMissions 62
scalar OsgEarthNet.uav[93] utilizationCountManeuversMission 1183
scalar OsgEarthNet.uav[93] utilizationCountManeuversMaintenance 124
scalar OsgEarthNet.uav[93] utilizationCountChargeState 62
scalar OsgEarthNet.uav[93] utilizationCountOverdrawnAfterMission 0
scalar OsgEarthNet.uav[93] utilizationCountIdleState 5
scalar OsgEarthNet.uav[93] utilizationFail 0
scalar OsgEarthNet.uav[93] simulationTime 259200
scalar OsgEarthNet.uav[94] utilizationSecMission 22066.862412475
scalar OsgEarthNet.uav[94] utilizationSecMaintenance 16002.475268372
scalar OsgEarthNet.uav[94] utilizationSecCharge 149990
scalar OsgEarthNet.uav[94] utilizationSecIdle 71140.661319154
scalar OsgEarthNet.uav[94] utilizationEnergyMission 108321.06684494
scalar OsgEarthNet.uav[94] utilizationEnergyMaintenance 75689.575683594
scalar OsgEarthNet.uav[94] utilizationEnergyCharge 183982.36547852
scalar OsgEarthNet.uav[94] utilizationEnergyOverdrawMission 0
scalar OsgEarthNet.uav[94] utilizationEnergyOverdrawMaintenance 0
scalar OsgEarthNet.uav[94] utilizationCountMissions 48
scalar OsgEarthNet.uav[94] utilizationCountManeuversMission 737
scalar OsgEarthNet.uav[94] utilizationCountManeuversMaintenance 96
scalar OsgEarthNet.uav[94] utilizationCountChargeState 48
scalar OsgEarthNet.uav[94] utilizationCountOverdrawnAfterMission 0
scalar OsgEarthNet.uav[94] utilizationCountIdleState 49
scalar OsgEarthNet.uav[94] utilizationFail 0
scalar OsgEarthNet.uav[94] simulationTime 259200
scalar OsgEarthNet.cs[0] usedPower 4008800.7621026
scalar OsgEarthNet.cs[0] chargedPower 4008800.7621026
scalar OsgEarthNet.cs[0] chargedMobileNodes 878
scalar OsgEarthNet.cs[0] reservations 890
scalar OsgEarthNet.cs[1] usedPower 4138434.6704768
scalar OsgEarthNet.cs[1] chargedPower 4138434.6704768
scalar OsgEarthNet.cs[1] chargedMobileNodes 1032
scalar OsgEarthNet.cs[1] reservations 1046
scalar OsgEarthNet.cs[2] usedPower 8682973.7358992
scalar OsgEarthNet.cs[2] chargedPower 8682973.7358992
scalar OsgEarthNet.cs[2] chargedMobileNodes 50
scalar OsgEarthNet.cs[2] reservations 1912

