version 2
run Szenario_Hotel_Gabelbach-26-20180722-00:45:30-29772
attr configname Szenario_Hotel_Gabelbach
attr datetime 20180722-00:45:30
attr experiment Szenario_Hotel_Gabelbach
attr inifile omnetpp.ini
attr iterationvars "$replM=2, $biWeight=0.35, $replSearchM=1, $numUAVs=200"
attr iterationvarsf replM=2,biWeight=0.35,replSearchM=1,numUAVs=200-
attr measurement "$replM=2, $biWeight=0.35, $replSearchM=1, $numUAVs=200"
attr network OsgEarthNet
attr processid 29772
attr repetition 2
attr replication #2
attr resultdir results
attr runnumber 26
attr seedset 26
itervar biWeight 0.35
itervar numUAVs 200
itervar replM 2
itervar replSearchM 1
param *.osgEarthScene.scene "\"Szenario_Hotel_Gabelbach.earth\""
param *.playgroundLatitude 50.6830269
param *.playgroundLongitude 10.8538055
param *.playgroundWidth 3500m
param *.playgroundHeight 3500m
param *.cs[0].posX 3537m
param *.cs[0].posY 965m
param *.cs[0].posZ 538m
param *.cs[1].posX 312m
param *.cs[1].posY 1262m
param *.cs[1].posZ 539m
param *.cs[2].posX 2185m
param *.cs[2].posY 3026m
param *.cs[2].posZ 777m
param *.cs[3].posX 10m
param *.cs[3].posY 2200m
param *.cs[3].posZ 560m
param *.cs[4].posX 750m
param *.cs[4].posY 200m
param *.cs[4].posZ 540m
param *.cs[5].posX 2450m
param *.cs[5].posY 180m
param *.cs[5].posZ 524m
param *.cs[6].posX 3140m
param *.cs[6].posY 1790m
param *.cs[6].posZ 606m
param *.numCSs 3
param *.uav[*].replacementMethod 2
param *.uav[*].weightedSumWeight 0.35
param *.missionControl.replacementSearchMethod 1
param *.numUAVs 200
param *.*.timeStep 10s
param *.uav[*].commandPreviewCommandCount 20
param *.missionControl.missionFiles "\"missions\\\\Szenario_WB_Hotel_Gabelbach_Mission_Hotel.waypoints,missions\\\\Szenario_WB_Hotel_Gabelbach_Mission_Kickelhahn.waypoints,missions\\\\Szenario_WB_Hotel_Gabelbach_Mission_Ilmenau_Sportplatz.waypoints,missions\\\\Szenario_WB_Hotel_Gabelbach_Mission_Manebach_Mitte.waypoints,missions\\\\Szenario_WB_Hotel_Gabelbach_Mission_Manebach_Sued.waypoints,missions\\\\Szenario_WB_Hotel_Gabelbach_Hover_HoheSchlaufe.waypoints,missions\\\\Szenario_WB_Hotel_Gabelbach_Hover_Kickelhahn.waypoints,missions\\\\Szenario_WB_Hotel_Gabelbach_Hover_Gabelbachskopf.waypoints,missions\\\\Szenario_WB_Hotel_Gabelbach_Hover_Dachskopf.waypoints\""
param *.uav[0].startX 3537m
param *.uav[0].startY 965m
param *.uav[0].startZ 539m
param *.uav[1].startX 312m
param *.uav[1].startY 1262m
param *.uav[1].startZ 540m
param *.uav[2].startX 2185m
param *.uav[2].startY 3026m
param *.uav[2].startZ 778m
param *.uav[3].startX 3537m
param *.uav[3].startY 965m
param *.uav[3].startZ 539m
param *.uav[4].startX 312m
param *.uav[4].startY 1262m
param *.uav[4].startZ 540m
param *.uav[5].startX 2185m
param *.uav[5].startY 3026m
param *.uav[5].startZ 778m
param *.uav[6].startX 3537m
param *.uav[6].startY 965m
param *.uav[6].startZ 539m
param *.uav[7].startX 312m
param *.uav[7].startY 1262m
param *.uav[7].startZ 540m
param *.uav[8].startX 2185m
param *.uav[8].startY 3026m
param *.uav[8].startZ 778m
param *.uav[9].startX 3537m
param *.uav[9].startY 965m
param *.uav[9].startZ 539m
param *.uav[10].startX 3537m
param *.uav[10].startY 965m
param *.uav[10].startZ 539m
param *.uav[11].startX 312m
param *.uav[11].startY 1262m
param *.uav[11].startZ 540m
param *.uav[12].startX 2185m
param *.uav[12].startY 3026m
param *.uav[12].startZ 778m
param *.uav[13].startX 3537m
param *.uav[13].startY 965m
param *.uav[13].startZ 539m
param *.uav[14].startX 312m
param *.uav[14].startY 1262m
param *.uav[14].startZ 540m
param *.uav[15].startX 2185m
param *.uav[15].startY 3026m
param *.uav[15].startZ 778m
param *.uav[16].startX 3537m
param *.uav[16].startY 965m
param *.uav[16].startZ 539m
param *.uav[17].startX 312m
param *.uav[17].startY 1262m
param *.uav[17].startZ 540m
param *.uav[18].startX 2185m
param *.uav[18].startY 3026m
param *.uav[18].startZ 778m
param *.uav[19].startX 3537m
param *.uav[19].startY 965m
param *.uav[19].startZ 539m
param *.uav[20].startX 3537m
param *.uav[20].startY 965m
param *.uav[20].startZ 539m
param *.uav[21].startX 312m
param *.uav[21].startY 1262m
param *.uav[21].startZ 540m
param *.uav[22].startX 2185m
param *.uav[22].startY 3026m
param *.uav[22].startZ 778m
param *.uav[23].startX 3537m
param *.uav[23].startY 965m
param *.uav[23].startZ 539m
param *.uav[24].startX 312m
param *.uav[24].startY 1262m
param *.uav[24].startZ 540m
param *.uav[25].startX 2185m
param *.uav[25].startY 3026m
param *.uav[25].startZ 778m
param *.uav[26].startX 3537m
param *.uav[26].startY 965m
param *.uav[26].startZ 539m
param *.uav[27].startX 312m
param *.uav[27].startY 1262m
param *.uav[27].startZ 540m
param *.uav[28].startX 2185m
param *.uav[28].startY 3026m
param *.uav[28].startZ 778m
param *.uav[29].startX 3537m
param *.uav[29].startY 965m
param *.uav[29].startZ 539m
param *.uav[30].startX 3537m
param *.uav[30].startY 965m
param *.uav[30].startZ 539m
param *.uav[31].startX 312m
param *.uav[31].startY 1262m
param *.uav[31].startZ 540m
param *.uav[32].startX 2185m
param *.uav[32].startY 3026m
param *.uav[32].startZ 778m
param *.uav[33].startX 3537m
param *.uav[33].startY 965m
param *.uav[33].startZ 539m
param *.uav[34].startX 312m
param *.uav[34].startY 1262m
param *.uav[34].startZ 540m
param *.uav[35].startX 2185m
param *.uav[35].startY 3026m
param *.uav[35].startZ 778m
param *.uav[36].startX 3537m
param *.uav[36].startY 965m
param *.uav[36].startZ 539m
param *.uav[37].startX 312m
param *.uav[37].startY 1262m
param *.uav[37].startZ 540m
param *.uav[38].startX 2185m
param *.uav[38].startY 3026m
param *.uav[38].startZ 778m
param *.uav[39].startX 3537m
param *.uav[39].startY 965m
param *.uav[39].startZ 539m
param *.uav[40].startX 3537m
param *.uav[40].startY 965m
param *.uav[40].startZ 539m
param *.uav[41].startX 312m
param *.uav[41].startY 1262m
param *.uav[41].startZ 540m
param *.uav[42].startX 2185m
param *.uav[42].startY 3026m
param *.uav[42].startZ 778m
param *.uav[43].startX 3537m
param *.uav[43].startY 965m
param *.uav[43].startZ 539m
param *.uav[44].startX 312m
param *.uav[44].startY 1262m
param *.uav[44].startZ 540m
param *.uav[45].startX 2185m
param *.uav[45].startY 3026m
param *.uav[45].startZ 778m
param *.uav[46].startX 3537m
param *.uav[46].startY 965m
param *.uav[46].startZ 539m
param *.uav[47].startX 312m
param *.uav[47].startY 1262m
param *.uav[47].startZ 540m
param *.uav[48].startX 2185m
param *.uav[48].startY 3026m
param *.uav[48].startZ 778m
param *.uav[49].startX 3537m
param *.uav[49].startY 965m
param *.uav[49].startZ 539m
param *.uav[50].startX 3537m
param *.uav[50].startY 965m
param *.uav[50].startZ 539m
param *.uav[51].startX 312m
param *.uav[51].startY 1262m
param *.uav[51].startZ 540m
param *.uav[52].startX 2185m
param *.uav[52].startY 3026m
param *.uav[52].startZ 778m
param *.uav[53].startX 3537m
param *.uav[53].startY 965m
param *.uav[53].startZ 539m
param *.uav[54].startX 312m
param *.uav[54].startY 1262m
param *.uav[54].startZ 540m
param *.uav[55].startX 2185m
param *.uav[55].startY 3026m
param *.uav[55].startZ 778m
param *.uav[56].startX 3537m
param *.uav[56].startY 965m
param *.uav[56].startZ 539m
param *.uav[57].startX 312m
param *.uav[57].startY 1262m
param *.uav[57].startZ 540m
param *.uav[58].startX 2185m
param *.uav[58].startY 3026m
param *.uav[58].startZ 778m
param *.uav[59].startX 3537m
param *.uav[59].startY 965m
param *.uav[59].startZ 539m
param *.uav[60].startX 3537m
param *.uav[60].startY 965m
param *.uav[60].startZ 539m
param *.uav[61].startX 312m
param *.uav[61].startY 1262m
param *.uav[61].startZ 540m
param *.uav[62].startX 2185m
param *.uav[62].startY 3026m
param *.uav[62].startZ 778m
param *.uav[63].startX 3537m
param *.uav[63].startY 965m
param *.uav[63].startZ 539m
param *.uav[64].startX 312m
param *.uav[64].startY 1262m
param *.uav[64].startZ 540m
param *.uav[65].startX 2185m
param *.uav[65].startY 3026m
param *.uav[65].startZ 778m
param *.uav[66].startX 3537m
param *.uav[66].startY 965m
param *.uav[66].startZ 539m
param *.uav[67].startX 312m
param *.uav[67].startY 1262m
param *.uav[67].startZ 540m
param *.uav[68].startX 2185m
param *.uav[68].startY 3026m
param *.uav[68].startZ 778m
param *.uav[69].startX 3537m
param *.uav[69].startY 965m
param *.uav[69].startZ 539m
param *.uav[70].startX 3537m
param *.uav[70].startY 965m
param *.uav[70].startZ 539m
param *.uav[71].startX 312m
param *.uav[71].startY 1262m
param *.uav[71].startZ 540m
param *.uav[72].startX 2185m
param *.uav[72].startY 3026m
param *.uav[72].startZ 778m
param *.uav[73].startX 3537m
param *.uav[73].startY 965m
param *.uav[73].startZ 539m
param *.uav[74].startX 312m
param *.uav[74].startY 1262m
param *.uav[74].startZ 540m
param *.uav[75].startX 2185m
param *.uav[75].startY 3026m
param *.uav[75].startZ 778m
param *.uav[76].startX 3537m
param *.uav[76].startY 965m
param *.uav[76].startZ 539m
param *.uav[77].startX 312m
param *.uav[77].startY 1262m
param *.uav[77].startZ 540m
param *.uav[78].startX 2185m
param *.uav[78].startY 3026m
param *.uav[78].startZ 778m
param *.uav[79].startX 3537m
param *.uav[79].startY 965m
param *.uav[79].startZ 539m
param *.uav[80].startX 3537m
param *.uav[80].startY 965m
param *.uav[80].startZ 539m
param *.uav[81].startX 312m
param *.uav[81].startY 1262m
param *.uav[81].startZ 540m
param *.uav[82].startX 2185m
param *.uav[82].startY 3026m
param *.uav[82].startZ 778m
param *.uav[83].startX 3537m
param *.uav[83].startY 965m
param *.uav[83].startZ 539m
param *.uav[84].startX 312m
param *.uav[84].startY 1262m
param *.uav[84].startZ 540m
param *.uav[85].startX 2185m
param *.uav[85].startY 3026m
param *.uav[85].startZ 778m
param *.uav[86].startX 3537m
param *.uav[86].startY 965m
param *.uav[86].startZ 539m
param *.uav[87].startX 312m
param *.uav[87].startY 1262m
param *.uav[87].startZ 540m
param *.uav[88].startX 2185m
param *.uav[88].startY 3026m
param *.uav[88].startZ 778m
param *.uav[89].startX 3537m
param *.uav[89].startY 965m
param *.uav[89].startZ 539m
param *.uav[90].startX 3537m
param *.uav[90].startY 965m
param *.uav[90].startZ 539m
param *.uav[91].startX 312m
param *.uav[91].startY 1262m
param *.uav[91].startZ 540m
param *.uav[92].startX 2185m
param *.uav[92].startY 3026m
param *.uav[92].startZ 778m
param *.uav[93].startX 3537m
param *.uav[93].startY 965m
param *.uav[93].startZ 539m
param *.uav[94].startX 312m
param *.uav[94].startY 1262m
param *.uav[94].startZ 540m
param *.uav[95].startX 2185m
param *.uav[95].startY 3026m
param *.uav[95].startZ 778m
param *.uav[96].startX 3537m
param *.uav[96].startY 965m
param *.uav[96].startZ 539m
param *.uav[97].startX 312m
param *.uav[97].startY 1262m
param *.uav[97].startZ 540m
param *.uav[98].startX 2185m
param *.uav[98].startY 3026m
param *.uav[98].startZ 778m
param *.uav[99].startX 3537m
param *.uav[99].startY 965m
param *.uav[99].startZ 539m
param *.osgEarthScene.scene "\"boston.earth\""
param *.playgroundLatitude 42.3558
param *.playgroundLongitude -71.0677
param *.playgroundWidth 400m
param *.playgroundHeight 200m
param *.channelController.connectionColor "\"#0000FF40\""
param *.channelController.showConnections false
param *.uav[*].modelURL "\"quadrocopter.small.obj.15.scale.0,0,90.rot\""
param *.uav[*].labelColor "\"#FF7C00CC\""
param *.uav[*].label2Color "\"#FF7C00EE\""
param *.uav[*].batteryCapacity 5200mAh
param *.uav[*].batteryRemaining uav[index].batteryCapacity
param *.uav[*].predictionQuantile 0.95
param *.uav[*].replacementMethod 2
param *.uav[*].weightedSumWeight 0.5
param *.cs[*].modelURL "\"chargingstation_v1.osgt.2.scale.0,0,0.rot.0,0,-15e-1.trans\""
param *.cs[*].spotsWaiting 999
param *.cs[*].spotsCharging 999
param *.cs[*].chargeEffectivenessPercentage 100
param *.cs[*].nonLinearPhaseStartPercentage 85
param *.cs[*].chargeCurrent 6.0A
param *.cs[*].prioritizeFastCharge true
param *.missionControl.replacementSearchMethod 0
param *.*.timeStep 9s

scalar OsgEarthNet.uav[0] utilizationSecMission 440
scalar OsgEarthNet.uav[0] utilizationSecMaintenance 447.1303002674
scalar OsgEarthNet.uav[0] utilizationSecCharge 3370
scalar OsgEarthNet.uav[0] utilizationSecIdle 254942.86869973
scalar OsgEarthNet.uav[0] utilizationEnergyMission 2081.1982650757
scalar OsgEarthNet.uav[0] utilizationEnergyMaintenance 2137.9757194519
scalar OsgEarthNet.uav[0] utilizationEnergyCharge 4296.3364257812
scalar OsgEarthNet.uav[0] utilizationEnergyOverdrawMission 0
scalar OsgEarthNet.uav[0] utilizationEnergyOverdrawMaintenance 0
scalar OsgEarthNet.uav[0] utilizationCountMissions 1
scalar OsgEarthNet.uav[0] utilizationCountManeuversMission 22
scalar OsgEarthNet.uav[0] utilizationCountManeuversMaintenance 2
scalar OsgEarthNet.uav[0] utilizationCountChargeState 1
scalar OsgEarthNet.uav[0] utilizationCountOverdrawnAfterMission 0
scalar OsgEarthNet.uav[0] utilizationCountIdleState 2
scalar OsgEarthNet.uav[0] utilizationFail 0
scalar OsgEarthNet.uav[0] simulationTime 259200
scalar OsgEarthNet.uav[1] utilizationSecMission 1436.3500981245
scalar OsgEarthNet.uav[1] utilizationSecMaintenance 976.62896530733
scalar OsgEarthNet.uav[1] utilizationSecCharge 9350
scalar OsgEarthNet.uav[1] utilizationSecIdle 247437.01993657
scalar OsgEarthNet.uav[1] utilizationEnergyMission 6966.552947998
scalar OsgEarthNet.uav[1] utilizationEnergyMaintenance 4762.0796966553
scalar OsgEarthNet.uav[1] utilizationEnergyCharge 11444.237792969
scalar OsgEarthNet.uav[1] utilizationEnergyOverdrawMission 0
scalar OsgEarthNet.uav[1] utilizationEnergyOverdrawMaintenance 0
scalar OsgEarthNet.uav[1] utilizationCountMissions 3
scalar OsgEarthNet.uav[1] utilizationCountManeuversMission 42
scalar OsgEarthNet.uav[1] utilizationCountManeuversMaintenance 6
scalar OsgEarthNet.uav[1] utilizationCountChargeState 3
scalar OsgEarthNet.uav[1] utilizationCountOverdrawnAfterMission 0
scalar OsgEarthNet.uav[1] utilizationCountIdleState 4
scalar OsgEarthNet.uav[1] utilizationFail 0
scalar OsgEarthNet.uav[1] simulationTime 259200
scalar OsgEarthNet.uav[2] utilizationSecMission 38203.956228419
scalar OsgEarthNet.uav[2] utilizationSecMaintenance 19289.125330097
scalar OsgEarthNet.uav[2] utilizationSecCharge 197434.91644148
scalar OsgEarthNet.uav[2] utilizationSecIdle 4272.001
scalar OsgEarthNet.uav[2] utilizationEnergyMission 187457.68157196
scalar OsgEarthNet.uav[2] utilizationEnergyMaintenance 88472.778896332
scalar OsgEarthNet.uav[2] utilizationEnergyCharge 270337.19772339
scalar OsgEarthNet.uav[2] utilizationEnergyOverdrawMission 0
scalar OsgEarthNet.uav[2] utilizationEnergyOverdrawMaintenance 0
scalar OsgEarthNet.uav[2] utilizationCountMissions 60
scalar OsgEarthNet.uav[2] utilizationCountManeuversMission 1260
scalar OsgEarthNet.uav[2] utilizationCountManeuversMaintenance 120
scalar OsgEarthNet.uav[2] utilizationCountChargeState 60
scalar OsgEarthNet.uav[2] utilizationCountOverdrawnAfterMission 0
scalar OsgEarthNet.uav[2] utilizationCountIdleState 19
scalar OsgEarthNet.uav[2] utilizationFail 0
scalar OsgEarthNet.uav[2] simulationTime 259200
scalar OsgEarthNet.uav[3] utilizationSecMission 460
scalar OsgEarthNet.uav[3] utilizationSecMaintenance 447.1303002674
scalar OsgEarthNet.uav[3] utilizationSecCharge 3470
scalar OsgEarthNet.uav[3] utilizationSecIdle 254822.86869973
scalar OsgEarthNet.uav[3] utilizationEnergyMission 2382.054523468
scalar OsgEarthNet.uav[3] utilizationEnergyMaintenance 2092.407787323
scalar OsgEarthNet.uav[3] utilizationEnergyCharge 4470.6689453125
scalar OsgEarthNet.uav[3] utilizationEnergyOverdrawMission 0
scalar OsgEarthNet.uav[3] utilizationEnergyOverdrawMaintenance 0
scalar OsgEarthNet.uav[3] utilizationCountMissions 1
scalar OsgEarthNet.uav[3] utilizationCountManeuversMission 23
scalar OsgEarthNet.uav[3] utilizationCountManeuversMaintenance 2
scalar OsgEarthNet.uav[3] utilizationCountChargeState 1
scalar OsgEarthNet.uav[3] utilizationCountOverdrawnAfterMission 0
scalar OsgEarthNet.uav[3] utilizationCountIdleState 2
scalar OsgEarthNet.uav[3] utilizationFail 0
scalar OsgEarthNet.uav[3] simulationTime 259200
scalar OsgEarthNet.uav[4] utilizationSecMission 11175.152757244
scalar OsgEarthNet.uav[4] utilizationSecMaintenance 7894.7740681004
scalar OsgEarthNet.uav[4] utilizationSecCharge 73590
scalar OsgEarthNet.uav[4] utilizationSecIdle 166540.07217466
scalar OsgEarthNet.uav[4] utilizationEnergyMission 55652.394405365
scalar OsgEarthNet.uav[4] utilizationEnergyMaintenance 36955.413146973
scalar OsgEarthNet.uav[4] utilizationEnergyCharge 91039.403320312
scalar OsgEarthNet.uav[4] utilizationEnergyOverdrawMission 0
scalar OsgEarthNet.uav[4] utilizationEnergyOverdrawMaintenance 0
scalar OsgEarthNet.uav[4] utilizationCountMissions 23
scalar OsgEarthNet.uav[4] utilizationCountManeuversMission 402
scalar OsgEarthNet.uav[4] utilizationCountManeuversMaintenance 46
scalar OsgEarthNet.uav[4] utilizationCountChargeState 23
scalar OsgEarthNet.uav[4] utilizationCountOverdrawnAfterMission 0
scalar OsgEarthNet.uav[4] utilizationCountIdleState 24
scalar OsgEarthNet.uav[4] utilizationFail 0
scalar OsgEarthNet.uav[4] simulationTime 259200
scalar OsgEarthNet.uav[5] utilizationSecMission 39779.619046059
scalar OsgEarthNet.uav[5] utilizationSecMaintenance 16629.212241956
scalar OsgEarthNet.uav[5] utilizationSecCharge 195141.33089794
scalar OsgEarthNet.uav[5] utilizationSecIdle 7649.83681404
scalar OsgEarthNet.uav[5] utilizationEnergyMission 191871.12426758
scalar OsgEarthNet.uav[5] utilizationEnergyMaintenance 76288.098564148
scalar OsgEarthNet.uav[5] utilizationEnergyCharge 267191.18481445
scalar OsgEarthNet.uav[5] utilizationEnergyOverdrawMission 0
scalar OsgEarthNet.uav[5] utilizationEnergyOverdrawMaintenance 0
scalar OsgEarthNet.uav[5] utilizationCountMissions 58
scalar OsgEarthNet.uav[5] utilizationCountManeuversMission 1188
scalar OsgEarthNet.uav[5] utilizationCountManeuversMaintenance 116
scalar OsgEarthNet.uav[5] utilizationCountChargeState 58
scalar OsgEarthNet.uav[5] utilizationCountOverdrawnAfterMission 0
scalar OsgEarthNet.uav[5] utilizationCountIdleState 29
scalar OsgEarthNet.uav[5] utilizationFail 0
scalar OsgEarthNet.uav[5] simulationTime 259200
scalar OsgEarthNet.uav[6] utilizationSecMission 9347.8229446836
scalar OsgEarthNet.uav[6] utilizationSecMaintenance 4229.7988310832
scalar OsgEarthNet.uav[6] utilizationSecCharge 49420
scalar OsgEarthNet.uav[6] utilizationSecIdle 196202.37722423
scalar OsgEarthNet.uav[6] utilizationEnergyMission 43112.870956421
scalar OsgEarthNet.uav[6] utilizationEnergyMaintenance 20086.723854065
scalar OsgEarthNet.uav[6] utilizationEnergyCharge 63826.969726562
scalar OsgEarthNet.uav[6] utilizationEnergyOverdrawMission 0
scalar OsgEarthNet.uav[6] utilizationEnergyOverdrawMaintenance 0
scalar OsgEarthNet.uav[6] utilizationCountMissions 14
scalar OsgEarthNet.uav[6] utilizationCountManeuversMission 209
scalar OsgEarthNet.uav[6] utilizationCountManeuversMaintenance 28
scalar OsgEarthNet.uav[6] utilizationCountChargeState 14
scalar OsgEarthNet.uav[6] utilizationCountOverdrawnAfterMission 0
scalar OsgEarthNet.uav[6] utilizationCountIdleState 15
scalar OsgEarthNet.uav[6] utilizationFail 0
scalar OsgEarthNet.uav[6] simulationTime 259200
scalar OsgEarthNet.uav[7] utilizationSecMission 16383.500981245
scalar OsgEarthNet.uav[7] utilizationSecMaintenance 11259.8485224
scalar OsgEarthNet.uav[7] utilizationSecCharge 107790
scalar OsgEarthNet.uav[7] utilizationSecIdle 123766.64949635
scalar OsgEarthNet.uav[7] utilizationEnergyMission 79958.37726593
scalar OsgEarthNet.uav[7] utilizationEnergyMaintenance 52660.393070221
scalar OsgEarthNet.uav[7] utilizationEnergyCharge 132932.51147461
scalar OsgEarthNet.uav[7] utilizationEnergyOverdrawMission 0
scalar OsgEarthNet.uav[7] utilizationEnergyOverdrawMaintenance 0
scalar OsgEarthNet.uav[7] utilizationCountMissions 34
scalar OsgEarthNet.uav[7] utilizationCountManeuversMission 521
scalar OsgEarthNet.uav[7] utilizationCountManeuversMaintenance 68
scalar OsgEarthNet.uav[7] utilizationCountChargeState 34
scalar OsgEarthNet.uav[7] utilizationCountOverdrawnAfterMission 0
scalar OsgEarthNet.uav[7] utilizationCountIdleState 35
scalar OsgEarthNet.uav[7] utilizationFail 0
scalar OsgEarthNet.uav[7] simulationTime 259200
scalar OsgEarthNet.uav[8] utilizationSecMission 39280.934124807
scalar OsgEarthNet.uav[8] utilizationSecMaintenance 17054.036553995
scalar OsgEarthNet.uav[8] utilizationSecCharge 195506.1801592
scalar OsgEarthNet.uav[8] utilizationSecIdle 7358.8481619971
scalar OsgEarthNet.uav[8] utilizationEnergyMission 189812.84282303
scalar OsgEarthNet.uav[8] utilizationEnergyMaintenance 79087.799686432
scalar OsgEarthNet.uav[8] utilizationEnergyCharge 267560.26391602
scalar OsgEarthNet.uav[8] utilizationEnergyOverdrawMission 0
scalar OsgEarthNet.uav[8] utilizationEnergyOverdrawMaintenance 0
scalar OsgEarthNet.uav[8] utilizationCountMissions 58
scalar OsgEarthNet.uav[8] utilizationCountManeuversMission 1218
scalar OsgEarthNet.uav[8] utilizationCountManeuversMaintenance 116
scalar OsgEarthNet.uav[8] utilizationCountChargeState 58
scalar OsgEarthNet.uav[8] utilizationCountOverdrawnAfterMission 0
scalar OsgEarthNet.uav[8] utilizationCountIdleState 25
scalar OsgEarthNet.uav[8] utilizationFail 0
scalar OsgEarthNet.uav[8] simulationTime 259200
scalar OsgEarthNet.uav[9] utilizationSecMission 3401.2503051606
scalar OsgEarthNet.uav[9] utilizationSecMaintenance 2263.1652230582
scalar OsgEarthNet.uav[9] utilizationSecCharge 21420
scalar OsgEarthNet.uav[9] utilizationSecIdle 232115.58347178
scalar OsgEarthNet.uav[9] utilizationEnergyMission 16818.687000275
scalar OsgEarthNet.uav[9] utilizationEnergyMaintenance 10948.814094543
scalar OsgEarthNet.uav[9] utilizationEnergyCharge 27655.034667969
scalar OsgEarthNet.uav[9] utilizationEnergyOverdrawMission 0
scalar OsgEarthNet.uav[9] utilizationEnergyOverdrawMaintenance 0
scalar OsgEarthNet.uav[9] utilizationCountMissions 6
scalar OsgEarthNet.uav[9] utilizationCountManeuversMission 118
scalar OsgEarthNet.uav[9] utilizationCountManeuversMaintenance 12
scalar OsgEarthNet.uav[9] utilizationCountChargeState 6
scalar OsgEarthNet.uav[9] utilizationCountOverdrawnAfterMission 0
scalar OsgEarthNet.uav[9] utilizationCountIdleState 7
scalar OsgEarthNet.uav[9] utilizationFail 0
scalar OsgEarthNet.uav[9] simulationTime 259200
scalar OsgEarthNet.uav[10] utilizationSecMission 13635.993487052
scalar OsgEarthNet.uav[10] utilizationSecMaintenance 7868.6324455541
scalar OsgEarthNet.uav[10] utilizationSecCharge 78293.372067394
scalar OsgEarthNet.uav[10] utilizationSecIdle 159402.001
scalar OsgEarthNet.uav[10] utilizationEnergyMission 66424.971797943
scalar OsgEarthNet.uav[10] utilizationEnergyMaintenance 36885.340930939
scalar OsgEarthNet.uav[10] utilizationEnergyCharge 101537.4543457
scalar OsgEarthNet.uav[10] utilizationEnergyOverdrawMission 0
scalar OsgEarthNet.uav[10] utilizationEnergyOverdrawMaintenance 0
scalar OsgEarthNet.uav[10] utilizationCountMissions 23
scalar OsgEarthNet.uav[10] utilizationCountManeuversMission 426
scalar OsgEarthNet.uav[10] utilizationCountManeuversMaintenance 46
scalar OsgEarthNet.uav[10] utilizationCountChargeState 23
scalar OsgEarthNet.uav[10] utilizationCountOverdrawnAfterMission 0
scalar OsgEarthNet.uav[10] utilizationCountIdleState 23
scalar OsgEarthNet.uav[10] utilizationFail 0
scalar OsgEarthNet.uav[10] simulationTime 259200
scalar OsgEarthNet.uav[11] utilizationSecMission 21170.307247056
scalar OsgEarthNet.uav[11] utilizationSecMaintenance 12491.383483212
scalar OsgEarthNet.uav[11] utilizationSecCharge 125536.30676301
scalar OsgEarthNet.uav[11] utilizationSecIdle 100002.00150672
scalar OsgEarthNet.uav[11] utilizationEnergyMission 103273.1644516
scalar OsgEarthNet.uav[11] utilizationEnergyMaintenance 58976.755401611
scalar OsgEarthNet.uav[11] utilizationEnergyCharge 159513.98803711
scalar OsgEarthNet.uav[11] utilizationEnergyOverdrawMission 0
scalar OsgEarthNet.uav[11] utilizationEnergyOverdrawMaintenance 0
scalar OsgEarthNet.uav[11] utilizationCountMissions 39
scalar OsgEarthNet.uav[11] utilizationCountManeuversMission 741
scalar OsgEarthNet.uav[11] utilizationCountManeuversMaintenance 78
scalar OsgEarthNet.uav[11] utilizationCountChargeState 39
scalar OsgEarthNet.uav[11] utilizationCountOverdrawnAfterMission 0
scalar OsgEarthNet.uav[11] utilizationCountIdleState 33
scalar OsgEarthNet.uav[11] utilizationFail 0
scalar OsgEarthNet.uav[11] simulationTime 259200
scalar OsgEarthNet.uav[12] utilizationSecMission 40418.528565813
scalar OsgEarthNet.uav[12] utilizationSecMaintenance 16459.032009262
scalar OsgEarthNet.uav[12] utilizationSecCharge 193560.43342492
scalar OsgEarthNet.uav[12] utilizationSecIdle 8762.005
scalar OsgEarthNet.uav[12] utilizationEnergyMission 192987.11856079
scalar OsgEarthNet.uav[12] utilizationEnergyMaintenance 75377.923576355
scalar OsgEarthNet.uav[12] utilizationEnergyCharge 264178.88671875
scalar OsgEarthNet.uav[12] utilizationEnergyOverdrawMission 0
scalar OsgEarthNet.uav[12] utilizationEnergyOverdrawMaintenance 0
scalar OsgEarthNet.uav[12] utilizationCountMissions 58
scalar OsgEarthNet.uav[12] utilizationCountManeuversMission 1141
scalar OsgEarthNet.uav[12] utilizationCountManeuversMaintenance 116
scalar OsgEarthNet.uav[12] utilizationCountChargeState 58
scalar OsgEarthNet.uav[12] utilizationCountOverdrawnAfterMission 0
scalar OsgEarthNet.uav[12] utilizationCountIdleState 28
scalar OsgEarthNet.uav[12] utilizationFail 0
scalar OsgEarthNet.uav[12] simulationTime 259200
scalar OsgEarthNet.uav[13] utilizationSecMission 10675.884411973
scalar OsgEarthNet.uav[13] utilizationSecMaintenance 5556.8695661342
scalar OsgEarthNet.uav[13] utilizationSecCharge 59590
scalar OsgEarthNet.uav[13] utilizationSecIdle 183377.24502189
scalar OsgEarthNet.uav[13] utilizationEnergyMission 49859.598869324
scalar OsgEarthNet.uav[13] utilizationEnergyMaintenance 25821.881187439
scalar OsgEarthNet.uav[13] utilizationEnergyCharge 76685.150878906
scalar OsgEarthNet.uav[13] utilizationEnergyOverdrawMission 0
scalar OsgEarthNet.uav[13] utilizationEnergyOverdrawMaintenance 0
scalar OsgEarthNet.uav[13] utilizationCountMissions 17
scalar OsgEarthNet.uav[13] utilizationCountManeuversMission 295
scalar OsgEarthNet.uav[13] utilizationCountManeuversMaintenance 34
scalar OsgEarthNet.uav[13] utilizationCountChargeState 17
scalar OsgEarthNet.uav[13] utilizationCountOverdrawnAfterMission 0
scalar OsgEarthNet.uav[13] utilizationCountIdleState 18
scalar OsgEarthNet.uav[13] utilizationFail 0
scalar OsgEarthNet.uav[13] simulationTime 259200
scalar OsgEarthNet.uav[14] utilizationSecMission 14285.405407576
scalar OsgEarthNet.uav[14] utilizationSecMaintenance 9995.7731172555
scalar OsgEarthNet.uav[14] utilizationSecCharge 94930
scalar OsgEarthNet.uav[14] utilizationSecIdle 139988.82047517
scalar OsgEarthNet.uav[14] utilizationEnergyMission 70471.435352325
scalar OsgEarthNet.uav[14] utilizationEnergyMaintenance 47625.343647003
scalar OsgEarthNet.uav[14] utilizationEnergyCharge 116786.55834961
scalar OsgEarthNet.uav[14] utilizationEnergyOverdrawMission 0
scalar OsgEarthNet.uav[14] utilizationEnergyOverdrawMaintenance 0
scalar OsgEarthNet.uav[14] utilizationCountMissions 30
scalar OsgEarthNet.uav[14] utilizationCountManeuversMission 447
scalar OsgEarthNet.uav[14] utilizationCountManeuversMaintenance 60
scalar OsgEarthNet.uav[14] utilizationCountChargeState 30
scalar OsgEarthNet.uav[14] utilizationCountOverdrawnAfterMission 0
scalar OsgEarthNet.uav[14] utilizationCountIdleState 31
scalar OsgEarthNet.uav[14] utilizationFail 0
scalar OsgEarthNet.uav[14] simulationTime 259200
scalar OsgEarthNet.uav[15] utilizationSecMission 39606.589724316
scalar OsgEarthNet.uav[15] utilizationSecMaintenance 16099.94823277
scalar OsgEarthNet.uav[15] utilizationSecCharge 193770
scalar OsgEarthNet.uav[15] utilizationSecIdle 9723.4610429139
scalar OsgEarthNet.uav[15] utilizationEnergyMission 189328.98579834
scalar OsgEarthNet.uav[15] utilizationEnergyMaintenance 74914.111534119
scalar OsgEarthNet.uav[15] utilizationEnergyCharge 263626.72607422
scalar OsgEarthNet.uav[15] utilizationEnergyOverdrawMission 0
scalar OsgEarthNet.uav[15] utilizationEnergyOverdrawMaintenance 0
scalar OsgEarthNet.uav[15] utilizationCountMissions 57
scalar OsgEarthNet.uav[15] utilizationCountManeuversMission 1130
scalar OsgEarthNet.uav[15] utilizationCountManeuversMaintenance 115
scalar OsgEarthNet.uav[15] utilizationCountChargeState 57
scalar OsgEarthNet.uav[15] utilizationCountOverdrawnAfterMission 0
scalar OsgEarthNet.uav[15] utilizationCountIdleState 31
scalar OsgEarthNet.uav[15] utilizationFail 0
scalar OsgEarthNet.uav[15] simulationTime 259200
scalar OsgEarthNet.uav[16] utilizationSecMission 10093.492876731
scalar OsgEarthNet.uav[16] utilizationSecMaintenance 6735.823200128
scalar OsgEarthNet.uav[16] utilizationSecCharge 60918.659923141
scalar OsgEarthNet.uav[16] utilizationSecIdle 181452.023
scalar OsgEarthNet.uav[16] utilizationEnergyMission 49302.802745819
scalar OsgEarthNet.uav[16] utilizationEnergyMaintenance 31740.46282196
scalar OsgEarthNet.uav[16] utilizationEnergyCharge 79247.810058594
scalar OsgEarthNet.uav[16] utilizationEnergyOverdrawMission 0
scalar OsgEarthNet.uav[16] utilizationEnergyOverdrawMaintenance 0
scalar OsgEarthNet.uav[16] utilizationCountMissions 18
scalar OsgEarthNet.uav[16] utilizationCountManeuversMission 353
scalar OsgEarthNet.uav[16] utilizationCountManeuversMaintenance 36
scalar OsgEarthNet.uav[16] utilizationCountChargeState 18
scalar OsgEarthNet.uav[16] utilizationCountOverdrawnAfterMission 0
scalar OsgEarthNet.uav[16] utilizationCountIdleState 18
scalar OsgEarthNet.uav[16] utilizationFail 0
scalar OsgEarthNet.uav[16] simulationTime 259200
scalar OsgEarthNet.uav[17] utilizationSecMission 16466.242012886
scalar OsgEarthNet.uav[17] utilizationSecMaintenance 10328.068011847
scalar OsgEarthNet.uav[17] utilizationSecCharge 101770
scalar OsgEarthNet.uav[17] utilizationSecIdle 130635.68897527
scalar OsgEarthNet.uav[17] utilizationEnergyMission 77973.067253113
scalar OsgEarthNet.uav[17] utilizationEnergyMaintenance 49140.210540771
scalar OsgEarthNet.uav[17] utilizationEnergyCharge 127390.42602539
scalar OsgEarthNet.uav[17] utilizationEnergyOverdrawMission 0
scalar OsgEarthNet.uav[17] utilizationEnergyOverdrawMaintenance 0
scalar OsgEarthNet.uav[17] utilizationCountMissions 31
scalar OsgEarthNet.uav[17] utilizationCountManeuversMission 526
scalar OsgEarthNet.uav[17] utilizationCountManeuversMaintenance 62
scalar OsgEarthNet.uav[17] utilizationCountChargeState 31
scalar OsgEarthNet.uav[17] utilizationCountOverdrawnAfterMission 0
scalar OsgEarthNet.uav[17] utilizationCountIdleState 32
scalar OsgEarthNet.uav[17] utilizationFail 0
scalar OsgEarthNet.uav[17] simulationTime 259200
scalar OsgEarthNet.uav[18] utilizationSecMission 40600.048860201
scalar OsgEarthNet.uav[18] utilizationSecMaintenance 17047.950139799
scalar OsgEarthNet.uav[18] utilizationSecCharge 197910
scalar OsgEarthNet.uav[18] utilizationSecIdle 3642
scalar OsgEarthNet.uav[18] utilizationEnergyMission 194591.89910561
scalar OsgEarthNet.uav[18] utilizationEnergyMaintenance 78429.084604927
scalar OsgEarthNet.uav[18] utilizationEnergyCharge 268550.69287109
scalar OsgEarthNet.uav[18] utilizationEnergyOverdrawMission 0
scalar OsgEarthNet.uav[18] utilizationEnergyOverdrawMaintenance 0
scalar OsgEarthNet.uav[18] utilizationCountMissions 59
scalar OsgEarthNet.uav[18] utilizationCountManeuversMission 1130
scalar OsgEarthNet.uav[18] utilizationCountManeuversMaintenance 117
scalar OsgEarthNet.uav[18] utilizationCountChargeState 58
scalar OsgEarthNet.uav[18] utilizationCountOverdrawnAfterMission 0
scalar OsgEarthNet.uav[18] utilizationCountIdleState 26
scalar OsgEarthNet.uav[18] utilizationFail 0
scalar OsgEarthNet.uav[18] simulationTime 259200
scalar OsgEarthNet.uav[19] utilizationSecMission 10014.634106813
scalar OsgEarthNet.uav[19] utilizationSecMaintenance 5890.6259556227
scalar OsgEarthNet.uav[19] utilizationSecCharge 57760.719649641
scalar OsgEarthNet.uav[19] utilizationSecIdle 185534.01928792
scalar OsgEarthNet.uav[19] utilizationEnergyMission 49146.363712311
scalar OsgEarthNet.uav[19] utilizationEnergyMaintenance 27866.261650085
scalar OsgEarthNet.uav[19] utilizationEnergyCharge 75063.034667969
scalar OsgEarthNet.uav[19] utilizationEnergyOverdrawMission 0
scalar OsgEarthNet.uav[19] utilizationEnergyOverdrawMaintenance 0
scalar OsgEarthNet.uav[19] utilizationCountMissions 17
scalar OsgEarthNet.uav[19] utilizationCountManeuversMission 314
scalar OsgEarthNet.uav[19] utilizationCountManeuversMaintenance 34
scalar OsgEarthNet.uav[19] utilizationCountChargeState 17
scalar OsgEarthNet.uav[19] utilizationCountOverdrawnAfterMission 0
scalar OsgEarthNet.uav[19] utilizationCountIdleState 17
scalar OsgEarthNet.uav[19] utilizationFail 0
scalar OsgEarthNet.uav[19] simulationTime 259200
scalar OsgEarthNet.uav[20] utilizationSecMission 9222.6096854003
scalar OsgEarthNet.uav[20] utilizationSecMaintenance 6400.9943458114
scalar OsgEarthNet.uav[20] utilizationSecCharge 58570
scalar OsgEarthNet.uav[20] utilizationSecIdle 185006.39496879
scalar OsgEarthNet.uav[20] utilizationEnergyMission 45161.865146637
scalar OsgEarthNet.uav[20] utilizationEnergyMaintenance 29965.586528778
scalar OsgEarthNet.uav[20] utilizationEnergyCharge 75040.060546875
scalar OsgEarthNet.uav[20] utilizationEnergyOverdrawMission 0
scalar OsgEarthNet.uav[20] utilizationEnergyOverdrawMaintenance 0
scalar OsgEarthNet.uav[20] utilizationCountMissions 17
scalar OsgEarthNet.uav[20] utilizationCountManeuversMission 340
scalar OsgEarthNet.uav[20] utilizationCountManeuversMaintenance 34
scalar OsgEarthNet.uav[20] utilizationCountChargeState 17
scalar OsgEarthNet.uav[20] utilizationCountOverdrawnAfterMission 0
scalar OsgEarthNet.uav[20] utilizationCountIdleState 18
scalar OsgEarthNet.uav[20] utilizationFail 0
scalar OsgEarthNet.uav[20] simulationTime 259200
scalar OsgEarthNet.uav[21] utilizationSecMission 13988.555023865
scalar OsgEarthNet.uav[21] utilizationSecMaintenance 10144.811380899
scalar OsgEarthNet.uav[21] utilizationSecCharge 94680
scalar OsgEarthNet.uav[21] utilizationSecIdle 140386.63259524
scalar OsgEarthNet.uav[21] utilizationEnergyMission 68877.996307373
scalar OsgEarthNet.uav[21] utilizationEnergyMaintenance 48141.916164398
scalar OsgEarthNet.uav[21] utilizationEnergyCharge 118414.74462891
scalar OsgEarthNet.uav[21] utilizationEnergyOverdrawMission 0
scalar OsgEarthNet.uav[21] utilizationEnergyOverdrawMaintenance 0
scalar OsgEarthNet.uav[21] utilizationCountMissions 29
scalar OsgEarthNet.uav[21] utilizationCountManeuversMission 535
scalar OsgEarthNet.uav[21] utilizationCountManeuversMaintenance 58
scalar OsgEarthNet.uav[21] utilizationCountChargeState 29
scalar OsgEarthNet.uav[21] utilizationCountOverdrawnAfterMission 0
scalar OsgEarthNet.uav[21] utilizationCountIdleState 30
scalar OsgEarthNet.uav[21] utilizationFail 0
scalar OsgEarthNet.uav[21] simulationTime 259200
scalar OsgEarthNet.uav[22] utilizationSecMission 39059.806896945
scalar OsgEarthNet.uav[22] utilizationSecMaintenance 16894.440797738
scalar OsgEarthNet.uav[22] utilizationSecCharge 195983.74830532
scalar OsgEarthNet.uav[22] utilizationSecIdle 7262.003
scalar OsgEarthNet.uav[22] utilizationEnergyMission 191231.00619888
scalar OsgEarthNet.uav[22] utilizationEnergyMaintenance 78714.711265564
scalar OsgEarthNet.uav[22] utilizationEnergyCharge 269411.25976562
scalar OsgEarthNet.uav[22] utilizationEnergyOverdrawMission 0
scalar OsgEarthNet.uav[22] utilizationEnergyOverdrawMaintenance 0
scalar OsgEarthNet.uav[22] utilizationCountMissions 58
scalar OsgEarthNet.uav[22] utilizationCountManeuversMission 1252
scalar OsgEarthNet.uav[22] utilizationCountManeuversMaintenance 116
scalar OsgEarthNet.uav[22] utilizationCountChargeState 58
scalar OsgEarthNet.uav[22] utilizationCountOverdrawnAfterMission 0
scalar OsgEarthNet.uav[22] utilizationCountIdleState 27
scalar OsgEarthNet.uav[22] utilizationFail 0
scalar OsgEarthNet.uav[22] simulationTime 259200
scalar OsgEarthNet.uav[23] utilizationSecMission 38935.820993462
scalar OsgEarthNet.uav[23] utilizationSecMaintenance 17808.15639534
scalar OsgEarthNet.uav[23] utilizationSecCharge 197990
scalar OsgEarthNet.uav[23] utilizationSecIdle 4466.0216111988
scalar OsgEarthNet.uav[23] utilizationEnergyMission 187821.12912369
scalar OsgEarthNet.uav[23] utilizationEnergyMaintenance 80815.972321074
scalar OsgEarthNet.uav[23] utilizationEnergyCharge 270134.30419922
scalar OsgEarthNet.uav[23] utilizationEnergyOverdrawMission 0
scalar OsgEarthNet.uav[23] utilizationEnergyOverdrawMaintenance 0
scalar OsgEarthNet.uav[23] utilizationCountMissions 59
scalar OsgEarthNet.uav[23] utilizationCountManeuversMission 1165
scalar OsgEarthNet.uav[23] utilizationCountManeuversMaintenance 119
scalar OsgEarthNet.uav[23] utilizationCountChargeState 59
scalar OsgEarthNet.uav[23] utilizationCountOverdrawnAfterMission 0
scalar OsgEarthNet.uav[23] utilizationCountIdleState 19
scalar OsgEarthNet.uav[23] utilizationFail 0
scalar OsgEarthNet.uav[23] simulationTime 259200
scalar OsgEarthNet.uav[24] utilizationSecMission 17401.767698759
scalar OsgEarthNet.uav[24] utilizationSecMaintenance 11874.540200278
scalar OsgEarthNet.uav[24] utilizationSecCharge 113820
scalar OsgEarthNet.uav[24] utilizationSecIdle 116103.69110096
scalar OsgEarthNet.uav[24] utilizationEnergyMission 85746.901203155
scalar OsgEarthNet.uav[24] utilizationEnergyMaintenance 56072.884853363
scalar OsgEarthNet.uav[24] utilizationEnergyCharge 140186.83203125
scalar OsgEarthNet.uav[24] utilizationEnergyOverdrawMission 0
scalar OsgEarthNet.uav[24] utilizationEnergyOverdrawMaintenance 0
scalar OsgEarthNet.uav[24] utilizationCountMissions 36
scalar OsgEarthNet.uav[24] utilizationCountManeuversMission 544
scalar OsgEarthNet.uav[24] utilizationCountManeuversMaintenance 72
scalar OsgEarthNet.uav[24] utilizationCountChargeState 36
scalar OsgEarthNet.uav[24] utilizationCountOverdrawnAfterMission 0
scalar OsgEarthNet.uav[24] utilizationCountIdleState 37
scalar OsgEarthNet.uav[24] utilizationFail 0
scalar OsgEarthNet.uav[24] simulationTime 259200
scalar OsgEarthNet.uav[25] utilizationSecMission 10526.55274168
scalar OsgEarthNet.uav[25] utilizationSecMaintenance 6651.3380749651
scalar OsgEarthNet.uav[25] utilizationSecCharge 63790
scalar OsgEarthNet.uav[25] utilizationSecIdle 178232.10818335
scalar OsgEarthNet.uav[25] utilizationEnergyMission 51160.440311432
scalar OsgEarthNet.uav[25] utilizationEnergyMaintenance 31756.946537018
scalar OsgEarthNet.uav[25] utilizationEnergyCharge 82659.366699219
scalar OsgEarthNet.uav[25] utilizationEnergyOverdrawMission 0
scalar OsgEarthNet.uav[25] utilizationEnergyOverdrawMaintenance 0
scalar OsgEarthNet.uav[25] utilizationCountMissions 18
scalar OsgEarthNet.uav[25] utilizationCountManeuversMission 340
scalar OsgEarthNet.uav[25] utilizationCountManeuversMaintenance 36
scalar OsgEarthNet.uav[25] utilizationCountChargeState 18
scalar OsgEarthNet.uav[25] utilizationCountOverdrawnAfterMission 0
scalar OsgEarthNet.uav[25] utilizationCountIdleState 19
scalar OsgEarthNet.uav[25] utilizationFail 0
scalar OsgEarthNet.uav[25] simulationTime 259200
scalar OsgEarthNet.uav[26] utilizationSecMission 11002.500610321
scalar OsgEarthNet.uav[26] utilizationSecMaintenance 8378.7827704076
scalar OsgEarthNet.uav[26] utilizationSecCharge 73050
scalar OsgEarthNet.uav[26] utilizationSecIdle 166768.71561927
scalar OsgEarthNet.uav[26] utilizationEnergyMission 55635.358337402
scalar OsgEarthNet.uav[26] utilizationEnergyMaintenance 40089.18252182
scalar OsgEarthNet.uav[26] utilizationEnergyCharge 93903.457519531
scalar OsgEarthNet.uav[26] utilizationEnergyOverdrawMission 0
scalar OsgEarthNet.uav[26] utilizationEnergyOverdrawMaintenance 0
scalar OsgEarthNet.uav[26] utilizationCountMissions 21
scalar OsgEarthNet.uav[26] utilizationCountManeuversMission 446
scalar OsgEarthNet.uav[26] utilizationCountManeuversMaintenance 42
scalar OsgEarthNet.uav[26] utilizationCountChargeState 21
scalar OsgEarthNet.uav[26] utilizationCountOverdrawnAfterMission 0
scalar OsgEarthNet.uav[26] utilizationCountIdleState 22
scalar OsgEarthNet.uav[26] utilizationFail 0
scalar OsgEarthNet.uav[26] simulationTime 259200
scalar OsgEarthNet.uav[27] utilizationSecMission 17845.539942514
scalar OsgEarthNet.uav[27] utilizationSecMaintenance 11590.719215918
scalar OsgEarthNet.uav[27] utilizationSecCharge 113411.73084157
scalar OsgEarthNet.uav[27] utilizationSecIdle 116352.009
scalar OsgEarthNet.uav[27] utilizationEnergyMission 85833.288246155
scalar OsgEarthNet.uav[27] utilizationEnergyMaintenance 54872.108600616
scalar OsgEarthNet.uav[27] utilizationEnergyCharge 142249.29589844
scalar OsgEarthNet.uav[27] utilizationEnergyOverdrawMission 0
scalar OsgEarthNet.uav[27] utilizationEnergyOverdrawMaintenance 0
scalar OsgEarthNet.uav[27] utilizationCountMissions 35
scalar OsgEarthNet.uav[27] utilizationCountManeuversMission 543
scalar OsgEarthNet.uav[27] utilizationCountManeuversMaintenance 70
scalar OsgEarthNet.uav[27] utilizationCountChargeState 35
scalar OsgEarthNet.uav[27] utilizationCountOverdrawnAfterMission 0
scalar OsgEarthNet.uav[27] utilizationCountIdleState 35
scalar OsgEarthNet.uav[27] utilizationFail 0
scalar OsgEarthNet.uav[27] simulationTime 259200
scalar OsgEarthNet.uav[28] utilizationSecMission 39700.150682403
scalar OsgEarthNet.uav[28] utilizationSecMaintenance 16448.921212068
scalar OsgEarthNet.uav[28] utilizationSecCharge 196659.47414681
scalar OsgEarthNet.uav[28] utilizationSecIdle 6391.4529587171
scalar OsgEarthNet.uav[28] utilizationEnergyMission 192293.06490326
scalar OsgEarthNet.uav[28] utilizationEnergyMaintenance 75931.645587921
scalar OsgEarthNet.uav[28] utilizationEnergyCharge 267566.10351562
scalar OsgEarthNet.uav[28] utilizationEnergyOverdrawMission 0
scalar OsgEarthNet.uav[28] utilizationEnergyOverdrawMaintenance 0
scalar OsgEarthNet.uav[28] utilizationCountMissions 58
scalar OsgEarthNet.uav[28] utilizationCountManeuversMission 1205
scalar OsgEarthNet.uav[28] utilizationCountManeuversMaintenance 116
scalar OsgEarthNet.uav[28] utilizationCountChargeState 58
scalar OsgEarthNet.uav[28] utilizationCountOverdrawnAfterMission 0
scalar OsgEarthNet.uav[28] utilizationCountIdleState 28
scalar OsgEarthNet.uav[28] utilizationFail 0
scalar OsgEarthNet.uav[28] simulationTime 259200
scalar OsgEarthNet.uav[29] utilizationSecMission 9914.1180293114
scalar OsgEarthNet.uav[29] utilizationSecMaintenance 6044.1772771074
scalar OsgEarthNet.uav[29] utilizationSecCharge 58183.301340295
scalar OsgEarthNet.uav[29] utilizationSecIdle 185058.40235329
scalar OsgEarthNet.uav[29] utilizationEnergyMission 47724.363136292
scalar OsgEarthNet.uav[29] utilizationEnergyMaintenance 28503.837730408
scalar OsgEarthNet.uav[29] utilizationEnergyCharge 75929.780517578
scalar OsgEarthNet.uav[29] utilizationEnergyOverdrawMission 0
scalar OsgEarthNet.uav[29] utilizationEnergyOverdrawMaintenance 0
scalar OsgEarthNet.uav[29] utilizationCountMissions 17
scalar OsgEarthNet.uav[29] utilizationCountManeuversMission 318
scalar OsgEarthNet.uav[29] utilizationCountManeuversMaintenance 34
scalar OsgEarthNet.uav[29] utilizationCountChargeState 17
scalar OsgEarthNet.uav[29] utilizationCountOverdrawnAfterMission 0
scalar OsgEarthNet.uav[29] utilizationCountIdleState 17
scalar OsgEarthNet.uav[29] utilizationFail 0
scalar OsgEarthNet.uav[29] simulationTime 259200
scalar OsgEarthNet.uav[30] utilizationSecMission 10824.376068062
scalar OsgEarthNet.uav[30] utilizationSecMaintenance 6808.5500885375
scalar OsgEarthNet.uav[30] utilizationSecCharge 65755.068843401
scalar OsgEarthNet.uav[30] utilizationSecIdle 175812.004
scalar OsgEarthNet.uav[30] utilizationEnergyMission 52271.974433899
scalar OsgEarthNet.uav[30] utilizationEnergyMaintenance 32272.878787994
scalar OsgEarthNet.uav[30] utilizationEnergyCharge 85415.480957031
scalar OsgEarthNet.uav[30] utilizationEnergyOverdrawMission 0
scalar OsgEarthNet.uav[30] utilizationEnergyOverdrawMaintenance 0
scalar OsgEarthNet.uav[30] utilizationCountMissions 19
scalar OsgEarthNet.uav[30] utilizationCountManeuversMission 359
scalar OsgEarthNet.uav[30] utilizationCountManeuversMaintenance 38
scalar OsgEarthNet.uav[30] utilizationCountChargeState 19
scalar OsgEarthNet.uav[30] utilizationCountOverdrawnAfterMission 0
scalar OsgEarthNet.uav[30] utilizationCountIdleState 19
scalar OsgEarthNet.uav[30] utilizationFail 0
scalar OsgEarthNet.uav[30] simulationTime 259200
scalar OsgEarthNet.uav[31] utilizationSecMission 26290.84645665
scalar OsgEarthNet.uav[31] utilizationSecMaintenance 13273.360435083
scalar OsgEarthNet.uav[31] utilizationSecCharge 140673.79010827
scalar OsgEarthNet.uav[31] utilizationSecIdle 78962.002
scalar OsgEarthNet.uav[31] utilizationEnergyMission 128803.40984344
scalar OsgEarthNet.uav[31] utilizationEnergyMaintenance 61759.240531921
scalar OsgEarthNet.uav[31] utilizationEnergyCharge 183881.3984375
scalar OsgEarthNet.uav[31] utilizationEnergyOverdrawMission 0
scalar OsgEarthNet.uav[31] utilizationEnergyOverdrawMaintenance 0
scalar OsgEarthNet.uav[31] utilizationCountMissions 42
scalar OsgEarthNet.uav[31] utilizationCountManeuversMission 833
scalar OsgEarthNet.uav[31] utilizationCountManeuversMaintenance 84
scalar OsgEarthNet.uav[31] utilizationCountChargeState 42
scalar OsgEarthNet.uav[31] utilizationCountOverdrawnAfterMission 0
scalar OsgEarthNet.uav[31] utilizationCountIdleState 31
scalar OsgEarthNet.uav[31] utilizationFail 0
scalar OsgEarthNet.uav[31] simulationTime 259200
scalar OsgEarthNet.uav[32] utilizationSecMission 40128.591635248
scalar OsgEarthNet.uav[32] utilizationSecMaintenance 16729.407364752
scalar OsgEarthNet.uav[32] utilizationSecCharge 197390
scalar OsgEarthNet.uav[32] utilizationSecIdle 4952
scalar OsgEarthNet.uav[32] utilizationEnergyMission 194352.1596221
scalar OsgEarthNet.uav[32] utilizationEnergyMaintenance 78522.612709045
scalar OsgEarthNet.uav[32] utilizationEnergyCharge 268566.21484375
scalar OsgEarthNet.uav[32] utilizationEnergyOverdrawMission 0
scalar OsgEarthNet.uav[32] utilizationEnergyOverdrawMaintenance 0
scalar OsgEarthNet.uav[32] utilizationCountMissions 58
scalar OsgEarthNet.uav[32] utilizationCountManeuversMission 1228
scalar OsgEarthNet.uav[32] utilizationCountManeuversMaintenance 117
scalar OsgEarthNet.uav[32] utilizationCountChargeState 58
scalar OsgEarthNet.uav[32] utilizationCountOverdrawnAfterMission 0
scalar OsgEarthNet.uav[32] utilizationCountIdleState 32
scalar OsgEarthNet.uav[32] utilizationFail 0
scalar OsgEarthNet.uav[32] simulationTime 259200
scalar OsgEarthNet.uav[33] utilizationSecMission 39872.970128044
scalar OsgEarthNet.uav[33] utilizationSecMaintenance 16820.747544548
scalar OsgEarthNet.uav[33] utilizationSecCharge 199384.28132741
scalar OsgEarthNet.uav[33] utilizationSecIdle 3122
scalar OsgEarthNet.uav[33] utilizationEnergyMission 193167.74081421
scalar OsgEarthNet.uav[33] utilizationEnergyMaintenance 77706.655139923
scalar OsgEarthNet.uav[33] utilizationEnergyCharge 272061.06152344
scalar OsgEarthNet.uav[33] utilizationEnergyOverdrawMission 0
scalar OsgEarthNet.uav[33] utilizationEnergyOverdrawMaintenance 0
scalar OsgEarthNet.uav[33] utilizationCountMissions 59
scalar OsgEarthNet.uav[33] utilizationCountManeuversMission 1134
scalar OsgEarthNet.uav[33] utilizationCountManeuversMaintenance 117
scalar OsgEarthNet.uav[33] utilizationCountChargeState 59
scalar OsgEarthNet.uav[33] utilizationCountOverdrawnAfterMission 0
scalar OsgEarthNet.uav[33] utilizationCountIdleState 23
scalar OsgEarthNet.uav[33] utilizationFail 0
scalar OsgEarthNet.uav[33] simulationTime 259200
scalar OsgEarthNet.uav[34] utilizationSecMission 18039.050130078
scalar OsgEarthNet.uav[34] utilizationSecMaintenance 13497.127846901
scalar OsgEarthNet.uav[34] utilizationSecCharge 125650
scalar OsgEarthNet.uav[34] utilizationSecIdle 102013.82102302
scalar OsgEarthNet.uav[34] utilizationEnergyMission 89021.667934418
scalar OsgEarthNet.uav[34] utilizationEnergyMaintenance 64148.253227234
scalar OsgEarthNet.uav[34] utilizationEnergyCharge 152328.17016602
scalar OsgEarthNet.uav[34] utilizationEnergyOverdrawMission 0
scalar OsgEarthNet.uav[34] utilizationEnergyOverdrawMaintenance 0
scalar OsgEarthNet.uav[34] utilizationCountMissions 41
scalar OsgEarthNet.uav[34] utilizationCountManeuversMission 578
scalar OsgEarthNet.uav[34] utilizationCountManeuversMaintenance 82
scalar OsgEarthNet.uav[34] utilizationCountChargeState 41
scalar OsgEarthNet.uav[34] utilizationCountOverdrawnAfterMission 0
scalar OsgEarthNet.uav[34] utilizationCountIdleState 42
scalar OsgEarthNet.uav[34] utilizationFail 0
scalar OsgEarthNet.uav[34] simulationTime 259200
scalar OsgEarthNet.uav[35] utilizationSecMission 40195.209305201
scalar OsgEarthNet.uav[35] utilizationSecMaintenance 16335.870773597
scalar OsgEarthNet.uav[35] utilizationSecCharge 194652.895651
scalar OsgEarthNet.uav[35] utilizationSecIdle 8016.0232702045
scalar OsgEarthNet.uav[35] utilizationEnergyMission 195311.27334213
scalar OsgEarthNet.uav[35] utilizationEnergyMaintenance 74424.340122223
scalar OsgEarthNet.uav[35] utilizationEnergyCharge 264279.87451172
scalar OsgEarthNet.uav[35] utilizationEnergyOverdrawMission 0
scalar OsgEarthNet.uav[35] utilizationEnergyOverdrawMaintenance 0
scalar OsgEarthNet.uav[35] utilizationCountMissions 58
scalar OsgEarthNet.uav[35] utilizationCountManeuversMission 1201
scalar OsgEarthNet.uav[35] utilizationCountManeuversMaintenance 116
scalar OsgEarthNet.uav[35] utilizationCountChargeState 58
scalar OsgEarthNet.uav[35] utilizationCountOverdrawnAfterMission 0
scalar OsgEarthNet.uav[35] utilizationCountIdleState 28
scalar OsgEarthNet.uav[35] utilizationFail 0
scalar OsgEarthNet.uav[35] simulationTime 259200
scalar OsgEarthNet.uav[36] utilizationSecMission 10363.750915482
scalar OsgEarthNet.uav[36] utilizationSecMaintenance 6625.3951989435
scalar OsgEarthNet.uav[36] utilizationSecCharge 62964.328988873
scalar OsgEarthNet.uav[36] utilizationSecIdle 179246.5238967
scalar OsgEarthNet.uav[36] utilizationEnergyMission 51583.107124329
scalar OsgEarthNet.uav[36] utilizationEnergyMaintenance 30945.241886139
scalar OsgEarthNet.uav[36] utilizationEnergyCharge 81143.422363281
scalar OsgEarthNet.uav[36] utilizationEnergyOverdrawMission 0
scalar OsgEarthNet.uav[36] utilizationEnergyOverdrawMaintenance 0
scalar OsgEarthNet.uav[36] utilizationCountMissions 18
scalar OsgEarthNet.uav[36] utilizationCountManeuversMission 362
scalar OsgEarthNet.uav[36] utilizationCountManeuversMaintenance 36
scalar OsgEarthNet.uav[36] utilizationCountChargeState 18
scalar OsgEarthNet.uav[36] utilizationCountOverdrawnAfterMission 0
scalar OsgEarthNet.uav[36] utilizationCountIdleState 18
scalar OsgEarthNet.uav[36] utilizationFail 0
scalar OsgEarthNet.uav[36] simulationTime 259200
scalar OsgEarthNet.uav[37] utilizationSecMission 20361.873979615
scalar OsgEarthNet.uav[37] utilizationSecMaintenance 13231.875798809
scalar OsgEarthNet.uav[37] utilizationSecCharge 127054.24922158
scalar OsgEarthNet.uav[37] utilizationSecIdle 98552
scalar OsgEarthNet.uav[37] utilizationEnergyMission 98313.649894714
scalar OsgEarthNet.uav[37] utilizationEnergyMaintenance 62970.74118042
scalar OsgEarthNet.uav[37] utilizationEnergyCharge 158330.2197876
scalar OsgEarthNet.uav[37] utilizationEnergyOverdrawMission 0
scalar OsgEarthNet.uav[37] utilizationEnergyOverdrawMaintenance 0
scalar OsgEarthNet.uav[37] utilizationCountMissions 40
scalar OsgEarthNet.uav[37] utilizationCountManeuversMission 636
scalar OsgEarthNet.uav[37] utilizationCountManeuversMaintenance 79
scalar OsgEarthNet.uav[37] utilizationCountChargeState 40
scalar OsgEarthNet.uav[37] utilizationCountOverdrawnAfterMission 0
scalar OsgEarthNet.uav[37] utilizationCountIdleState 40
scalar OsgEarthNet.uav[37] utilizationFail 0
scalar OsgEarthNet.uav[37] simulationTime 259200
scalar OsgEarthNet.uav[38] utilizationSecMission 39001.858287216
scalar OsgEarthNet.uav[38] utilizationSecMaintenance 16735.160184149
scalar OsgEarthNet.uav[38] utilizationSecCharge 195020.97452863
scalar OsgEarthNet.uav[38] utilizationSecIdle 8442.006
scalar OsgEarthNet.uav[38] utilizationEnergyMission 189416.00312042
scalar OsgEarthNet.uav[38] utilizationEnergyMaintenance 78203.976127625
scalar OsgEarthNet.uav[38] utilizationEnergyCharge 265944.04101562
scalar OsgEarthNet.uav[38] utilizationEnergyOverdrawMission 0
scalar OsgEarthNet.uav[38] utilizationEnergyOverdrawMaintenance 0
scalar OsgEarthNet.uav[38] utilizationCountMissions 58
scalar OsgEarthNet.uav[38] utilizationCountManeuversMission 1215
scalar OsgEarthNet.uav[38] utilizationCountManeuversMaintenance 116
scalar OsgEarthNet.uav[38] utilizationCountChargeState 58
scalar OsgEarthNet.uav[38] utilizationCountOverdrawnAfterMission 0
scalar OsgEarthNet.uav[38] utilizationCountIdleState 27
scalar OsgEarthNet.uav[38] utilizationFail 0
scalar OsgEarthNet.uav[38] simulationTime 259200
scalar OsgEarthNet.uav[39] utilizationSecMission 11565.001220642
scalar OsgEarthNet.uav[39] utilizationSecMaintenance 7351.2256487577
scalar OsgEarthNet.uav[39] utilizationSecCharge 70720
scalar OsgEarthNet.uav[39] utilizationSecIdle 169563.7721306
scalar OsgEarthNet.uav[39] utilizationEnergyMission 55303.325817108
scalar OsgEarthNet.uav[39] utilizationEnergyMaintenance 35391.151046753
scalar OsgEarthNet.uav[39] utilizationEnergyCharge 91534.706054688
scalar OsgEarthNet.uav[39] utilizationEnergyOverdrawMission 0
scalar OsgEarthNet.uav[39] utilizationEnergyOverdrawMaintenance 0
scalar OsgEarthNet.uav[39] utilizationCountMissions 20
scalar OsgEarthNet.uav[39] utilizationCountManeuversMission 370
scalar OsgEarthNet.uav[39] utilizationCountManeuversMaintenance 40
scalar OsgEarthNet.uav[39] utilizationCountChargeState 20
scalar OsgEarthNet.uav[39] utilizationCountOverdrawnAfterMission 0
scalar OsgEarthNet.uav[39] utilizationCountIdleState 21
scalar OsgEarthNet.uav[39] utilizationFail 0
scalar OsgEarthNet.uav[39] simulationTime 259200
scalar OsgEarthNet.uav[40] utilizationSecMission 10493.383801652
scalar OsgEarthNet.uav[40] utilizationSecMaintenance 7458.6837661442
scalar OsgEarthNet.uav[40] utilizationSecCharge 67180
scalar OsgEarthNet.uav[40] utilizationSecIdle 174067.9314322
scalar OsgEarthNet.uav[40] utilizationEnergyMission 51669.169410706
scalar OsgEarthNet.uav[40] utilizationEnergyMaintenance 35595.402164459
scalar OsgEarthNet.uav[40] utilizationEnergyCharge 86693.736328125
scalar OsgEarthNet.uav[40] utilizationEnergyOverdrawMission 0
scalar OsgEarthNet.uav[40] utilizationEnergyOverdrawMaintenance 0
scalar OsgEarthNet.uav[40] utilizationCountMissions 19
scalar OsgEarthNet.uav[40] utilizationCountManeuversMission 390
scalar OsgEarthNet.uav[40] utilizationCountManeuversMaintenance 38
scalar OsgEarthNet.uav[40] utilizationCountChargeState 19
scalar OsgEarthNet.uav[40] utilizationCountOverdrawnAfterMission 0
scalar OsgEarthNet.uav[40] utilizationCountIdleState 20
scalar OsgEarthNet.uav[40] utilizationFail 0
scalar OsgEarthNet.uav[40] simulationTime 259200
scalar OsgEarthNet.uav[41] utilizationSecMission 20153.955416363
scalar OsgEarthNet.uav[41] utilizationSecMaintenance 14012.041669416
scalar OsgEarthNet.uav[41] utilizationSecCharge 128841.98991422
scalar OsgEarthNet.uav[41] utilizationSecIdle 96192.012
scalar OsgEarthNet.uav[41] utilizationEnergyMission 97236.578723907
scalar OsgEarthNet.uav[41] utilizationEnergyMaintenance 66560.332866669
scalar OsgEarthNet.uav[41] utilizationEnergyCharge 159977.27697754
scalar OsgEarthNet.uav[41] utilizationEnergyOverdrawMission 0
scalar OsgEarthNet.uav[41] utilizationEnergyOverdrawMaintenance 0
scalar OsgEarthNet.uav[41] utilizationCountMissions 41
scalar OsgEarthNet.uav[41] utilizationCountManeuversMission 724
scalar OsgEarthNet.uav[41] utilizationCountManeuversMaintenance 82
scalar OsgEarthNet.uav[41] utilizationCountChargeState 41
scalar OsgEarthNet.uav[41] utilizationCountOverdrawnAfterMission 0
scalar OsgEarthNet.uav[41] utilizationCountIdleState 41
scalar OsgEarthNet.uav[41] utilizationFail 0
scalar OsgEarthNet.uav[41] simulationTime 259200
scalar OsgEarthNet.uav[42] utilizationSecMission 39526.300842905
scalar OsgEarthNet.uav[42] utilizationSecMaintenance 17175.063461933
scalar OsgEarthNet.uav[42] utilizationSecCharge 196080
scalar OsgEarthNet.uav[42] utilizationSecIdle 6418.6346951619
scalar OsgEarthNet.uav[42] utilizationEnergyMission 189229.82629395
scalar OsgEarthNet.uav[42] utilizationEnergyMaintenance 78695.427677155
scalar OsgEarthNet.uav[42] utilizationEnergyCharge 267219.80224609
scalar OsgEarthNet.uav[42] utilizationEnergyOverdrawMission 0
scalar OsgEarthNet.uav[42] utilizationEnergyOverdrawMaintenance 0
scalar OsgEarthNet.uav[42] utilizationCountMissions 58
scalar OsgEarthNet.uav[42] utilizationCountManeuversMission 1126
scalar OsgEarthNet.uav[42] utilizationCountManeuversMaintenance 116
scalar OsgEarthNet.uav[42] utilizationCountChargeState 58
scalar OsgEarthNet.uav[42] utilizationCountOverdrawnAfterMission 0
scalar OsgEarthNet.uav[42] utilizationCountIdleState 26
scalar OsgEarthNet.uav[42] utilizationFail 0
scalar OsgEarthNet.uav[42] simulationTime 259200
scalar OsgEarthNet.uav[43] utilizationSecMission 19211.126140325
scalar OsgEarthNet.uav[43] utilizationSecMaintenance 10833.183807011
scalar OsgEarthNet.uav[43] utilizationSecCharge 112450
scalar OsgEarthNet.uav[43] utilizationSecIdle 116705.68905266
scalar OsgEarthNet.uav[43] utilizationEnergyMission 92218.416923523
scalar OsgEarthNet.uav[43] utilizationEnergyMaintenance 51458.705841064
scalar OsgEarthNet.uav[43] utilizationEnergyCharge 145246.49902344
scalar OsgEarthNet.uav[43] utilizationEnergyOverdrawMission 0
scalar OsgEarthNet.uav[43] utilizationEnergyOverdrawMaintenance 0
scalar OsgEarthNet.uav[43] utilizationCountMissions 32
scalar OsgEarthNet.uav[43] utilizationCountManeuversMission 572
scalar OsgEarthNet.uav[43] utilizationCountManeuversMaintenance 63
scalar OsgEarthNet.uav[43] utilizationCountChargeState 32
scalar OsgEarthNet.uav[43] utilizationCountOverdrawnAfterMission 0
scalar OsgEarthNet.uav[43] utilizationCountIdleState 33
scalar OsgEarthNet.uav[43] utilizationFail 0
scalar OsgEarthNet.uav[43] simulationTime 259200
scalar OsgEarthNet.uav[44] utilizationSecMission 19850.800784996
scalar OsgEarthNet.uav[44] utilizationSecMaintenance 14061.989399442
scalar OsgEarthNet.uav[44] utilizationSecCharge 131455.20581556
scalar OsgEarthNet.uav[44] utilizationSecIdle 93832.003
scalar OsgEarthNet.uav[44] utilizationEnergyMission 99002.795291901
scalar OsgEarthNet.uav[44] utilizationEnergyMaintenance 66336.460327148
scalar OsgEarthNet.uav[44] utilizationEnergyCharge 165559.02026367
scalar OsgEarthNet.uav[44] utilizationEnergyOverdrawMission 0
scalar OsgEarthNet.uav[44] utilizationEnergyOverdrawMaintenance 0
scalar OsgEarthNet.uav[44] utilizationCountMissions 40
scalar OsgEarthNet.uav[44] utilizationCountManeuversMission 754
scalar OsgEarthNet.uav[44] utilizationCountManeuversMaintenance 80
scalar OsgEarthNet.uav[44] utilizationCountChargeState 40
scalar OsgEarthNet.uav[44] utilizationCountOverdrawnAfterMission 0
scalar OsgEarthNet.uav[44] utilizationCountIdleState 40
scalar OsgEarthNet.uav[44] utilizationFail 0
scalar OsgEarthNet.uav[44] simulationTime 259200
scalar OsgEarthNet.uav[45] utilizationSecMission 39797.009050688
scalar OsgEarthNet.uav[45] utilizationSecMaintenance 17678.196991912
scalar OsgEarthNet.uav[45] utilizationSecCharge 195425.16187674
scalar OsgEarthNet.uav[45] utilizationSecIdle 6299.6310806652
scalar OsgEarthNet.uav[45] utilizationEnergyMission 189133.66362762
scalar OsgEarthNet.uav[45] utilizationEnergyMaintenance 81862.121265411
scalar OsgEarthNet.uav[45] utilizationEnergyCharge 269007.94042969
scalar OsgEarthNet.uav[45] utilizationEnergyOverdrawMission 0
scalar OsgEarthNet.uav[45] utilizationEnergyOverdrawMaintenance 0
scalar OsgEarthNet.uav[45] utilizationCountMissions 59
scalar OsgEarthNet.uav[45] utilizationCountManeuversMission 1198
scalar OsgEarthNet.uav[45] utilizationCountManeuversMaintenance 118
scalar OsgEarthNet.uav[45] utilizationCountChargeState 59
scalar OsgEarthNet.uav[45] utilizationCountOverdrawnAfterMission 0
scalar OsgEarthNet.uav[45] utilizationCountIdleState 19
scalar OsgEarthNet.uav[45] utilizationFail 0
scalar OsgEarthNet.uav[45] simulationTime 259200
scalar OsgEarthNet.uav[46] utilizationSecMission 11543.750915482
scalar OsgEarthNet.uav[46] utilizationSecMaintenance 8055.0263809191
scalar OsgEarthNet.uav[46] utilizationSecCharge 72219.200703599
scalar OsgEarthNet.uav[46] utilizationSecIdle 167382.021
scalar OsgEarthNet.uav[46] utilizationEnergyMission 56819.088035583
scalar OsgEarthNet.uav[46] utilizationEnergyMaintenance 37806.588996887
scalar OsgEarthNet.uav[46] utilizationEnergyCharge 93885.442871094
scalar OsgEarthNet.uav[46] utilizationEnergyOverdrawMission 0
scalar OsgEarthNet.uav[46] utilizationEnergyOverdrawMaintenance 0
scalar OsgEarthNet.uav[46] utilizationCountMissions 21
scalar OsgEarthNet.uav[46] utilizationCountManeuversMission 421
scalar OsgEarthNet.uav[46] utilizationCountManeuversMaintenance 42
scalar OsgEarthNet.uav[46] utilizationCountChargeState 21
scalar OsgEarthNet.uav[46] utilizationCountOverdrawnAfterMission 0
scalar OsgEarthNet.uav[46] utilizationCountIdleState 21
scalar OsgEarthNet.uav[46] utilizationFail 0
scalar OsgEarthNet.uav[46] simulationTime 259200
scalar OsgEarthNet.uav[47] utilizationSecMission 21378.033338901
scalar OsgEarthNet.uav[47] utilizationSecMaintenance 13427.515905479
scalar OsgEarthNet.uav[47] utilizationSecCharge 132412.44575562
scalar OsgEarthNet.uav[47] utilizationSecIdle 91982.004
scalar OsgEarthNet.uav[47] utilizationEnergyMission 104465.47543335
scalar OsgEarthNet.uav[47] utilizationEnergyMaintenance 64170.613861084
scalar OsgEarthNet.uav[47] utilizationEnergyCharge 167814.80615234
scalar OsgEarthNet.uav[47] utilizationEnergyOverdrawMission 0
scalar OsgEarthNet.uav[47] utilizationEnergyOverdrawMaintenance 0
scalar OsgEarthNet.uav[47] utilizationCountMissions 40
scalar OsgEarthNet.uav[47] utilizationCountManeuversMission 683
scalar OsgEarthNet.uav[47] utilizationCountManeuversMaintenance 80
scalar OsgEarthNet.uav[47] utilizationCountChargeState 40
scalar OsgEarthNet.uav[47] utilizationCountOverdrawnAfterMission 0
scalar OsgEarthNet.uav[47] utilizationCountIdleState 40
scalar OsgEarthNet.uav[47] utilizationFail 0
scalar OsgEarthNet.uav[47] simulationTime 259200
scalar OsgEarthNet.uav[48] utilizationSecMission 41411.299396368
scalar OsgEarthNet.uav[48] utilizationSecMaintenance 15455.218399314
scalar OsgEarthNet.uav[48] utilizationSecCharge 195364.2615904
scalar OsgEarthNet.uav[48] utilizationSecIdle 6969.2196139157
scalar OsgEarthNet.uav[48] utilizationEnergyMission 197011.01713943
scalar OsgEarthNet.uav[48] utilizationEnergyMaintenance 71858.329608917
scalar OsgEarthNet.uav[48] utilizationEnergyCharge 266711.26953125
scalar OsgEarthNet.uav[48] utilizationEnergyOverdrawMission 0
scalar OsgEarthNet.uav[48] utilizationEnergyOverdrawMaintenance 0
scalar OsgEarthNet.uav[48] utilizationCountMissions 58
scalar OsgEarthNet.uav[48] utilizationCountManeuversMission 1074
scalar OsgEarthNet.uav[48] utilizationCountManeuversMaintenance 116
scalar OsgEarthNet.uav[48] utilizationCountChargeState 58
scalar OsgEarthNet.uav[48] utilizationCountOverdrawnAfterMission 0
scalar OsgEarthNet.uav[48] utilizationCountIdleState 25
scalar OsgEarthNet.uav[48] utilizationFail 0
scalar OsgEarthNet.uav[48] simulationTime 259200
scalar OsgEarthNet.uav[49] utilizationSecMission 16096.618639633
scalar OsgEarthNet.uav[49] utilizationSecMaintenance 9938.9128850582
scalar OsgEarthNet.uav[49] utilizationSecCharge 97280
scalar OsgEarthNet.uav[49] utilizationSecIdle 135884.46747531
scalar OsgEarthNet.uav[49] utilizationEnergyMission 78111.078109741
scalar OsgEarthNet.uav[49] utilizationEnergyMaintenance 47210.257888794
scalar OsgEarthNet.uav[49] utilizationEnergyCharge 124909.39550781
scalar OsgEarthNet.uav[49] utilizationEnergyOverdrawMission 0
scalar OsgEarthNet.uav[49] utilizationEnergyOverdrawMaintenance 0
scalar OsgEarthNet.uav[49] utilizationCountMissions 28
scalar OsgEarthNet.uav[49] utilizationCountManeuversMission 523
scalar OsgEarthNet.uav[49] utilizationCountManeuversMaintenance 56
scalar OsgEarthNet.uav[49] utilizationCountChargeState 28
scalar OsgEarthNet.uav[49] utilizationCountOverdrawnAfterMission 0
scalar OsgEarthNet.uav[49] utilizationCountIdleState 29
scalar OsgEarthNet.uav[49] utilizationFail 0
scalar OsgEarthNet.uav[49] simulationTime 259200
scalar OsgEarthNet.uav[50] utilizationSecMission 16648.752136124
scalar OsgEarthNet.uav[50] utilizationSecMaintenance 8870.3872522489
scalar OsgEarthNet.uav[50] utilizationSecCharge 91438.844611627
scalar OsgEarthNet.uav[50] utilizationSecIdle 142242.015
scalar OsgEarthNet.uav[50] utilizationEnergyMission 79386.175113678
scalar OsgEarthNet.uav[50] utilizationEnergyMaintenance 41572.917850494
scalar OsgEarthNet.uav[50] utilizationEnergyCharge 117682.21887207
scalar OsgEarthNet.uav[50] utilizationEnergyOverdrawMission 0
scalar OsgEarthNet.uav[50] utilizationEnergyOverdrawMaintenance 0
scalar OsgEarthNet.uav[50] utilizationCountMissions 27
scalar OsgEarthNet.uav[50] utilizationCountManeuversMission 468
scalar OsgEarthNet.uav[50] utilizationCountManeuversMaintenance 54
scalar OsgEarthNet.uav[50] utilizationCountChargeState 27
scalar OsgEarthNet.uav[50] utilizationCountOverdrawnAfterMission 0
scalar OsgEarthNet.uav[50] utilizationCountIdleState 27
scalar OsgEarthNet.uav[50] utilizationFail 0
scalar OsgEarthNet.uav[50] simulationTime 259200
scalar OsgEarthNet.uav[51] utilizationSecMission 20285.539942514
scalar OsgEarthNet.uav[51] utilizationSecMaintenance 12760.352971974
scalar OsgEarthNet.uav[51] utilizationSecCharge 123392.09808551
scalar OsgEarthNet.uav[51] utilizationSecIdle 102762.008
scalar OsgEarthNet.uav[51] utilizationEnergyMission 98289.500247955
scalar OsgEarthNet.uav[51] utilizationEnergyMaintenance 60031.297706604
scalar OsgEarthNet.uav[51] utilizationEnergyCharge 155563.75537109
scalar OsgEarthNet.uav[51] utilizationEnergyOverdrawMission 0
scalar OsgEarthNet.uav[51] utilizationEnergyOverdrawMaintenance 0
scalar OsgEarthNet.uav[51] utilizationCountMissions 38
scalar OsgEarthNet.uav[51] utilizationCountManeuversMission 665
scalar OsgEarthNet.uav[51] utilizationCountManeuversMaintenance 76
scalar OsgEarthNet.uav[51] utilizationCountChargeState 38
scalar OsgEarthNet.uav[51] utilizationCountOverdrawnAfterMission 0
scalar OsgEarthNet.uav[51] utilizationCountIdleState 38
scalar OsgEarthNet.uav[51] utilizationFail 0
scalar OsgEarthNet.uav[51] simulationTime 259200
scalar OsgEarthNet.uav[52] utilizationSecMission 40267.07164514
scalar OsgEarthNet.uav[52] utilizationSecMaintenance 17098.868612373
scalar OsgEarthNet.uav[52] utilizationSecCharge 197102.05874249
scalar OsgEarthNet.uav[52] utilizationSecIdle 4732
scalar OsgEarthNet.uav[52] utilizationEnergyMission 191654.63938904
scalar OsgEarthNet.uav[52] utilizationEnergyMaintenance 78560.609622955
scalar OsgEarthNet.uav[52] utilizationEnergyCharge 269174.68518066
scalar OsgEarthNet.uav[52] utilizationEnergyOverdrawMission 0
scalar OsgEarthNet.uav[52] utilizationEnergyOverdrawMaintenance 0
scalar OsgEarthNet.uav[52] utilizationCountMissions 59
scalar OsgEarthNet.uav[52] utilizationCountManeuversMission 1155
scalar OsgEarthNet.uav[52] utilizationCountManeuversMaintenance 118
scalar OsgEarthNet.uav[52] utilizationCountChargeState 59
scalar OsgEarthNet.uav[52] utilizationCountOverdrawnAfterMission 0
scalar OsgEarthNet.uav[52] utilizationCountIdleState 26
scalar OsgEarthNet.uav[52] utilizationFail 0
scalar OsgEarthNet.uav[52] simulationTime 259200
scalar OsgEarthNet.uav[53] utilizationSecMission 15406.767603304
scalar OsgEarthNet.uav[53] utilizationSecMaintenance 9461.1209147057
scalar OsgEarthNet.uav[53] utilizationSecCharge 91500
scalar OsgEarthNet.uav[53] utilizationSecIdle 142832.11048199
scalar OsgEarthNet.uav[53] utilizationEnergyMission 74850.351474762
scalar OsgEarthNet.uav[53] utilizationEnergyMaintenance 44792.455314636
scalar OsgEarthNet.uav[53] utilizationEnergyCharge 118104.32958984
scalar OsgEarthNet.uav[53] utilizationEnergyOverdrawMission 0
scalar OsgEarthNet.uav[53] utilizationEnergyOverdrawMaintenance 0
scalar OsgEarthNet.uav[53] utilizationCountMissions 26
scalar OsgEarthNet.uav[53] utilizationCountManeuversMission 501
scalar OsgEarthNet.uav[53] utilizationCountManeuversMaintenance 52
scalar OsgEarthNet.uav[53] utilizationCountChargeState 26
scalar OsgEarthNet.uav[53] utilizationCountOverdrawnAfterMission 0
scalar OsgEarthNet.uav[53] utilizationCountIdleState 27
scalar OsgEarthNet.uav[53] utilizationFail 0
scalar OsgEarthNet.uav[53] simulationTime 259200
scalar OsgEarthNet.uav[54] utilizationSecMission 21142.798910873
scalar OsgEarthNet.uav[54] utilizationSecMaintenance 14388.846486247
scalar OsgEarthNet.uav[54] utilizationSecCharge 135780
scalar OsgEarthNet.uav[54] utilizationSecIdle 87888.353602879
scalar OsgEarthNet.uav[54] utilizationEnergyMission 103037.97923279
scalar OsgEarthNet.uav[54] utilizationEnergyMaintenance 68438.451645466
scalar OsgEarthNet.uav[54] utilizationEnergyCharge 168824.7421875
scalar OsgEarthNet.uav[54] utilizationEnergyOverdrawMission 0
scalar OsgEarthNet.uav[54] utilizationEnergyOverdrawMaintenance 0
scalar OsgEarthNet.uav[54] utilizationCountMissions 43
scalar OsgEarthNet.uav[54] utilizationCountManeuversMission 707
scalar OsgEarthNet.uav[54] utilizationCountManeuversMaintenance 86
scalar OsgEarthNet.uav[54] utilizationCountChargeState 42
scalar OsgEarthNet.uav[54] utilizationCountOverdrawnAfterMission 0
scalar OsgEarthNet.uav[54] utilizationCountIdleState 43
scalar OsgEarthNet.uav[54] utilizationFail 0
scalar OsgEarthNet.uav[54] simulationTime 259200
scalar OsgEarthNet.uav[55] utilizationSecMission 40671.057733143
scalar OsgEarthNet.uav[55] utilizationSecMaintenance 16566.221293637
scalar OsgEarthNet.uav[55] utilizationSecCharge 196210.71797322
scalar OsgEarthNet.uav[55] utilizationSecIdle 5752.002
scalar OsgEarthNet.uav[55] utilizationEnergyMission 196421.41991043
scalar OsgEarthNet.uav[55] utilizationEnergyMaintenance 75710.276660919
scalar OsgEarthNet.uav[55] utilizationEnergyCharge 266650.48120117
scalar OsgEarthNet.uav[55] utilizationEnergyOverdrawMission 0
scalar OsgEarthNet.uav[55] utilizationEnergyOverdrawMaintenance 0
scalar OsgEarthNet.uav[55] utilizationCountMissions 59
scalar OsgEarthNet.uav[55] utilizationCountManeuversMission 1171
scalar OsgEarthNet.uav[55] utilizationCountManeuversMaintenance 118
scalar OsgEarthNet.uav[55] utilizationCountChargeState 59
scalar OsgEarthNet.uav[55] utilizationCountOverdrawnAfterMission 0
scalar OsgEarthNet.uav[55] utilizationCountIdleState 26
scalar OsgEarthNet.uav[55] utilizationFail 0
scalar OsgEarthNet.uav[55] simulationTime 259200
scalar OsgEarthNet.uav[56] utilizationSecMission 15107.501830963
scalar OsgEarthNet.uav[56] utilizationSecMaintenance 8484.0148319761
scalar OsgEarthNet.uav[56] utilizationSecCharge 84856.47333706
scalar OsgEarthNet.uav[56] utilizationSecIdle 150752.009
scalar OsgEarthNet.uav[56] utilizationEnergyMission 72842.886138916
scalar OsgEarthNet.uav[56] utilizationEnergyMaintenance 40884.235851288
scalar OsgEarthNet.uav[56] utilizationEnergyCharge 109698.01568604
scalar OsgEarthNet.uav[56] utilizationEnergyOverdrawMission 0
scalar OsgEarthNet.uav[56] utilizationEnergyOverdrawMaintenance 0
scalar OsgEarthNet.uav[56] utilizationCountMissions 25
scalar OsgEarthNet.uav[56] utilizationCountManeuversMission 443
scalar OsgEarthNet.uav[56] utilizationCountManeuversMaintenance 50
scalar OsgEarthNet.uav[56] utilizationCountChargeState 25
scalar OsgEarthNet.uav[56] utilizationCountOverdrawnAfterMission 0
scalar OsgEarthNet.uav[56] utilizationCountIdleState 25
scalar OsgEarthNet.uav[56] utilizationFail 0
scalar OsgEarthNet.uav[56] simulationTime 259200
scalar OsgEarthNet.uav[57] utilizationSecMission 19319.928465296
scalar OsgEarthNet.uav[57] utilizationSecMaintenance 13328.060534704
scalar OsgEarthNet.uav[57] utilizationSecCharge 126430
scalar OsgEarthNet.uav[57] utilizationSecIdle 100122.01
scalar OsgEarthNet.uav[57] utilizationEnergyMission 94381.085857563
scalar OsgEarthNet.uav[57] utilizationEnergyMaintenance 63123.926239014
scalar OsgEarthNet.uav[57] utilizationEnergyCharge 155836.85644531
scalar OsgEarthNet.uav[57] utilizationEnergyOverdrawMission 0
scalar OsgEarthNet.uav[57] utilizationEnergyOverdrawMaintenance 0
scalar OsgEarthNet.uav[57] utilizationCountMissions 40
scalar OsgEarthNet.uav[57] utilizationCountManeuversMission 609
scalar OsgEarthNet.uav[57] utilizationCountManeuversMaintenance 81
scalar OsgEarthNet.uav[57] utilizationCountChargeState 40
scalar OsgEarthNet.uav[57] utilizationCountOverdrawnAfterMission 0
scalar OsgEarthNet.uav[57] utilizationCountIdleState 41
scalar OsgEarthNet.uav[57] utilizationFail 0
scalar OsgEarthNet.uav[57] simulationTime 259200
scalar OsgEarthNet.uav[58] utilizationSecMission 39557.430235015
scalar OsgEarthNet.uav[58] utilizationSecMaintenance 16766.03192827
scalar OsgEarthNet.uav[58] utilizationSecCharge 195891.08118331
scalar OsgEarthNet.uav[58] utilizationSecIdle 6985.4556534032
scalar OsgEarthNet.uav[58] utilizationEnergyMission 190428.38121414
scalar OsgEarthNet.uav[58] utilizationEnergyMaintenance 77583.12443924
scalar OsgEarthNet.uav[58] utilizationEnergyCharge 267377.44140625
scalar OsgEarthNet.uav[58] utilizationEnergyOverdrawMission 0
scalar OsgEarthNet.uav[58] utilizationEnergyOverdrawMaintenance 0
scalar OsgEarthNet.uav[58] utilizationCountMissions 58
scalar OsgEarthNet.uav[58] utilizationCountManeuversMission 1114
scalar OsgEarthNet.uav[58] utilizationCountManeuversMaintenance 116
scalar OsgEarthNet.uav[58] utilizationCountChargeState 58
scalar OsgEarthNet.uav[58] utilizationCountOverdrawnAfterMission 0
scalar OsgEarthNet.uav[58] utilizationCountIdleState 26
scalar OsgEarthNet.uav[58] utilizationFail 0
scalar OsgEarthNet.uav[58] simulationTime 259200
scalar OsgEarthNet.uav[59] utilizationSecMission 13123.125762901
scalar OsgEarthNet.uav[59] utilizationSecMaintenance 9914.264161093
scalar OsgEarthNet.uav[59] utilizationSecCharge 87610
scalar OsgEarthNet.uav[59] utilizationSecIdle 148552.60907601
scalar OsgEarthNet.uav[59] utilizationEnergyMission 66870.98348999
scalar OsgEarthNet.uav[59] utilizationEnergyMaintenance 47155.356456756
scalar OsgEarthNet.uav[59] utilizationEnergyCharge 112897.56738281
scalar OsgEarthNet.uav[59] utilizationEnergyOverdrawMission 0
scalar OsgEarthNet.uav[59] utilizationEnergyOverdrawMaintenance 0
scalar OsgEarthNet.uav[59] utilizationCountMissions 25
scalar OsgEarthNet.uav[59] utilizationCountManeuversMission 526
scalar OsgEarthNet.uav[59] utilizationCountManeuversMaintenance 50
scalar OsgEarthNet.uav[59] utilizationCountChargeState 25
scalar OsgEarthNet.uav[59] utilizationCountOverdrawnAfterMission 0
scalar OsgEarthNet.uav[59] utilizationCountIdleState 26
scalar OsgEarthNet.uav[59] utilizationFail 0
scalar OsgEarthNet.uav[59] simulationTime 259200
scalar OsgEarthNet.uav[60] utilizationSecMission 17127.501830963
scalar OsgEarthNet.uav[60] utilizationSecMaintenance 10021.67109401
scalar OsgEarthNet.uav[60] utilizationSecCharge 101130
scalar OsgEarthNet.uav[60] utilizationSecIdle 130920.82607503
scalar OsgEarthNet.uav[60] utilizationEnergyMission 83581.349514008
scalar OsgEarthNet.uav[60] utilizationEnergyMaintenance 47761.429237366
scalar OsgEarthNet.uav[60] utilizationEnergyCharge 129915.48681641
scalar OsgEarthNet.uav[60] utilizationEnergyOverdrawMission 0
scalar OsgEarthNet.uav[60] utilizationEnergyOverdrawMaintenance 0
scalar OsgEarthNet.uav[60] utilizationCountMissions 29
scalar OsgEarthNet.uav[60] utilizationCountManeuversMission 544
scalar OsgEarthNet.uav[60] utilizationCountManeuversMaintenance 58
scalar OsgEarthNet.uav[60] utilizationCountChargeState 29
scalar OsgEarthNet.uav[60] utilizationCountOverdrawnAfterMission 0
scalar OsgEarthNet.uav[60] utilizationCountIdleState 30
scalar OsgEarthNet.uav[60] utilizationFail 0
scalar OsgEarthNet.uav[60] simulationTime 259200
scalar OsgEarthNet.uav[61] utilizationSecMission 20015.29230726
scalar OsgEarthNet.uav[61] utilizationSecMaintenance 13195.612692917
scalar OsgEarthNet.uav[61] utilizationSecCharge 127217.08099982
scalar OsgEarthNet.uav[61] utilizationSecIdle 98772.013
scalar OsgEarthNet.uav[61] utilizationEnergyMission 96784.733669281
scalar OsgEarthNet.uav[61] utilizationEnergyMaintenance 63114.47769165
scalar OsgEarthNet.uav[61] utilizationEnergyCharge 158775.06738281
scalar OsgEarthNet.uav[61] utilizationEnergyOverdrawMission 0
scalar OsgEarthNet.uav[61] utilizationEnergyOverdrawMaintenance 0
scalar OsgEarthNet.uav[61] utilizationCountMissions 40
scalar OsgEarthNet.uav[61] utilizationCountManeuversMission 614
scalar OsgEarthNet.uav[61] utilizationCountManeuversMaintenance 80
scalar OsgEarthNet.uav[61] utilizationCountChargeState 40
scalar OsgEarthNet.uav[61] utilizationCountOverdrawnAfterMission 0
scalar OsgEarthNet.uav[61] utilizationCountIdleState 40
scalar OsgEarthNet.uav[61] utilizationFail 0
scalar OsgEarthNet.uav[61] simulationTime 259200
scalar OsgEarthNet.uav[62] utilizationSecMission 40842.79026386
scalar OsgEarthNet.uav[62] utilizationSecMaintenance 15936.575600738
scalar OsgEarthNet.uav[62] utilizationSecCharge 194738.6301354
scalar OsgEarthNet.uav[62] utilizationSecIdle 7682.003
scalar OsgEarthNet.uav[62] utilizationEnergyMission 195259.15037537
scalar OsgEarthNet.uav[62] utilizationEnergyMaintenance 73525.115089417
scalar OsgEarthNet.uav[62] utilizationEnergyCharge 265080.50817871
scalar OsgEarthNet.uav[62] utilizationEnergyOverdrawMission 0
scalar OsgEarthNet.uav[62] utilizationEnergyOverdrawMaintenance 0
scalar OsgEarthNet.uav[62] utilizationCountMissions 58
scalar OsgEarthNet.uav[62] utilizationCountManeuversMission 1171
scalar OsgEarthNet.uav[62] utilizationCountManeuversMaintenance 116
scalar OsgEarthNet.uav[62] utilizationCountChargeState 58
scalar OsgEarthNet.uav[62] utilizationCountOverdrawnAfterMission 0
scalar OsgEarthNet.uav[62] utilizationCountIdleState 29
scalar OsgEarthNet.uav[62] utilizationFail 0
scalar OsgEarthNet.uav[62] simulationTime 259200
scalar OsgEarthNet.uav[63] utilizationSecMission 15066.251525803
scalar OsgEarthNet.uav[63] utilizationSecMaintenance 9449.9375922524
scalar OsgEarthNet.uav[63] utilizationSecCharge 91390
scalar OsgEarthNet.uav[63] utilizationSecIdle 143293.80988194
scalar OsgEarthNet.uav[63] utilizationEnergyMission 72381.918491364
scalar OsgEarthNet.uav[63] utilizationEnergyMaintenance 45110.221012115
scalar OsgEarthNet.uav[63] utilizationEnergyCharge 117825.50683594
scalar OsgEarthNet.uav[63] utilizationEnergyOverdrawMission 0
scalar OsgEarthNet.uav[63] utilizationEnergyOverdrawMaintenance 0
scalar OsgEarthNet.uav[63] utilizationCountMissions 26
scalar OsgEarthNet.uav[63] utilizationCountManeuversMission 493
scalar OsgEarthNet.uav[63] utilizationCountManeuversMaintenance 52
scalar OsgEarthNet.uav[63] utilizationCountChargeState 26
scalar OsgEarthNet.uav[63] utilizationCountOverdrawnAfterMission 0
scalar OsgEarthNet.uav[63] utilizationCountIdleState 27
scalar OsgEarthNet.uav[63] utilizationFail 0
scalar OsgEarthNet.uav[63] simulationTime 259200
scalar OsgEarthNet.uav[64] utilizationSecMission 20055.872035751
scalar OsgEarthNet.uav[64] utilizationSecMaintenance 14461.097884104
scalar OsgEarthNet.uav[64] utilizationSecCharge 135809.36090216
scalar OsgEarthNet.uav[64] utilizationSecIdle 88873.668177988
scalar OsgEarthNet.uav[64] utilizationEnergyMission 99126.923381805
scalar OsgEarthNet.uav[64] utilizationEnergyMaintenance 68552.726200104
scalar OsgEarthNet.uav[64] utilizationEnergyCharge 168955.59887695
scalar OsgEarthNet.uav[64] utilizationEnergyOverdrawMission 0
scalar OsgEarthNet.uav[64] utilizationEnergyOverdrawMaintenance 0
scalar OsgEarthNet.uav[64] utilizationCountMissions 42
scalar OsgEarthNet.uav[64] utilizationCountManeuversMission 721
scalar OsgEarthNet.uav[64] utilizationCountManeuversMaintenance 84
scalar OsgEarthNet.uav[64] utilizationCountChargeState 42
scalar OsgEarthNet.uav[64] utilizationCountOverdrawnAfterMission 0
scalar OsgEarthNet.uav[64] utilizationCountIdleState 42
scalar OsgEarthNet.uav[64] utilizationFail 0
scalar OsgEarthNet.uav[64] simulationTime 259200
scalar OsgEarthNet.uav[65] utilizationSecMission 40430.467303291
scalar OsgEarthNet.uav[65] utilizationSecMaintenance 16799.965225776
scalar OsgEarthNet.uav[65] utilizationSecCharge 197837.56647093
[...]
scalar OsgEarthNet.uav[180] utilizationSecIdle 259199.999
scalar OsgEarthNet.uav[180] utilizationEnergyMission 0
scalar OsgEarthNet.uav[180] utilizationEnergyMaintenance 0
scalar OsgEarthNet.uav[180] utilizationEnergyCharge 0
scalar OsgEarthNet.uav[180] utilizationEnergyOverdrawMission 0
scalar OsgEarthNet.uav[180] utilizationEnergyOverdrawMaintenance 0
scalar OsgEarthNet.uav[180] utilizationCountMissions 0
scalar OsgEarthNet.uav[180] utilizationCountManeuversMission 0
scalar OsgEarthNet.uav[180] utilizationCountManeuversMaintenance 0
scalar OsgEarthNet.uav[180] utilizationCountChargeState 0
scalar OsgEarthNet.uav[180] utilizationCountOverdrawnAfterMission 0
scalar OsgEarthNet.uav[180] utilizationCountIdleState 1
scalar OsgEarthNet.uav[180] utilizationFail 0
scalar OsgEarthNet.uav[180] simulationTime 259200
scalar OsgEarthNet.uav[181] utilizationSecMission 0
scalar OsgEarthNet.uav[181] utilizationSecMaintenance 0
scalar OsgEarthNet.uav[181] utilizationSecCharge 0
scalar OsgEarthNet.uav[181] utilizationSecIdle 259199.999
scalar OsgEarthNet.uav[181] utilizationEnergyMission 0
scalar OsgEarthNet.uav[181] utilizationEnergyMaintenance 0
scalar OsgEarthNet.uav[181] utilizationEnergyCharge 0
scalar OsgEarthNet.uav[181] utilizationEnergyOverdrawMission 0
scalar OsgEarthNet.uav[181] utilizationEnergyOverdrawMaintenance 0
scalar OsgEarthNet.uav[181] utilizationCountMissions 0
scalar OsgEarthNet.uav[181] utilizationCountManeuversMission 0
scalar OsgEarthNet.uav[181] utilizationCountManeuversMaintenance 0
scalar OsgEarthNet.uav[181] utilizationCountChargeState 0
scalar OsgEarthNet.uav[181] utilizationCountOverdrawnAfterMission 0
scalar OsgEarthNet.uav[181] utilizationCountIdleState 1
scalar OsgEarthNet.uav[181] utilizationFail 0
scalar OsgEarthNet.uav[181] simulationTime 259200
scalar OsgEarthNet.uav[182] utilizationSecMission 0
scalar OsgEarthNet.uav[182] utilizationSecMaintenance 0
scalar OsgEarthNet.uav[182] utilizationSecCharge 0
scalar OsgEarthNet.uav[182] utilizationSecIdle 259199.999
scalar OsgEarthNet.uav[182] utilizationEnergyMission 0
scalar OsgEarthNet.uav[182] utilizationEnergyMaintenance 0
scalar OsgEarthNet.uav[182] utilizationEnergyCharge 0
scalar OsgEarthNet.uav[182] utilizationEnergyOverdrawMission 0
scalar OsgEarthNet.uav[182] utilizationEnergyOverdrawMaintenance 0
scalar OsgEarthNet.uav[182] utilizationCountMissions 0
scalar OsgEarthNet.uav[182] utilizationCountManeuversMission 0
scalar OsgEarthNet.uav[182] utilizationCountManeuversMaintenance 0
scalar OsgEarthNet.uav[182] utilizationCountChargeState 0
scalar OsgEarthNet.uav[182] utilizationCountOverdrawnAfterMission 0
scalar OsgEarthNet.uav[182] utilizationCountIdleState 1
scalar OsgEarthNet.uav[182] utilizationFail 0
scalar OsgEarthNet.uav[182] simulationTime 259200
scalar OsgEarthNet.uav[183] utilizationSecMission 0
scalar OsgEarthNet.uav[183] utilizationSecMaintenance 0
scalar OsgEarthNet.uav[183] utilizationSecCharge 0
scalar OsgEarthNet.uav[183] utilizationSecIdle 259199.999
scalar OsgEarthNet.uav[183] utilizationEnergyMission 0
scalar OsgEarthNet.uav[183] utilizationEnergyMaintenance 0
scalar OsgEarthNet.uav[183] utilizationEnergyCharge 0
scalar OsgEarthNet.uav[183] utilizationEnergyOverdrawMission 0
scalar OsgEarthNet.uav[183] utilizationEnergyOverdrawMaintenance 0
scalar OsgEarthNet.uav[183] utilizationCountMissions 0
scalar OsgEarthNet.uav[183] utilizationCountManeuversMission 0
scalar OsgEarthNet.uav[183] utilizationCountManeuversMaintenance 0
scalar OsgEarthNet.uav[183] utilizationCountChargeState 0
scalar OsgEarthNet.uav[183] utilizationCountOverdrawnAfterMission 0
scalar OsgEarthNet.uav[183] utilizationCountIdleState 1
scalar OsgEarthNet.uav[183] utilizationFail 0
scalar OsgEarthNet.uav[183] simulationTime 259200
scalar OsgEarthNet.uav[184] utilizationSecMission 0
scalar OsgEarthNet.uav[184] utilizationSecMaintenance 0
scalar OsgEarthNet.uav[184] utilizationSecCharge 0
scalar OsgEarthNet.uav[184] utilizationSecIdle 259199.999
scalar OsgEarthNet.uav[184] utilizationEnergyMission 0
scalar OsgEarthNet.uav[184] utilizationEnergyMaintenance 0
scalar OsgEarthNet.uav[184] utilizationEnergyCharge 0
scalar OsgEarthNet.uav[184] utilizationEnergyOverdrawMission 0
scalar OsgEarthNet.uav[184] utilizationEnergyOverdrawMaintenance 0
scalar OsgEarthNet.uav[184] utilizationCountMissions 0
scalar OsgEarthNet.uav[184] utilizationCountManeuversMission 0
scalar OsgEarthNet.uav[184] utilizationCountManeuversMaintenance 0
scalar OsgEarthNet.uav[184] utilizationCountChargeState 0
scalar OsgEarthNet.uav[184] utilizationCountOverdrawnAfterMission 0
scalar OsgEarthNet.uav[184] utilizationCountIdleState 1
scalar OsgEarthNet.uav[184] utilizationFail 0
scalar OsgEarthNet.uav[184] simulationTime 259200
scalar OsgEarthNet.uav[185] utilizationSecMission 0
scalar OsgEarthNet.uav[185] utilizationSecMaintenance 0
scalar OsgEarthNet.uav[185] utilizationSecCharge 0
scalar OsgEarthNet.uav[185] utilizationSecIdle 259199.999
scalar OsgEarthNet.uav[185] utilizationEnergyMission 0
scalar OsgEarthNet.uav[185] utilizationEnergyMaintenance 0
scalar OsgEarthNet.uav[185] utilizationEnergyCharge 0
scalar OsgEarthNet.uav[185] utilizationEnergyOverdrawMission 0
scalar OsgEarthNet.uav[185] utilizationEnergyOverdrawMaintenance 0
scalar OsgEarthNet.uav[185] utilizationCountMissions 0
scalar OsgEarthNet.uav[185] utilizationCountManeuversMission 0
scalar OsgEarthNet.uav[185] utilizationCountManeuversMaintenance 0
scalar OsgEarthNet.uav[185] utilizationCountChargeState 0
scalar OsgEarthNet.uav[185] utilizationCountOverdrawnAfterMission 0
scalar OsgEarthNet.uav[185] utilizationCountIdleState 1
scalar OsgEarthNet.uav[185] utilizationFail 0
scalar OsgEarthNet.uav[185] simulationTime 259200
scalar OsgEarthNet.uav[186] utilizationSecMission 0
scalar OsgEarthNet.uav[186] utilizationSecMaintenance 0
scalar OsgEarthNet.uav[186] utilizationSecCharge 0
scalar OsgEarthNet.uav[186] utilizationSecIdle 259199.999
scalar OsgEarthNet.uav[186] utilizationEnergyMission 0
scalar OsgEarthNet.uav[186] utilizationEnergyMaintenance 0
scalar OsgEarthNet.uav[186] utilizationEnergyCharge 0
scalar OsgEarthNet.uav[186] utilizationEnergyOverdrawMission 0
scalar OsgEarthNet.uav[186] utilizationEnergyOverdrawMaintenance 0
scalar OsgEarthNet.uav[186] utilizationCountMissions 0
scalar OsgEarthNet.uav[186] utilizationCountManeuversMission 0
scalar OsgEarthNet.uav[186] utilizationCountManeuversMaintenance 0
scalar OsgEarthNet.uav[186] utilizationCountChargeState 0
scalar OsgEarthNet.uav[186] utilizationCountOverdrawnAfterMission 0
scalar OsgEarthNet.uav[186] utilizationCountIdleState 1
scalar OsgEarthNet.uav[186] utilizationFail 0
scalar OsgEarthNet.uav[186] simulationTime 259200
scalar OsgEarthNet.uav[187] utilizationSecMission 0
scalar OsgEarthNet.uav[187] utilizationSecMaintenance 0
scalar OsgEarthNet.uav[187] utilizationSecCharge 0
scalar OsgEarthNet.uav[187] utilizationSecIdle 259199.999
scalar OsgEarthNet.uav[187] utilizationEnergyMission 0
scalar OsgEarthNet.uav[187] utilizationEnergyMaintenance 0
scalar OsgEarthNet.uav[187] utilizationEnergyCharge 0
scalar OsgEarthNet.uav[187] utilizationEnergyOverdrawMission 0
scalar OsgEarthNet.uav[187] utilizationEnergyOverdrawMaintenance 0
scalar OsgEarthNet.uav[187] utilizationCountMissions 0
scalar OsgEarthNet.uav[187] utilizationCountManeuversMission 0
scalar OsgEarthNet.uav[187] utilizationCountManeuversMaintenance 0
scalar OsgEarthNet.uav[187] utilizationCountChargeState 0
scalar OsgEarthNet.uav[187] utilizationCountOverdrawnAfterMission 0
scalar OsgEarthNet.uav[187] utilizationCountIdleState 1
scalar OsgEarthNet.uav[187] utilizationFail 0
scalar OsgEarthNet.uav[187] simulationTime 259200
scalar OsgEarthNet.uav[188] utilizationSecMission 0
scalar OsgEarthNet.uav[188] utilizationSecMaintenance 0
scalar OsgEarthNet.uav[188] utilizationSecCharge 0
scalar OsgEarthNet.uav[188] utilizationSecIdle 259199.999
scalar OsgEarthNet.uav[188] utilizationEnergyMission 0
scalar OsgEarthNet.uav[188] utilizationEnergyMaintenance 0
scalar OsgEarthNet.uav[188] utilizationEnergyCharge 0
scalar OsgEarthNet.uav[188] utilizationEnergyOverdrawMission 0
scalar OsgEarthNet.uav[188] utilizationEnergyOverdrawMaintenance 0
scalar OsgEarthNet.uav[188] utilizationCountMissions 0
scalar OsgEarthNet.uav[188] utilizationCountManeuversMission 0
scalar OsgEarthNet.uav[188] utilizationCountManeuversMaintenance 0
scalar OsgEarthNet.uav[188] utilizationCountChargeState 0
scalar OsgEarthNet.uav[188] utilizationCountOverdrawnAfterMission 0
scalar OsgEarthNet.uav[188] utilizationCountIdleState 1
scalar OsgEarthNet.uav[188] utilizationFail 0
scalar OsgEarthNet.uav[188] simulationTime 259200
scalar OsgEarthNet.uav[189] utilizationSecMission 0
scalar OsgEarthNet.uav[189] utilizationSecMaintenance 0
scalar OsgEarthNet.uav[189] utilizationSecCharge 0
scalar OsgEarthNet.uav[189] utilizationSecIdle 259199.999
scalar OsgEarthNet.uav[189] utilizationEnergyMission 0
scalar OsgEarthNet.uav[189] utilizationEnergyMaintenance 0
scalar OsgEarthNet.uav[189] utilizationEnergyCharge 0
scalar OsgEarthNet.uav[189] utilizationEnergyOverdrawMission 0
scalar OsgEarthNet.uav[189] utilizationEnergyOverdrawMaintenance 0
scalar OsgEarthNet.uav[189] utilizationCountMissions 0
scalar OsgEarthNet.uav[189] utilizationCountManeuversMission 0
scalar OsgEarthNet.uav[189] utilizationCountManeuversMaintenance 0
scalar OsgEarthNet.uav[189] utilizationCountChargeState 0
scalar OsgEarthNet.uav[189] utilizationCountOverdrawnAfterMission 0
scalar OsgEarthNet.uav[189] utilizationCountIdleState 1
scalar OsgEarthNet.uav[189] utilizationFail 0
scalar OsgEarthNet.uav[189] simulationTime 259200
scalar OsgEarthNet.uav[190] utilizationSecMission 0
scalar OsgEarthNet.uav[190] utilizationSecMaintenance 0
scalar OsgEarthNet.uav[190] utilizationSecCharge 0
scalar OsgEarthNet.uav[190] utilizationSecIdle 259199.999
scalar OsgEarthNet.uav[190] utilizationEnergyMission 0
scalar OsgEarthNet.uav[190] utilizationEnergyMaintenance 0
scalar OsgEarthNet.uav[190] utilizationEnergyCharge 0
scalar OsgEarthNet.uav[190] utilizationEnergyOverdrawMission 0
scalar OsgEarthNet.uav[190] utilizationEnergyOverdrawMaintenance 0
scalar OsgEarthNet.uav[190] utilizationCountMissions 0
scalar OsgEarthNet.uav[190] utilizationCountManeuversMission 0
scalar OsgEarthNet.uav[190] utilizationCountManeuversMaintenance 0
scalar OsgEarthNet.uav[190] utilizationCountChargeState 0
scalar OsgEarthNet.uav[190] utilizationCountOverdrawnAfterMission 0
scalar OsgEarthNet.uav[190] utilizationCountIdleState 1
scalar OsgEarthNet.uav[190] utilizationFail 0
scalar OsgEarthNet.uav[190] simulationTime 259200
scalar OsgEarthNet.uav[191] utilizationSecMission 0
scalar OsgEarthNet.uav[191] utilizationSecMaintenance 0
scalar OsgEarthNet.uav[191] utilizationSecCharge 0
scalar OsgEarthNet.uav[191] utilizationSecIdle 259199.999
scalar OsgEarthNet.uav[191] utilizationEnergyMission 0
scalar OsgEarthNet.uav[191] utilizationEnergyMaintenance 0
scalar OsgEarthNet.uav[191] utilizationEnergyCharge 0
scalar OsgEarthNet.uav[191] utilizationEnergyOverdrawMission 0
scalar OsgEarthNet.uav[191] utilizationEnergyOverdrawMaintenance 0
scalar OsgEarthNet.uav[191] utilizationCountMissions 0
scalar OsgEarthNet.uav[191] utilizationCountManeuversMission 0
scalar OsgEarthNet.uav[191] utilizationCountManeuversMaintenance 0
scalar OsgEarthNet.uav[191] utilizationCountChargeState 0
scalar OsgEarthNet.uav[191] utilizationCountOverdrawnAfterMission 0
scalar OsgEarthNet.uav[191] utilizationCountIdleState 1
scalar OsgEarthNet.uav[191] utilizationFail 0
scalar OsgEarthNet.uav[191] simulationTime 259200
scalar OsgEarthNet.uav[192] utilizationSecMission 0
scalar OsgEarthNet.uav[192] utilizationSecMaintenance 0
scalar OsgEarthNet.uav[192] utilizationSecCharge 0
scalar OsgEarthNet.uav[192] utilizationSecIdle 259199.999
scalar OsgEarthNet.uav[192] utilizationEnergyMission 0
scalar OsgEarthNet.uav[192] utilizationEnergyMaintenance 0
scalar OsgEarthNet.uav[192] utilizationEnergyCharge 0
scalar OsgEarthNet.uav[192] utilizationEnergyOverdrawMission 0
scalar OsgEarthNet.uav[192] utilizationEnergyOverdrawMaintenance 0
scalar OsgEarthNet.uav[192] utilizationCountMissions 0
scalar OsgEarthNet.uav[192] utilizationCountManeuversMission 0
scalar OsgEarthNet.uav[192] utilizationCountManeuversMaintenance 0
scalar OsgEarthNet.uav[192] utilizationCountChargeState 0
scalar OsgEarthNet.uav[192] utilizationCountOverdrawnAfterMission 0
scalar OsgEarthNet.uav[192] utilizationCountIdleState 1
scalar OsgEarthNet.uav[192] utilizationFail 0
scalar OsgEarthNet.uav[192] simulationTime 259200
scalar OsgEarthNet.uav[193] utilizationSecMission 0
scalar OsgEarthNet.uav[193] utilizationSecMaintenance 0
scalar OsgEarthNet.uav[193] utilizationSecCharge 0
scalar OsgEarthNet.uav[193] utilizationSecIdle 259199.999
scalar OsgEarthNet.uav[193] utilizationEnergyMission 0
scalar OsgEarthNet.uav[193] utilizationEnergyMaintenance 0
scalar OsgEarthNet.uav[193] utilizationEnergyCharge 0
scalar OsgEarthNet.uav[193] utilizationEnergyOverdrawMission 0
scalar OsgEarthNet.uav[193] utilizationEnergyOverdrawMaintenance 0
scalar OsgEarthNet.uav[193] utilizationCountMissions 0
scalar OsgEarthNet.uav[193] utilizationCountManeuversMission 0
scalar OsgEarthNet.uav[193] utilizationCountManeuversMaintenance 0
scalar OsgEarthNet.uav[193] utilizationCountChargeState 0
scalar OsgEarthNet.uav[193] utilizationCountOverdrawnAfterMission 0
scalar OsgEarthNet.uav[193] utilizationCountIdleState 1
scalar OsgEarthNet.uav[193] utilizationFail 0
scalar OsgEarthNet.uav[193] simulationTime 259200
scalar OsgEarthNet.uav[194] utilizationSecMission 0
scalar OsgEarthNet.uav[194] utilizationSecMaintenance 0
scalar OsgEarthNet.uav[194] utilizationSecCharge 0
scalar OsgEarthNet.uav[194] utilizationSecIdle 259199.999
scalar OsgEarthNet.uav[194] utilizationEnergyMission 0
scalar OsgEarthNet.uav[194] utilizationEnergyMaintenance 0
scalar OsgEarthNet.uav[194] utilizationEnergyCharge 0
scalar OsgEarthNet.uav[194] utilizationEnergyOverdrawMission 0
scalar OsgEarthNet.uav[194] utilizationEnergyOverdrawMaintenance 0
scalar OsgEarthNet.uav[194] utilizationCountMissions 0
scalar OsgEarthNet.uav[194] utilizationCountManeuversMission 0
scalar OsgEarthNet.uav[194] utilizationCountManeuversMaintenance 0
scalar OsgEarthNet.uav[194] utilizationCountChargeState 0
scalar OsgEarthNet.uav[194] utilizationCountOverdrawnAfterMission 0
scalar OsgEarthNet.uav[194] utilizationCountIdleState 1
scalar OsgEarthNet.uav[194] utilizationFail 0
scalar OsgEarthNet.uav[194] simulationTime 259200
scalar OsgEarthNet.uav[195] utilizationSecMission 0
scalar OsgEarthNet.uav[195] utilizationSecMaintenance 0
scalar OsgEarthNet.uav[195] utilizationSecCharge 0
scalar OsgEarthNet.uav[195] utilizationSecIdle 259199.999
scalar OsgEarthNet.uav[195] utilizationEnergyMission 0
scalar OsgEarthNet.uav[195] utilizationEnergyMaintenance 0
scalar OsgEarthNet.uav[195] utilizationEnergyCharge 0
scalar OsgEarthNet.uav[195] utilizationEnergyOverdrawMission 0
scalar OsgEarthNet.uav[195] utilizationEnergyOverdrawMaintenance 0
scalar OsgEarthNet.uav[195] utilizationCountMissions 0
scalar OsgEarthNet.uav[195] utilizationCountManeuversMission 0
scalar OsgEarthNet.uav[195] utilizationCountManeuversMaintenance 0
scalar OsgEarthNet.uav[195] utilizationCountChargeState 0
scalar OsgEarthNet.uav[195] utilizationCountOverdrawnAfterMission 0
scalar OsgEarthNet.uav[195] utilizationCountIdleState 1
scalar OsgEarthNet.uav[195] utilizationFail 0
scalar OsgEarthNet.uav[195] simulationTime 259200
scalar OsgEarthNet.uav[196] utilizationSecMission 0
scalar OsgEarthNet.uav[196] utilizationSecMaintenance 0
scalar OsgEarthNet.uav[196] utilizationSecCharge 0
scalar OsgEarthNet.uav[196] utilizationSecIdle 259199.999
scalar OsgEarthNet.uav[196] utilizationEnergyMission 0
scalar OsgEarthNet.uav[196] utilizationEnergyMaintenance 0
scalar OsgEarthNet.uav[196] utilizationEnergyCharge 0
scalar OsgEarthNet.uav[196] utilizationEnergyOverdrawMission 0
scalar OsgEarthNet.uav[196] utilizationEnergyOverdrawMaintenance 0
scalar OsgEarthNet.uav[196] utilizationCountMissions 0
scalar OsgEarthNet.uav[196] utilizationCountManeuversMission 0
scalar OsgEarthNet.uav[196] utilizationCountManeuversMaintenance 0
scalar OsgEarthNet.uav[196] utilizationCountChargeState 0
scalar OsgEarthNet.uav[196] utilizationCountOverdrawnAfterMission 0
scalar OsgEarthNet.uav[196] utilizationCountIdleState 1
scalar OsgEarthNet.uav[196] utilizationFail 0
scalar OsgEarthNet.uav[196] simulationTime 259200
scalar OsgEarthNet.uav[197] utilizationSecMission 0
scalar OsgEarthNet.uav[197] utilizationSecMaintenance 0
scalar OsgEarthNet.uav[197] utilizationSecCharge 0
scalar OsgEarthNet.uav[197] utilizationSecIdle 259199.999
scalar OsgEarthNet.uav[197] utilizationEnergyMission 0
scalar OsgEarthNet.uav[197] utilizationEnergyMaintenance 0
scalar OsgEarthNet.uav[197] utilizationEnergyCharge 0
scalar OsgEarthNet.uav[197] utilizationEnergyOverdrawMission 0
scalar OsgEarthNet.uav[197] utilizationEnergyOverdrawMaintenance 0
scalar OsgEarthNet.uav[197] utilizationCountMissions 0
scalar OsgEarthNet.uav[197] utilizationCountManeuversMission 0
scalar OsgEarthNet.uav[197] utilizationCountManeuversMaintenance 0
scalar OsgEarthNet.uav[197] utilizationCountChargeState 0
scalar OsgEarthNet.uav[197] utilizationCountOverdrawnAfterMission 0
scalar OsgEarthNet.uav[197] utilizationCountIdleState 1
scalar OsgEarthNet.uav[197] utilizationFail 0
scalar OsgEarthNet.uav[197] simulationTime 259200
scalar OsgEarthNet.uav[198] utilizationSecMission 0
scalar OsgEarthNet.uav[198] utilizationSecMaintenance 0
scalar OsgEarthNet.uav[198] utilizationSecCharge 0
scalar OsgEarthNet.uav[198] utilizationSecIdle 259199.999
scalar OsgEarthNet.uav[198] utilizationEnergyMission 0
scalar OsgEarthNet.uav[198] utilizationEnergyMaintenance 0
scalar OsgEarthNet.uav[198] utilizationEnergyCharge 0
scalar OsgEarthNet.uav[198] utilizationEnergyOverdrawMission 0
scalar OsgEarthNet.uav[198] utilizationEnergyOverdrawMaintenance 0
scalar OsgEarthNet.uav[198] utilizationCountMissions 0
scalar OsgEarthNet.uav[198] utilizationCountManeuversMission 0
scalar OsgEarthNet.uav[198] utilizationCountManeuversMaintenance 0
scalar OsgEarthNet.uav[198] utilizationCountChargeState 0
scalar OsgEarthNet.uav[198] utilizationCountOverdrawnAfterMission 0
scalar OsgEarthNet.uav[198] utilizationCountIdleState 1
scalar OsgEarthNet.uav[198] utilizationFail 0
scalar OsgEarthNet.uav[198] simulationTime 259200
scalar OsgEarthNet.uav[199] utilizationSecMission 0
scalar OsgEarthNet.uav[199] utilizationSecMaintenance 0
scalar OsgEarthNet.uav[199] utilizationSecCharge 0
scalar OsgEarthNet.uav[199] utilizationSecIdle 259199.999
scalar OsgEarthNet.uav[199] utilizationEnergyMission 0
scalar OsgEarthNet.uav[199] utilizationEnergyMaintenance 0
scalar OsgEarthNet.uav[199] utilizationEnergyCharge 0
scalar OsgEarthNet.uav[199] utilizationEnergyOverdrawMission 0
scalar OsgEarthNet.uav[199] utilizationEnergyOverdrawMaintenance 0
scalar OsgEarthNet.uav[199] utilizationCountMissions 0
scalar OsgEarthNet.uav[199] utilizationCountManeuversMission 0
scalar OsgEarthNet.uav[199] utilizationCountManeuversMaintenance 0
scalar OsgEarthNet.uav[199] utilizationCountChargeState 0
scalar OsgEarthNet.uav[199] utilizationCountOverdrawnAfterMission 0
scalar OsgEarthNet.uav[199] utilizationCountIdleState 1
scalar OsgEarthNet.uav[199] utilizationFail 0
scalar OsgEarthNet.uav[199] simulationTime 259200
scalar OsgEarthNet.cs[0] usedPower 3981612.8426728
scalar OsgEarthNet.cs[0] chargedPower 3981612.8426728
scalar OsgEarthNet.cs[0] chargedMobileNodes 875
scalar OsgEarthNet.cs[0] reservations 888
scalar OsgEarthNet.cs[1] usedPower 4137015.7811079
scalar OsgEarthNet.cs[1] chargedPower 4137015.7811079
scalar OsgEarthNet.cs[1] chargedMobileNodes 1031
scalar OsgEarthNet.cs[1] reservations 1045
scalar OsgEarthNet.cs[2] usedPower 8700486.0564784
scalar OsgEarthNet.cs[2] chargedPower 8700486.0564784
scalar OsgEarthNet.cs[2] chargedMobileNodes 816
scalar OsgEarthNet.cs[2] reservations 1896

