version 2
run Szenario_Hotel_Gabelbach-78-20180719-04:18:29-14356
attr configname Szenario_Hotel_Gabelbach
attr datetime 20180719-04:18:29
attr experiment Szenario_Hotel_Gabelbach
attr inifile omnetpp.ini
attr iterationvars "$replM=2, $biWeight=0.35, $replSearchM=1, $numUAVs=58"
attr iterationvarsf replM=2,biWeight=0.35,replSearchM=1,numUAVs=58-
attr measurement "$replM=2, $biWeight=0.35, $replSearchM=1, $numUAVs=58"
attr network OsgEarthNet
attr processid 14356
attr repetition 6
attr replication #6
attr resultdir results
attr runnumber 78
attr seedset 78
itervar biWeight 0.35
itervar numUAVs 58
itervar replM 2
itervar replSearchM 1
param *.osgEarthScene.scene "\"Szenario_Hotel_Gabelbach.earth\""
param *.playgroundLatitude 50.6830269
param *.playgroundLongitude 10.8538055
param *.playgroundWidth 3500m
param *.playgroundHeight 3500m
param *.cs[0].posX 3537m
param *.cs[0].posY 965m
param *.cs[0].posZ 538m
param *.cs[1].posX 312m
param *.cs[1].posY 1262m
param *.cs[1].posZ 539m
param *.cs[2].posX 2185m
param *.cs[2].posY 3026m
param *.cs[2].posZ 777m
param *.cs[3].posX 10m
param *.cs[3].posY 2200m
param *.cs[3].posZ 560m
param *.cs[4].posX 750m
param *.cs[4].posY 200m
param *.cs[4].posZ 540m
param *.cs[5].posX 2450m
param *.cs[5].posY 180m
param *.cs[5].posZ 524m
param *.cs[6].posX 3140m
param *.cs[6].posY 1790m
param *.cs[6].posZ 606m
param *.numCSs 3
param *.uav[*].replacementMethod 2
param *.uav[*].weightedSumWeight 0.35
param *.missionControl.replacementSearchMethod 1
param *.numUAVs 58
param *.*.timeStep 10s
param *.uav[*].commandPreviewCommandCount 20
param *.missionControl.missionFiles "\"missions\\\\Szenario_WB_Hotel_Gabelbach_Mission_Hotel.waypoints,missions\\\\Szenario_WB_Hotel_Gabelbach_Mission_Kickelhahn.waypoints,missions\\\\Szenario_WB_Hotel_Gabelbach_Mission_Ilmenau_Sportplatz.waypoints,missions\\\\Szenario_WB_Hotel_Gabelbach_Mission_Manebach_Mitte.waypoints,missions\\\\Szenario_WB_Hotel_Gabelbach_Mission_Manebach_Sued.waypoints,missions\\\\Szenario_WB_Hotel_Gabelbach_Hover_HoheSchlaufe.waypoints,missions\\\\Szenario_WB_Hotel_Gabelbach_Hover_Kickelhahn.waypoints,missions\\\\Szenario_WB_Hotel_Gabelbach_Hover_Gabelbachskopf.waypoints,missions\\\\Szenario_WB_Hotel_Gabelbach_Hover_Dachskopf.waypoints\""
param *.uav[0].startX 3537m
param *.uav[0].startY 965m
param *.uav[0].startZ 539m
param *.uav[1].startX 312m
param *.uav[1].startY 1262m
param *.uav[1].startZ 540m
param *.uav[2].startX 2185m
param *.uav[2].startY 3026m
param *.uav[2].startZ 778m
param *.uav[3].startX 3537m
param *.uav[3].startY 965m
param *.uav[3].startZ 539m
param *.uav[4].startX 312m
param *.uav[4].startY 1262m
param *.uav[4].startZ 540m
param *.uav[5].startX 2185m
param *.uav[5].startY 3026m
param *.uav[5].startZ 778m
param *.uav[6].startX 3537m
param *.uav[6].startY 965m
param *.uav[6].startZ 539m
param *.uav[7].startX 312m
param *.uav[7].startY 1262m
param *.uav[7].startZ 540m
param *.uav[8].startX 2185m
param *.uav[8].startY 3026m
param *.uav[8].startZ 778m
param *.uav[9].startX 3537m
param *.uav[9].startY 965m
param *.uav[9].startZ 539m
param *.uav[10].startX 3537m
param *.uav[10].startY 965m
param *.uav[10].startZ 539m
param *.uav[11].startX 312m
param *.uav[11].startY 1262m
param *.uav[11].startZ 540m
param *.uav[12].startX 2185m
param *.uav[12].startY 3026m
param *.uav[12].startZ 778m
param *.uav[13].startX 3537m
param *.uav[13].startY 965m
param *.uav[13].startZ 539m
param *.uav[14].startX 312m
param *.uav[14].startY 1262m
param *.uav[14].startZ 540m
param *.uav[15].startX 2185m
param *.uav[15].startY 3026m
param *.uav[15].startZ 778m
param *.uav[16].startX 3537m
param *.uav[16].startY 965m
param *.uav[16].startZ 539m
param *.uav[17].startX 312m
param *.uav[17].startY 1262m
param *.uav[17].startZ 540m
param *.uav[18].startX 2185m
param *.uav[18].startY 3026m
param *.uav[18].startZ 778m
param *.uav[19].startX 3537m
param *.uav[19].startY 965m
param *.uav[19].startZ 539m
param *.uav[20].startX 3537m
param *.uav[20].startY 965m
param *.uav[20].startZ 539m
param *.uav[21].startX 312m
param *.uav[21].startY 1262m
param *.uav[21].startZ 540m
param *.uav[22].startX 2185m
param *.uav[22].startY 3026m
param *.uav[22].startZ 778m
param *.uav[23].startX 3537m
param *.uav[23].startY 965m
param *.uav[23].startZ 539m
param *.uav[24].startX 312m
param *.uav[24].startY 1262m
param *.uav[24].startZ 540m
param *.uav[25].startX 2185m
param *.uav[25].startY 3026m
param *.uav[25].startZ 778m
param *.uav[26].startX 3537m
param *.uav[26].startY 965m
param *.uav[26].startZ 539m
param *.uav[27].startX 312m
param *.uav[27].startY 1262m
param *.uav[27].startZ 540m
param *.uav[28].startX 2185m
param *.uav[28].startY 3026m
param *.uav[28].startZ 778m
param *.uav[29].startX 3537m
param *.uav[29].startY 965m
param *.uav[29].startZ 539m
param *.uav[30].startX 3537m
param *.uav[30].startY 965m
param *.uav[30].startZ 539m
param *.uav[31].startX 312m
param *.uav[31].startY 1262m
param *.uav[31].startZ 540m
param *.uav[32].startX 2185m
param *.uav[32].startY 3026m
param *.uav[32].startZ 778m
param *.uav[33].startX 3537m
param *.uav[33].startY 965m
param *.uav[33].startZ 539m
param *.uav[34].startX 312m
param *.uav[34].startY 1262m
param *.uav[34].startZ 540m
param *.uav[35].startX 2185m
param *.uav[35].startY 3026m
param *.uav[35].startZ 778m
param *.uav[36].startX 3537m
param *.uav[36].startY 965m
param *.uav[36].startZ 539m
param *.uav[37].startX 312m
param *.uav[37].startY 1262m
param *.uav[37].startZ 540m
param *.uav[38].startX 2185m
param *.uav[38].startY 3026m
param *.uav[38].startZ 778m
param *.uav[39].startX 3537m
param *.uav[39].startY 965m
param *.uav[39].startZ 539m
param *.uav[40].startX 3537m
param *.uav[40].startY 965m
param *.uav[40].startZ 539m
param *.uav[41].startX 312m
param *.uav[41].startY 1262m
param *.uav[41].startZ 540m
param *.uav[42].startX 2185m
param *.uav[42].startY 3026m
param *.uav[42].startZ 778m
param *.uav[43].startX 3537m
param *.uav[43].startY 965m
param *.uav[43].startZ 539m
param *.uav[44].startX 312m
param *.uav[44].startY 1262m
param *.uav[44].startZ 540m
param *.uav[45].startX 2185m
param *.uav[45].startY 3026m
param *.uav[45].startZ 778m
param *.uav[46].startX 3537m
param *.uav[46].startY 965m
param *.uav[46].startZ 539m
param *.uav[47].startX 312m
param *.uav[47].startY 1262m
param *.uav[47].startZ 540m
param *.uav[48].startX 2185m
param *.uav[48].startY 3026m
param *.uav[48].startZ 778m
param *.uav[49].startX 3537m
param *.uav[49].startY 965m
param *.uav[49].startZ 539m
param *.uav[50].startX 3537m
param *.uav[50].startY 965m
param *.uav[50].startZ 539m
param *.uav[51].startX 312m
param *.uav[51].startY 1262m
param *.uav[51].startZ 540m
param *.uav[52].startX 2185m
param *.uav[52].startY 3026m
param *.uav[52].startZ 778m
param *.uav[53].startX 3537m
param *.uav[53].startY 965m
param *.uav[53].startZ 539m
param *.uav[54].startX 312m
param *.uav[54].startY 1262m
param *.uav[54].startZ 540m
param *.uav[55].startX 2185m
param *.uav[55].startY 3026m
param *.uav[55].startZ 778m
param *.uav[56].startX 3537m
param *.uav[56].startY 965m
param *.uav[56].startZ 539m
param *.uav[57].startX 312m
param *.uav[57].startY 1262m
param *.uav[57].startZ 540m
param *.uav[58].startX 2185m
param *.uav[58].startY 3026m
param *.uav[58].startZ 778m
param *.uav[59].startX 3537m
param *.uav[59].startY 965m
param *.uav[59].startZ 539m
param *.uav[60].startX 3537m
param *.uav[60].startY 965m
param *.uav[60].startZ 539m
param *.uav[61].startX 312m
param *.uav[61].startY 1262m
param *.uav[61].startZ 540m
param *.uav[62].startX 2185m
param *.uav[62].startY 3026m
param *.uav[62].startZ 778m
param *.uav[63].startX 3537m
param *.uav[63].startY 965m
param *.uav[63].startZ 539m
param *.uav[64].startX 312m
param *.uav[64].startY 1262m
param *.uav[64].startZ 540m
param *.uav[65].startX 2185m
param *.uav[65].startY 3026m
param *.uav[65].startZ 778m
param *.uav[66].startX 3537m
param *.uav[66].startY 965m
param *.uav[66].startZ 539m
param *.uav[67].startX 312m
param *.uav[67].startY 1262m
param *.uav[67].startZ 540m
param *.uav[68].startX 2185m
param *.uav[68].startY 3026m
param *.uav[68].startZ 778m
param *.uav[69].startX 3537m
param *.uav[69].startY 965m
param *.uav[69].startZ 539m
param *.uav[70].startX 3537m
param *.uav[70].startY 965m
param *.uav[70].startZ 539m
param *.uav[71].startX 312m
param *.uav[71].startY 1262m
param *.uav[71].startZ 540m
param *.uav[72].startX 2185m
param *.uav[72].startY 3026m
param *.uav[72].startZ 778m
param *.uav[73].startX 3537m
param *.uav[73].startY 965m
param *.uav[73].startZ 539m
param *.uav[74].startX 312m
param *.uav[74].startY 1262m
param *.uav[74].startZ 540m
param *.uav[75].startX 2185m
param *.uav[75].startY 3026m
param *.uav[75].startZ 778m
param *.uav[76].startX 3537m
param *.uav[76].startY 965m
param *.uav[76].startZ 539m
param *.uav[77].startX 312m
param *.uav[77].startY 1262m
param *.uav[77].startZ 540m
param *.uav[78].startX 2185m
param *.uav[78].startY 3026m
param *.uav[78].startZ 778m
param *.uav[79].startX 3537m
param *.uav[79].startY 965m
param *.uav[79].startZ 539m
param *.uav[80].startX 3537m
param *.uav[80].startY 965m
param *.uav[80].startZ 539m
param *.uav[81].startX 312m
param *.uav[81].startY 1262m
param *.uav[81].startZ 540m
param *.uav[82].startX 2185m
param *.uav[82].startY 3026m
param *.uav[82].startZ 778m
param *.uav[83].startX 3537m
param *.uav[83].startY 965m
param *.uav[83].startZ 539m
param *.uav[84].startX 312m
param *.uav[84].startY 1262m
param *.uav[84].startZ 540m
param *.uav[85].startX 2185m
param *.uav[85].startY 3026m
param *.uav[85].startZ 778m
param *.uav[86].startX 3537m
param *.uav[86].startY 965m
param *.uav[86].startZ 539m
param *.uav[87].startX 312m
param *.uav[87].startY 1262m
param *.uav[87].startZ 540m
param *.uav[88].startX 2185m
param *.uav[88].startY 3026m
param *.uav[88].startZ 778m
param *.uav[89].startX 3537m
param *.uav[89].startY 965m
param *.uav[89].startZ 539m
param *.uav[90].startX 3537m
param *.uav[90].startY 965m
param *.uav[90].startZ 539m
param *.uav[91].startX 312m
param *.uav[91].startY 1262m
param *.uav[91].startZ 540m
param *.uav[92].startX 2185m
param *.uav[92].startY 3026m
param *.uav[92].startZ 778m
param *.uav[93].startX 3537m
param *.uav[93].startY 965m
param *.uav[93].startZ 539m
param *.uav[94].startX 312m
param *.uav[94].startY 1262m
param *.uav[94].startZ 540m
param *.uav[95].startX 2185m
param *.uav[95].startY 3026m
param *.uav[95].startZ 778m
param *.uav[96].startX 3537m
param *.uav[96].startY 965m
param *.uav[96].startZ 539m
param *.uav[97].startX 312m
param *.uav[97].startY 1262m
param *.uav[97].startZ 540m
param *.uav[98].startX 2185m
param *.uav[98].startY 3026m
param *.uav[98].startZ 778m
param *.uav[99].startX 3537m
param *.uav[99].startY 965m
param *.uav[99].startZ 539m
param *.osgEarthScene.scene "\"boston.earth\""
param *.playgroundLatitude 42.3558
param *.playgroundLongitude -71.0677
param *.playgroundWidth 400m
param *.playgroundHeight 200m
param *.channelController.connectionColor "\"#0000FF40\""
param *.channelController.showConnections false
param *.uav[*].modelURL "\"quadrocopter.small.obj.15.scale.0,0,90.rot\""
param *.uav[*].labelColor "\"#FF7C00CC\""
param *.uav[*].label2Color "\"#FF7C00EE\""
param *.uav[*].batteryCapacity 5200mAh
param *.uav[*].batteryRemaining uav[index].batteryCapacity
param *.uav[*].predictionQuantile 0.95
param *.uav[*].replacementMethod 2
param *.uav[*].weightedSumWeight 0.5
param *.cs[*].modelURL "\"chargingstation_v1.osgt.2.scale.0,0,0.rot.0,0,-15e-1.trans\""
param *.cs[*].spotsWaiting 999
param *.cs[*].spotsCharging 999
param *.cs[*].chargeEffectivenessPercentage 100
param *.cs[*].nonLinearPhaseStartPercentage 85
param *.cs[*].chargeCurrent 6.0A
param *.cs[*].prioritizeFastCharge true
param *.missionControl.replacementSearchMethod 0
param *.*.timeStep 9s

scalar OsgEarthNet.uav[0] utilizationSecMission 36500.692175607
scalar OsgEarthNet.uav[0] utilizationSecMaintenance 24484.76576905
scalar OsgEarthNet.uav[0] utilizationSecCharge 196402.53705534
scalar OsgEarthNet.uav[0] utilizationSecIdle 1812.004
scalar OsgEarthNet.uav[0] utilizationEnergyMission 177071.87278366
scalar OsgEarthNet.uav[0] utilizationEnergyMaintenance 117197.15236282
scalar OsgEarthNet.uav[0] utilizationEnergyCharge 292466.44384766
scalar OsgEarthNet.uav[0] utilizationEnergyOverdrawMission 0
scalar OsgEarthNet.uav[0] utilizationEnergyOverdrawMaintenance 0
scalar OsgEarthNet.uav[0] utilizationCountMissions 70
scalar OsgEarthNet.uav[0] utilizationCountManeuversMission 1192
scalar OsgEarthNet.uav[0] utilizationCountManeuversMaintenance 140
scalar OsgEarthNet.uav[0] utilizationCountChargeState 70
scalar OsgEarthNet.uav[0] utilizationCountOverdrawnAfterMission 0
scalar OsgEarthNet.uav[0] utilizationCountIdleState 4
scalar OsgEarthNet.uav[0] utilizationFail 0
scalar OsgEarthNet.uav[0] simulationTime 259200
scalar OsgEarthNet.uav[1] utilizationSecMission 35346.515281358
scalar OsgEarthNet.uav[1] utilizationSecMaintenance 24981.479718642
scalar OsgEarthNet.uav[1] utilizationSecCharge 196860
scalar OsgEarthNet.uav[1] utilizationSecIdle 2012.004
scalar OsgEarthNet.uav[1] utilizationEnergyMission 172911.56427383
scalar OsgEarthNet.uav[1] utilizationEnergyMaintenance 117845.55839991
scalar OsgEarthNet.uav[1] utilizationEnergyCharge 286686.83837891
scalar OsgEarthNet.uav[1] utilizationEnergyOverdrawMission 0
scalar OsgEarthNet.uav[1] utilizationEnergyOverdrawMaintenance 0
scalar OsgEarthNet.uav[1] utilizationCountMissions 72
scalar OsgEarthNet.uav[1] utilizationCountManeuversMission 1170
scalar OsgEarthNet.uav[1] utilizationCountManeuversMaintenance 144
scalar OsgEarthNet.uav[1] utilizationCountChargeState 71
scalar OsgEarthNet.uav[1] utilizationCountOverdrawnAfterMission 0
scalar OsgEarthNet.uav[1] utilizationCountIdleState 2
scalar OsgEarthNet.uav[1] utilizationFail 0
scalar OsgEarthNet.uav[1] simulationTime 259200
scalar OsgEarthNet.uav[2] utilizationSecMission 43346.551179681
scalar OsgEarthNet.uav[2] utilizationSecMaintenance 20196.340544923
scalar OsgEarthNet.uav[2] utilizationSecCharge 195655.1072754
scalar OsgEarthNet.uav[2] utilizationSecIdle 2
scalar OsgEarthNet.uav[2] utilizationEnergyMission 211391.91672868
scalar OsgEarthNet.uav[2] utilizationEnergyMaintenance 93161.154689789
scalar OsgEarthNet.uav[2] utilizationEnergyCharge 303072.00805664
scalar OsgEarthNet.uav[2] utilizationEnergyOverdrawMission 0
scalar OsgEarthNet.uav[2] utilizationEnergyOverdrawMaintenance 0
scalar OsgEarthNet.uav[2] utilizationCountMissions 68
scalar OsgEarthNet.uav[2] utilizationCountManeuversMission 1544
scalar OsgEarthNet.uav[2] utilizationCountManeuversMaintenance 135
scalar OsgEarthNet.uav[2] utilizationCountChargeState 68
scalar OsgEarthNet.uav[2] utilizationCountOverdrawnAfterMission 0
scalar OsgEarthNet.uav[2] utilizationCountIdleState 1
scalar OsgEarthNet.uav[2] utilizationFail 0
scalar OsgEarthNet.uav[2] simulationTime 259200
scalar OsgEarthNet.uav[3] utilizationSecMission 40775.961020264
scalar OsgEarthNet.uav[3] utilizationSecMaintenance 22209.264611246
scalar OsgEarthNet.uav[3] utilizationSecCharge 194097.00376661
scalar OsgEarthNet.uav[3] utilizationSecIdle 2117.7696018813
scalar OsgEarthNet.uav[3] utilizationEnergyMission 198562.4748764
scalar OsgEarthNet.uav[3] utilizationEnergyMaintenance 104480.36186218
scalar OsgEarthNet.uav[3] utilizationEnergyCharge 299940.23852539
scalar OsgEarthNet.uav[3] utilizationEnergyOverdrawMission 0
scalar OsgEarthNet.uav[3] utilizationEnergyOverdrawMaintenance 0
scalar OsgEarthNet.uav[3] utilizationCountMissions 68
scalar OsgEarthNet.uav[3] utilizationCountManeuversMission 1261
scalar OsgEarthNet.uav[3] utilizationCountManeuversMaintenance 136
scalar OsgEarthNet.uav[3] utilizationCountChargeState 68
scalar OsgEarthNet.uav[3] utilizationCountOverdrawnAfterMission 0
scalar OsgEarthNet.uav[3] utilizationCountIdleState 1
scalar OsgEarthNet.uav[3] utilizationFail 0
scalar OsgEarthNet.uav[3] simulationTime 259200
scalar OsgEarthNet.uav[4] utilizationSecMission 37836.560249497
scalar OsgEarthNet.uav[4] utilizationSecMaintenance 20639.64617526
scalar OsgEarthNet.uav[4] utilizationSecCharge 198432.82858957
scalar OsgEarthNet.uav[4] utilizationSecIdle 2290.9639856735
scalar OsgEarthNet.uav[4] utilizationEnergyMission 181824.54998016
scalar OsgEarthNet.uav[4] utilizationEnergyMaintenance 98371.692604065
scalar OsgEarthNet.uav[4] utilizationEnergyCharge 277665.98120117
scalar OsgEarthNet.uav[4] utilizationEnergyOverdrawMission 0
scalar OsgEarthNet.uav[4] utilizationEnergyOverdrawMaintenance 0
scalar OsgEarthNet.uav[4] utilizationCountMissions 69
scalar OsgEarthNet.uav[4] utilizationCountManeuversMission 1019
scalar OsgEarthNet.uav[4] utilizationCountManeuversMaintenance 138
scalar OsgEarthNet.uav[4] utilizationCountChargeState 69
scalar OsgEarthNet.uav[4] utilizationCountOverdrawnAfterMission 0
scalar OsgEarthNet.uav[4] utilizationCountIdleState 8
scalar OsgEarthNet.uav[4] utilizationFail 0
scalar OsgEarthNet.uav[4] simulationTime 259200
scalar OsgEarthNet.uav[5] utilizationSecMission 43211.577684549
scalar OsgEarthNet.uav[5] utilizationSecMaintenance 19292.939969616
scalar OsgEarthNet.uav[5] utilizationSecCharge 196006.26173192
scalar OsgEarthNet.uav[5] utilizationSecIdle 689.21961391566
scalar OsgEarthNet.uav[5] utilizationEnergyMission 210695.06192398
scalar OsgEarthNet.uav[5] utilizationEnergyMaintenance 88173.780776978
scalar OsgEarthNet.uav[5] utilizationEnergyCharge 301177.42285156
scalar OsgEarthNet.uav[5] utilizationEnergyOverdrawMission 0
scalar OsgEarthNet.uav[5] utilizationEnergyOverdrawMaintenance 0
scalar OsgEarthNet.uav[5] utilizationCountMissions 67
scalar OsgEarthNet.uav[5] utilizationCountManeuversMission 1488
scalar OsgEarthNet.uav[5] utilizationCountManeuversMaintenance 134
scalar OsgEarthNet.uav[5] utilizationCountChargeState 67
scalar OsgEarthNet.uav[5] utilizationCountOverdrawnAfterMission 0
scalar OsgEarthNet.uav[5] utilizationCountIdleState 1
scalar OsgEarthNet.uav[5] utilizationFail 0
scalar OsgEarthNet.uav[5] simulationTime 259200
scalar OsgEarthNet.uav[6] utilizationSecMission 42432.440203948
scalar OsgEarthNet.uav[6] utilizationSecMaintenance 20225.555796052
scalar OsgEarthNet.uav[6] utilizationSecCharge 195140
scalar OsgEarthNet.uav[6] utilizationSecIdle 1402.003
scalar OsgEarthNet.uav[6] utilizationEnergyMission 207627.00717895
scalar OsgEarthNet.uav[6] utilizationEnergyMaintenance 94865.943771362
scalar OsgEarthNet.uav[6] utilizationEnergyCharge 301293.60205078
scalar OsgEarthNet.uav[6] utilizationEnergyOverdrawMission 0
scalar OsgEarthNet.uav[6] utilizationEnergyOverdrawMaintenance 0
scalar OsgEarthNet.uav[6] utilizationCountMissions 67
scalar OsgEarthNet.uav[6] utilizationCountManeuversMission 1542
scalar OsgEarthNet.uav[6] utilizationCountManeuversMaintenance 135
scalar OsgEarthNet.uav[6] utilizationCountChargeState 67
scalar OsgEarthNet.uav[6] utilizationCountOverdrawnAfterMission 0
scalar OsgEarthNet.uav[6] utilizationCountIdleState 2
scalar OsgEarthNet.uav[6] utilizationFail 0
scalar OsgEarthNet.uav[6] simulationTime 259200
scalar OsgEarthNet.uav[7] utilizationSecMission 36606.245585504
scalar OsgEarthNet.uav[7] utilizationSecMaintenance 22275.753563971
scalar OsgEarthNet.uav[7] utilizationSecCharge 197510
scalar OsgEarthNet.uav[7] utilizationSecIdle 2807.9998505245
scalar OsgEarthNet.uav[7] utilizationEnergyMission 177499.8769455
scalar OsgEarthNet.uav[7] utilizationEnergyMaintenance 106209.47051469
scalar OsgEarthNet.uav[7] utilizationEnergyCharge 277875.9921875
scalar OsgEarthNet.uav[7] utilizationEnergyOverdrawMission 0
scalar OsgEarthNet.uav[7] utilizationEnergyOverdrawMaintenance 0
scalar OsgEarthNet.uav[7] utilizationCountMissions 70
scalar OsgEarthNet.uav[7] utilizationCountManeuversMission 1033
scalar OsgEarthNet.uav[7] utilizationCountManeuversMaintenance 140
scalar OsgEarthNet.uav[7] utilizationCountChargeState 69
scalar OsgEarthNet.uav[7] utilizationCountOverdrawnAfterMission 0
scalar OsgEarthNet.uav[7] utilizationCountIdleState 9
scalar OsgEarthNet.uav[7] utilizationFail 0
scalar OsgEarthNet.uav[7] simulationTime 259200
scalar OsgEarthNet.uav[8] utilizationSecMission 41717.478431947
scalar OsgEarthNet.uav[8] utilizationSecMaintenance 19489.138634658
scalar OsgEarthNet.uav[8] utilizationSecCharge 197078.88399222
scalar OsgEarthNet.uav[8] utilizationSecIdle 914.49794117561
scalar OsgEarthNet.uav[8] utilizationEnergyMission 199016.38508606
scalar OsgEarthNet.uav[8] utilizationEnergyMaintenance 91457.008407593
scalar OsgEarthNet.uav[8] utilizationEnergyCharge 290410.27392578
scalar OsgEarthNet.uav[8] utilizationEnergyOverdrawMission 0
scalar OsgEarthNet.uav[8] utilizationEnergyOverdrawMaintenance 0
scalar OsgEarthNet.uav[8] utilizationCountMissions 67
scalar OsgEarthNet.uav[8] utilizationCountManeuversMission 1176
scalar OsgEarthNet.uav[8] utilizationCountManeuversMaintenance 134
scalar OsgEarthNet.uav[8] utilizationCountChargeState 67
scalar OsgEarthNet.uav[8] utilizationCountOverdrawnAfterMission 0
scalar OsgEarthNet.uav[8] utilizationCountIdleState 3
scalar OsgEarthNet.uav[8] utilizationFail 0
scalar OsgEarthNet.uav[8] simulationTime 259200
scalar OsgEarthNet.uav[9] utilizationSecMission 37827.292059285
scalar OsgEarthNet.uav[9] utilizationSecMaintenance 20718.748908852
scalar OsgEarthNet.uav[9] utilizationSecCharge 197330
scalar OsgEarthNet.uav[9] utilizationSecIdle 3323.9580318632
scalar OsgEarthNet.uav[9] utilizationEnergyMission 183502.33905044
scalar OsgEarthNet.uav[9] utilizationEnergyMaintenance 98478.916416168
scalar OsgEarthNet.uav[9] utilizationEnergyCharge 278032.22314453
scalar OsgEarthNet.uav[9] utilizationEnergyOverdrawMission 0
scalar OsgEarthNet.uav[9] utilizationEnergyOverdrawMaintenance 0
scalar OsgEarthNet.uav[9] utilizationCountMissions 66
scalar OsgEarthNet.uav[9] utilizationCountManeuversMission 1091
scalar OsgEarthNet.uav[9] utilizationCountManeuversMaintenance 133
scalar OsgEarthNet.uav[9] utilizationCountChargeState 66
scalar OsgEarthNet.uav[9] utilizationCountOverdrawnAfterMission 0
scalar OsgEarthNet.uav[9] utilizationCountIdleState 8
scalar OsgEarthNet.uav[9] utilizationFail 0
scalar OsgEarthNet.uav[9] simulationTime 259200
scalar OsgEarthNet.uav[10] utilizationSecMission 41411.44866931
scalar OsgEarthNet.uav[10] utilizationSecMaintenance 21514.105180878
scalar OsgEarthNet.uav[10] utilizationSecCharge 193197.66886729
scalar OsgEarthNet.uav[10] utilizationSecIdle 3076.7762825208
scalar OsgEarthNet.uav[10] utilizationEnergyMission 198262.68370438
scalar OsgEarthNet.uav[10] utilizationEnergyMaintenance 101448.42433548
scalar OsgEarthNet.uav[10] utilizationEnergyCharge 295491.28491211
scalar OsgEarthNet.uav[10] utilizationEnergyOverdrawMission 0
scalar OsgEarthNet.uav[10] utilizationEnergyOverdrawMaintenance 0
scalar OsgEarthNet.uav[10] utilizationCountMissions 67
scalar OsgEarthNet.uav[10] utilizationCountManeuversMission 1090
scalar OsgEarthNet.uav[10] utilizationCountManeuversMaintenance 134
scalar OsgEarthNet.uav[10] utilizationCountChargeState 67
scalar OsgEarthNet.uav[10] utilizationCountOverdrawnAfterMission 0
scalar OsgEarthNet.uav[10] utilizationCountIdleState 2
scalar OsgEarthNet.uav[10] utilizationFail 0
scalar OsgEarthNet.uav[10] simulationTime 259200
scalar OsgEarthNet.uav[11] utilizationSecMission 38330.974229008
scalar OsgEarthNet.uav[11] utilizationSecMaintenance 20702.964621419
scalar OsgEarthNet.uav[11] utilizationSecCharge 199764.06014957
scalar OsgEarthNet.uav[11] utilizationSecIdle 402
scalar OsgEarthNet.uav[11] utilizationEnergyMission 182953.41243362
scalar OsgEarthNet.uav[11] utilizationEnergyMaintenance 97697.522090912
scalar OsgEarthNet.uav[11] utilizationEnergyCharge 281026.71850586
scalar OsgEarthNet.uav[11] utilizationEnergyOverdrawMission 0
scalar OsgEarthNet.uav[11] utilizationEnergyOverdrawMaintenance 0
scalar OsgEarthNet.uav[11] utilizationCountMissions 69
scalar OsgEarthNet.uav[11] utilizationCountManeuversMission 1014
scalar OsgEarthNet.uav[11] utilizationCountManeuversMaintenance 138
scalar OsgEarthNet.uav[11] utilizationCountChargeState 69
scalar OsgEarthNet.uav[11] utilizationCountOverdrawnAfterMission 0
scalar OsgEarthNet.uav[11] utilizationCountIdleState 8
scalar OsgEarthNet.uav[11] utilizationFail 0
scalar OsgEarthNet.uav[11] simulationTime 259200
scalar OsgEarthNet.uav[12] utilizationSecMission 40473.308818655
scalar OsgEarthNet.uav[12] utilizationSecMaintenance 21894.690181345
scalar OsgEarthNet.uav[12] utilizationSecCharge 196830
scalar OsgEarthNet.uav[12] utilizationSecIdle 2
scalar OsgEarthNet.uav[12] utilizationEnergyMission 199412.86501977
scalar OsgEarthNet.uav[12] utilizationEnergyMaintenance 102962.17036438
scalar OsgEarthNet.uav[12] utilizationEnergyCharge 303844.24438477
scalar OsgEarthNet.uav[12] utilizationEnergyOverdrawMission 0
scalar OsgEarthNet.uav[12] utilizationEnergyOverdrawMaintenance 0
scalar OsgEarthNet.uav[12] utilizationCountMissions 68
scalar OsgEarthNet.uav[12] utilizationCountManeuversMission 1531
scalar OsgEarthNet.uav[12] utilizationCountManeuversMaintenance 137
scalar OsgEarthNet.uav[12] utilizationCountChargeState 68
scalar OsgEarthNet.uav[12] utilizationCountOverdrawnAfterMission 0
scalar OsgEarthNet.uav[12] utilizationCountIdleState 1
scalar OsgEarthNet.uav[12] utilizationFail 0
scalar OsgEarthNet.uav[12] simulationTime 259200
scalar OsgEarthNet.uav[13] utilizationSecMission 38438.39410086
scalar OsgEarthNet.uav[13] utilizationSecMaintenance 24444.102216967
scalar OsgEarthNet.uav[13] utilizationSecCharge 195415.50068217
scalar OsgEarthNet.uav[13] utilizationSecIdle 902.002
scalar OsgEarthNet.uav[13] utilizationEnergyMission 184872.40816116
scalar OsgEarthNet.uav[13] utilizationEnergyMaintenance 115750.51420593
scalar OsgEarthNet.uav[13] utilizationEnergyCharge 300826.87719727
scalar OsgEarthNet.uav[13] utilizationEnergyOverdrawMission 0
scalar OsgEarthNet.uav[13] utilizationEnergyOverdrawMaintenance 0
scalar OsgEarthNet.uav[13] utilizationCountMissions 69
scalar OsgEarthNet.uav[13] utilizationCountManeuversMission 1237
scalar OsgEarthNet.uav[13] utilizationCountManeuversMaintenance 138
scalar OsgEarthNet.uav[13] utilizationCountChargeState 69
scalar OsgEarthNet.uav[13] utilizationCountOverdrawnAfterMission 0
scalar OsgEarthNet.uav[13] utilizationCountIdleState 2
scalar OsgEarthNet.uav[13] utilizationFail 0
scalar OsgEarthNet.uav[13] simulationTime 259200
scalar OsgEarthNet.uav[14] utilizationSecMission 38724.973624462
scalar OsgEarthNet.uav[14] utilizationSecMaintenance 20816.671772659
scalar OsgEarthNet.uav[14] utilizationSecCharge 197530
scalar OsgEarthNet.uav[14] utilizationSecIdle 2128.3536028792
scalar OsgEarthNet.uav[14] utilizationEnergyMission 184481.23942566
scalar OsgEarthNet.uav[14] utilizationEnergyMaintenance 99093.995363595
scalar OsgEarthNet.uav[14] utilizationEnergyCharge 280099.86376953
scalar OsgEarthNet.uav[14] utilizationEnergyOverdrawMission 0
scalar OsgEarthNet.uav[14] utilizationEnergyOverdrawMaintenance 0
scalar OsgEarthNet.uav[14] utilizationCountMissions 68
scalar OsgEarthNet.uav[14] utilizationCountManeuversMission 1028
scalar OsgEarthNet.uav[14] utilizationCountManeuversMaintenance 136
scalar OsgEarthNet.uav[14] utilizationCountChargeState 67
scalar OsgEarthNet.uav[14] utilizationCountOverdrawnAfterMission 0
scalar OsgEarthNet.uav[14] utilizationCountIdleState 7
scalar OsgEarthNet.uav[14] utilizationFail 0
scalar OsgEarthNet.uav[14] simulationTime 259200
scalar OsgEarthNet.uav[15] utilizationSecMission 41685.04935017
scalar OsgEarthNet.uav[15] utilizationSecMaintenance 22135.185637885
scalar OsgEarthNet.uav[15] utilizationSecCharge 194342.31374791
scalar OsgEarthNet.uav[15] utilizationSecIdle 1037.4502640309
scalar OsgEarthNet.uav[15] utilizationEnergyMission 205596.27804947
scalar OsgEarthNet.uav[15] utilizationEnergyMaintenance 102512.20372391
scalar OsgEarthNet.uav[15] utilizationEnergyCharge 303676.26525879
scalar OsgEarthNet.uav[15] utilizationEnergyOverdrawMission 0
scalar OsgEarthNet.uav[15] utilizationEnergyOverdrawMaintenance 0
scalar OsgEarthNet.uav[15] utilizationCountMissions 69
scalar OsgEarthNet.uav[15] utilizationCountManeuversMission 1381
scalar OsgEarthNet.uav[15] utilizationCountManeuversMaintenance 138
scalar OsgEarthNet.uav[15] utilizationCountChargeState 69
scalar OsgEarthNet.uav[15] utilizationCountOverdrawnAfterMission 0
scalar OsgEarthNet.uav[15] utilizationCountIdleState 3
scalar OsgEarthNet.uav[15] utilizationFail 0
scalar OsgEarthNet.uav[15] simulationTime 259200
scalar OsgEarthNet.uav[16] utilizationSecMission 43354.409931589
scalar OsgEarthNet.uav[16] utilizationSecMaintenance 19434.640812746
scalar OsgEarthNet.uav[16] utilizationSecCharge 193560
scalar OsgEarthNet.uav[16] utilizationSecIdle 2850.9482556647
scalar OsgEarthNet.uav[16] utilizationEnergyMission 212882.81715455
scalar OsgEarthNet.uav[16] utilizationEnergyMaintenance 90162.267776489
scalar OsgEarthNet.uav[16] utilizationEnergyCharge 294305.50732422
scalar OsgEarthNet.uav[16] utilizationEnergyOverdrawMission 0
scalar OsgEarthNet.uav[16] utilizationEnergyOverdrawMaintenance 0
scalar OsgEarthNet.uav[16] utilizationCountMissions 66
scalar OsgEarthNet.uav[16] utilizationCountManeuversMission 1468
scalar OsgEarthNet.uav[16] utilizationCountManeuversMaintenance 133
scalar OsgEarthNet.uav[16] utilizationCountChargeState 66
scalar OsgEarthNet.uav[16] utilizationCountOverdrawnAfterMission 0
scalar OsgEarthNet.uav[16] utilizationCountIdleState 2
scalar OsgEarthNet.uav[16] utilizationFail 0
scalar OsgEarthNet.uav[16] simulationTime 259200
scalar OsgEarthNet.uav[17] utilizationSecMission 38591.676559042
scalar OsgEarthNet.uav[17] utilizationSecMaintenance 22186.664675946
scalar OsgEarthNet.uav[17] utilizationSecCharge 195766.21467632
scalar OsgEarthNet.uav[17] utilizationSecIdle 2655.443088691
scalar OsgEarthNet.uav[17] utilizationEnergyMission 188379.85799026
scalar OsgEarthNet.uav[17] utilizationEnergyMaintenance 104265.83378601
scalar OsgEarthNet.uav[17] utilizationEnergyCharge 289336.59545898
scalar OsgEarthNet.uav[17] utilizationEnergyOverdrawMission 0
scalar OsgEarthNet.uav[17] utilizationEnergyOverdrawMaintenance 0
scalar OsgEarthNet.uav[17] utilizationCountMissions 68
scalar OsgEarthNet.uav[17] utilizationCountManeuversMission 1190
scalar OsgEarthNet.uav[17] utilizationCountManeuversMaintenance 136
scalar OsgEarthNet.uav[17] utilizationCountChargeState 68
scalar OsgEarthNet.uav[17] utilizationCountOverdrawnAfterMission 0
scalar OsgEarthNet.uav[17] utilizationCountIdleState 2
scalar OsgEarthNet.uav[17] utilizationFail 0
scalar OsgEarthNet.uav[17] simulationTime 259200
scalar OsgEarthNet.uav[18] utilizationSecMission 38289.927417531
scalar OsgEarthNet.uav[18] utilizationSecMaintenance 21876.689139676
scalar OsgEarthNet.uav[18] utilizationSecCharge 198171.38144279
scalar OsgEarthNet.uav[18] utilizationSecIdle 862.001
scalar OsgEarthNet.uav[18] utilizationEnergyMission 186394.21969604
scalar OsgEarthNet.uav[18] utilizationEnergyMaintenance 102184.49969864
scalar OsgEarthNet.uav[18] utilizationEnergyCharge 285124.2043457
scalar OsgEarthNet.uav[18] utilizationEnergyOverdrawMission 0
scalar OsgEarthNet.uav[18] utilizationEnergyOverdrawMaintenance 0
scalar OsgEarthNet.uav[18] utilizationCountMissions 67
scalar OsgEarthNet.uav[18] utilizationCountManeuversMission 1229
scalar OsgEarthNet.uav[18] utilizationCountManeuversMaintenance 134
scalar OsgEarthNet.uav[18] utilizationCountChargeState 67
scalar OsgEarthNet.uav[18] utilizationCountOverdrawnAfterMission 0
scalar OsgEarthNet.uav[18] utilizationCountIdleState 4
scalar OsgEarthNet.uav[18] utilizationFail 0
scalar OsgEarthNet.uav[18] simulationTime 259200
scalar OsgEarthNet.uav[19] utilizationSecMission 40172.928974223
scalar OsgEarthNet.uav[19] utilizationSecMaintenance 20558.881571166
scalar OsgEarthNet.uav[19] utilizationSecCharge 195764.59779731
scalar OsgEarthNet.uav[19] utilizationSecIdle 2703.5906573018
scalar OsgEarthNet.uav[19] utilizationEnergyMission 196494.09600067
scalar OsgEarthNet.uav[19] utilizationEnergyMaintenance 96929.3855896
scalar OsgEarthNet.uav[19] utilizationEnergyCharge 292207.32299805
scalar OsgEarthNet.uav[19] utilizationEnergyOverdrawMission 0
scalar OsgEarthNet.uav[19] utilizationEnergyOverdrawMaintenance 0
scalar OsgEarthNet.uav[19] utilizationCountMissions 67
scalar OsgEarthNet.uav[19] utilizationCountManeuversMission 1265
scalar OsgEarthNet.uav[19] utilizationCountManeuversMaintenance 134
scalar OsgEarthNet.uav[19] utilizationCountChargeState 67
scalar OsgEarthNet.uav[19] utilizationCountOverdrawnAfterMission 0
scalar OsgEarthNet.uav[19] utilizationCountIdleState 5
scalar OsgEarthNet.uav[19] utilizationFail 0
scalar OsgEarthNet.uav[19] simulationTime 259200
scalar OsgEarthNet.uav[20] utilizationSecMission 43573.056355837
scalar OsgEarthNet.uav[20] utilizationSecMaintenance 18210.896135034
scalar OsgEarthNet.uav[20] utilizationSecCharge 194317.46585226
scalar OsgEarthNet.uav[20] utilizationSecIdle 3098.5806568717
scalar OsgEarthNet.uav[20] utilizationEnergyMission 211229.46021652
scalar OsgEarthNet.uav[20] utilizationEnergyMaintenance 84285.405250549
scalar OsgEarthNet.uav[20] utilizationEnergyCharge 295442.76464844
scalar OsgEarthNet.uav[20] utilizationEnergyOverdrawMission 0
scalar OsgEarthNet.uav[20] utilizationEnergyOverdrawMaintenance 0
scalar OsgEarthNet.uav[20] utilizationCountMissions 66
scalar OsgEarthNet.uav[20] utilizationCountManeuversMission 1367
scalar OsgEarthNet.uav[20] utilizationCountManeuversMaintenance 132
scalar OsgEarthNet.uav[20] utilizationCountChargeState 66
scalar OsgEarthNet.uav[20] utilizationCountOverdrawnAfterMission 0
scalar OsgEarthNet.uav[20] utilizationCountIdleState 3
scalar OsgEarthNet.uav[20] utilizationFail 0
scalar OsgEarthNet.uav[20] simulationTime 259200
scalar OsgEarthNet.uav[21] utilizationSecMission 43821.654948464
scalar OsgEarthNet.uav[21] utilizationSecMaintenance 17747.214522815
scalar OsgEarthNet.uav[21] utilizationSecCharge 194846.42382968
scalar OsgEarthNet.uav[21] utilizationSecIdle 2784.7056990363
scalar OsgEarthNet.uav[21] utilizationEnergyMission 208372.33547974
scalar OsgEarthNet.uav[21] utilizationEnergyMaintenance 82493.827476501
scalar OsgEarthNet.uav[21] utilizationEnergyCharge 293256.76000977
scalar OsgEarthNet.uav[21] utilizationEnergyOverdrawMission 0
scalar OsgEarthNet.uav[21] utilizationEnergyOverdrawMaintenance 0
scalar OsgEarthNet.uav[21] utilizationCountMissions 65
scalar OsgEarthNet.uav[21] utilizationCountManeuversMission 1159
scalar OsgEarthNet.uav[21] utilizationCountManeuversMaintenance 130
scalar OsgEarthNet.uav[21] utilizationCountChargeState 65
scalar OsgEarthNet.uav[21] utilizationCountOverdrawnAfterMission 0
scalar OsgEarthNet.uav[21] utilizationCountIdleState 2
scalar OsgEarthNet.uav[21] utilizationFail 0
scalar OsgEarthNet.uav[21] simulationTime 259200
scalar OsgEarthNet.uav[22] utilizationSecMission 44190.163931509
scalar OsgEarthNet.uav[22] utilizationSecMaintenance 19184.148757736
scalar OsgEarthNet.uav[22] utilizationSecCharge 195823.68631075
scalar OsgEarthNet.uav[22] utilizationSecIdle 2
scalar OsgEarthNet.uav[22] utilizationEnergyMission 213608.09615326
scalar OsgEarthNet.uav[22] utilizationEnergyMaintenance 88097.137470245
scalar OsgEarthNet.uav[22] utilizationEnergyCharge 300603.32543945
scalar OsgEarthNet.uav[22] utilizationEnergyOverdrawMission 0
scalar OsgEarthNet.uav[22] utilizationEnergyOverdrawMaintenance 0
scalar OsgEarthNet.uav[22] utilizationCountMissions 67
scalar OsgEarthNet.uav[22] utilizationCountManeuversMission 1345
scalar OsgEarthNet.uav[22] utilizationCountManeuversMaintenance 134
scalar OsgEarthNet.uav[22] utilizationCountChargeState 67
scalar OsgEarthNet.uav[22] utilizationCountOverdrawnAfterMission 0
scalar OsgEarthNet.uav[22] utilizationCountIdleState 1
scalar OsgEarthNet.uav[22] utilizationFail 0
scalar OsgEarthNet.uav[22] simulationTime 259200
scalar OsgEarthNet.uav[23] utilizationSecMission 36894.378509346
scalar OsgEarthNet.uav[23] utilizationSecMaintenance 25286.942807546
scalar OsgEarthNet.uav[23] utilizationSecCharge 196676.67768311
scalar OsgEarthNet.uav[23] utilizationSecIdle 342
scalar OsgEarthNet.uav[23] utilizationEnergyMission 177778.86010742
scalar OsgEarthNet.uav[23] utilizationEnergyMaintenance 120356.13714218
scalar OsgEarthNet.uav[23] utilizationEnergyCharge 301439.08056641
scalar OsgEarthNet.uav[23] utilizationEnergyOverdrawMission 0
scalar OsgEarthNet.uav[23] utilizationEnergyOverdrawMaintenance 0
scalar OsgEarthNet.uav[23] utilizationCountMissions 69
scalar OsgEarthNet.uav[23] utilizationCountManeuversMission 1246
scalar OsgEarthNet.uav[23] utilizationCountManeuversMaintenance 138
scalar OsgEarthNet.uav[23] utilizationCountChargeState 69
scalar OsgEarthNet.uav[23] utilizationCountOverdrawnAfterMission 0
scalar OsgEarthNet.uav[23] utilizationCountIdleState 6
scalar OsgEarthNet.uav[23] utilizationFail 0
scalar OsgEarthNet.uav[23] simulationTime 259200
scalar OsgEarthNet.uav[24] utilizationSecMission 37186.129277341
scalar OsgEarthNet.uav[24] utilizationSecMaintenance 20648.428633968
scalar OsgEarthNet.uav[24] utilizationSecCharge 198530
scalar OsgEarthNet.uav[24] utilizationSecIdle 2835.4410886909
scalar OsgEarthNet.uav[24] utilizationEnergyMission 176902.58327103
scalar OsgEarthNet.uav[24] utilizationEnergyMaintenance 97745.076152925
scalar OsgEarthNet.uav[24] utilizationEnergyCharge 275064.36230469
scalar OsgEarthNet.uav[24] utilizationEnergyOverdrawMission 0
scalar OsgEarthNet.uav[24] utilizationEnergyOverdrawMaintenance 0
scalar OsgEarthNet.uav[24] utilizationCountMissions 69
scalar OsgEarthNet.uav[24] utilizationCountManeuversMission 975
scalar OsgEarthNet.uav[24] utilizationCountManeuversMaintenance 139
scalar OsgEarthNet.uav[24] utilizationCountChargeState 69
scalar OsgEarthNet.uav[24] utilizationCountOverdrawnAfterMission 0
scalar OsgEarthNet.uav[24] utilizationCountIdleState 11
scalar OsgEarthNet.uav[24] utilizationFail 0
scalar OsgEarthNet.uav[24] simulationTime 259200
scalar OsgEarthNet.uav[25] utilizationSecMission 41524.600401159
scalar OsgEarthNet.uav[25] utilizationSecMaintenance 20956.82370388
scalar OsgEarthNet.uav[25] utilizationSecCharge 194364.68598248
scalar OsgEarthNet.uav[25] utilizationSecIdle 2353.8889124778
scalar OsgEarthNet.uav[25] utilizationEnergyMission 199524.13776779
scalar OsgEarthNet.uav[25] utilizationEnergyMaintenance 98716.298294067
scalar OsgEarthNet.uav[25] utilizationEnergyCharge 295081.70605469
scalar OsgEarthNet.uav[25] utilizationEnergyOverdrawMission 0
scalar OsgEarthNet.uav[25] utilizationEnergyOverdrawMaintenance 0
scalar OsgEarthNet.uav[25] utilizationCountMissions 67
scalar OsgEarthNet.uav[25] utilizationCountManeuversMission 1140
scalar OsgEarthNet.uav[25] utilizationCountManeuversMaintenance 134
scalar OsgEarthNet.uav[25] utilizationCountChargeState 67
scalar OsgEarthNet.uav[25] utilizationCountOverdrawnAfterMission 0
scalar OsgEarthNet.uav[25] utilizationCountIdleState 3
scalar OsgEarthNet.uav[25] utilizationFail 0
scalar OsgEarthNet.uav[25] simulationTime 259200
scalar OsgEarthNet.uav[26] utilizationSecMission 36897.599671413
scalar OsgEarthNet.uav[26] utilizationSecMaintenance 21662.485316214
scalar OsgEarthNet.uav[26] utilizationSecCharge 197747.90801237
scalar OsgEarthNet.uav[26] utilizationSecIdle 2892.006
scalar OsgEarthNet.uav[26] utilizationEnergyMission 176758.43946457
scalar OsgEarthNet.uav[26] utilizationEnergyMaintenance 102322.42720032
scalar OsgEarthNet.uav[26] utilizationEnergyCharge 278490.35864258
scalar OsgEarthNet.uav[26] utilizationEnergyOverdrawMission 0
scalar OsgEarthNet.uav[26] utilizationEnergyOverdrawMaintenance 0
scalar OsgEarthNet.uav[26] utilizationCountMissions 68
scalar OsgEarthNet.uav[26] utilizationCountManeuversMission 1100
scalar OsgEarthNet.uav[26] utilizationCountManeuversMaintenance 136
scalar OsgEarthNet.uav[26] utilizationCountChargeState 68
scalar OsgEarthNet.uav[26] utilizationCountOverdrawnAfterMission 0
scalar OsgEarthNet.uav[26] utilizationCountIdleState 5
scalar OsgEarthNet.uav[26] utilizationFail 0
scalar OsgEarthNet.uav[26] simulationTime 259200
scalar OsgEarthNet.uav[27] utilizationSecMission 40326.889147199
scalar OsgEarthNet.uav[27] utilizationSecMaintenance 20147.926144836
scalar OsgEarthNet.uav[27] utilizationSecCharge 198403.18370797
scalar OsgEarthNet.uav[27] utilizationSecIdle 322
scalar OsgEarthNet.uav[27] utilizationEnergyMission 194621.54916763
scalar OsgEarthNet.uav[27] utilizationEnergyMaintenance 94186.899242401
scalar OsgEarthNet.uav[27] utilizationEnergyCharge 290072.08959961
scalar OsgEarthNet.uav[27] utilizationEnergyOverdrawMission 0
scalar OsgEarthNet.uav[27] utilizationEnergyOverdrawMaintenance 0
scalar OsgEarthNet.uav[27] utilizationCountMissions 68
scalar OsgEarthNet.uav[27] utilizationCountManeuversMission 1267
scalar OsgEarthNet.uav[27] utilizationCountManeuversMaintenance 135
scalar OsgEarthNet.uav[27] utilizationCountChargeState 68
scalar OsgEarthNet.uav[27] utilizationCountOverdrawnAfterMission 0
scalar OsgEarthNet.uav[27] utilizationCountIdleState 5
scalar OsgEarthNet.uav[27] utilizationFail 0
scalar OsgEarthNet.uav[27] simulationTime 259200
scalar OsgEarthNet.uav[28] utilizationSecMission 44213.464710111
scalar OsgEarthNet.uav[28] utilizationSecMaintenance 19184.534289889
scalar OsgEarthNet.uav[28] utilizationSecCharge 195800
scalar OsgEarthNet.uav[28] utilizationSecIdle 2
scalar OsgEarthNet.uav[28] utilizationEnergyMission 214650.56220375
scalar OsgEarthNet.uav[28] utilizationEnergyMaintenance 87774.615924835
scalar OsgEarthNet.uav[28] utilizationEnergyCharge 301825.52246094
scalar OsgEarthNet.uav[28] utilizationEnergyOverdrawMission 0
scalar OsgEarthNet.uav[28] utilizationEnergyOverdrawMaintenance 0
scalar OsgEarthNet.uav[28] utilizationCountMissions 67
scalar OsgEarthNet.uav[28] utilizationCountManeuversMission 1416
scalar OsgEarthNet.uav[28] utilizationCountManeuversMaintenance 134
scalar OsgEarthNet.uav[28] utilizationCountChargeState 67
scalar OsgEarthNet.uav[28] utilizationCountOverdrawnAfterMission 0
scalar OsgEarthNet.uav[28] utilizationCountIdleState 1
scalar OsgEarthNet.uav[28] utilizationFail 0
scalar OsgEarthNet.uav[28] simulationTime 259200
scalar OsgEarthNet.uav[29] utilizationSecMission 37475.282132782
scalar OsgEarthNet.uav[29] utilizationSecMaintenance 20512.709867218
scalar OsgEarthNet.uav[29] utilizationSecCharge 197540
scalar OsgEarthNet.uav[29] utilizationSecIdle 3672.007
scalar OsgEarthNet.uav[29] utilizationEnergyMission 180951.81360837
scalar OsgEarthNet.uav[29] utilizationEnergyMaintenance 97804.398471832
scalar OsgEarthNet.uav[29] utilizationEnergyCharge 276810.25073242
scalar OsgEarthNet.uav[29] utilizationEnergyOverdrawMission 0
scalar OsgEarthNet.uav[29] utilizationEnergyOverdrawMaintenance 0
scalar OsgEarthNet.uav[29] utilizationCountMissions 67
scalar OsgEarthNet.uav[29] utilizationCountManeuversMission 1054
scalar OsgEarthNet.uav[29] utilizationCountManeuversMaintenance 135
scalar OsgEarthNet.uav[29] utilizationCountChargeState 67
scalar OsgEarthNet.uav[29] utilizationCountOverdrawnAfterMission 0
scalar OsgEarthNet.uav[29] utilizationCountIdleState 5
scalar OsgEarthNet.uav[29] utilizationFail 0
scalar OsgEarthNet.uav[29] simulationTime 259200
scalar OsgEarthNet.uav[30] utilizationSecMission 36251.593113319
scalar OsgEarthNet.uav[30] utilizationSecMaintenance 21307.114031382
scalar OsgEarthNet.uav[30] utilizationSecCharge 198459.50575278
scalar OsgEarthNet.uav[30] utilizationSecIdle 3181.7861025228
scalar OsgEarthNet.uav[30] utilizationEnergyMission 176180.02590942
scalar OsgEarthNet.uav[30] utilizationEnergyMaintenance 101320.20524979
scalar OsgEarthNet.uav[30] utilizationEnergyCharge 275402.7121582
scalar OsgEarthNet.uav[30] utilizationEnergyOverdrawMission 0
scalar OsgEarthNet.uav[30] utilizationEnergyOverdrawMaintenance 0
scalar OsgEarthNet.uav[30] utilizationCountMissions 70
scalar OsgEarthNet.uav[30] utilizationCountManeuversMission 996
scalar OsgEarthNet.uav[30] utilizationCountManeuversMaintenance 140
scalar OsgEarthNet.uav[30] utilizationCountChargeState 70
scalar OsgEarthNet.uav[30] utilizationCountOverdrawnAfterMission 0
scalar OsgEarthNet.uav[30] utilizationCountIdleState 3
scalar OsgEarthNet.uav[30] utilizationFail 0
scalar OsgEarthNet.uav[30] simulationTime 259200
scalar OsgEarthNet.uav[31] utilizationSecMission 37562.748608025
scalar OsgEarthNet.uav[31] utilizationSecMaintenance 22035.185949965
scalar OsgEarthNet.uav[31] utilizationSecCharge 196972.2642234
scalar OsgEarthNet.uav[31] utilizationSecIdle 2629.8002186065
scalar OsgEarthNet.uav[31] utilizationEnergyMission 181550.85700607
scalar OsgEarthNet.uav[31] utilizationEnergyMaintenance 105194.57331085
scalar OsgEarthNet.uav[31] utilizationEnergyCharge 282130.13012695
scalar OsgEarthNet.uav[31] utilizationEnergyOverdrawMission 0
scalar OsgEarthNet.uav[31] utilizationEnergyOverdrawMaintenance 0
scalar OsgEarthNet.uav[31] utilizationCountMissions 69
scalar OsgEarthNet.uav[31] utilizationCountManeuversMission 1104
scalar OsgEarthNet.uav[31] utilizationCountManeuversMaintenance 138
scalar OsgEarthNet.uav[31] utilizationCountChargeState 69
scalar OsgEarthNet.uav[31] utilizationCountOverdrawnAfterMission 0
scalar OsgEarthNet.uav[31] utilizationCountIdleState 3
scalar OsgEarthNet.uav[31] utilizationFail 0
scalar OsgEarthNet.uav[31] simulationTime 259200
scalar OsgEarthNet.uav[32] utilizationSecMission 43969.212903742
scalar OsgEarthNet.uav[32] utilizationSecMaintenance 18796.637078982
scalar OsgEarthNet.uav[32] utilizationSecCharge 194962.69605856
scalar OsgEarthNet.uav[32] utilizationSecIdle 1471.4529587171
scalar OsgEarthNet.uav[32] utilizationEnergyMission 215141.81213379
scalar OsgEarthNet.uav[32] utilizationEnergyMaintenance 86623.434894562
scalar OsgEarthNet.uav[32] utilizationEnergyCharge 294631.42004395
scalar OsgEarthNet.uav[32] utilizationEnergyOverdrawMission 0
scalar OsgEarthNet.uav[32] utilizationEnergyOverdrawMaintenance 0
scalar OsgEarthNet.uav[32] utilizationCountMissions 66
scalar OsgEarthNet.uav[32] utilizationCountManeuversMission 1391
scalar OsgEarthNet.uav[32] utilizationCountManeuversMaintenance 132
scalar OsgEarthNet.uav[32] utilizationCountChargeState 66
scalar OsgEarthNet.uav[32] utilizationCountOverdrawnAfterMission 0
scalar OsgEarthNet.uav[32] utilizationCountIdleState 1
scalar OsgEarthNet.uav[32] utilizationFail 0
scalar OsgEarthNet.uav[32] simulationTime 259200
scalar OsgEarthNet.uav[33] utilizationSecMission 36440.496905779
scalar OsgEarthNet.uav[33] utilizationSecMaintenance 25805.731903796
scalar OsgEarthNet.uav[33] utilizationSecCharge 193278.52293542
scalar OsgEarthNet.uav[33] utilizationSecIdle 3675.2472549995
scalar OsgEarthNet.uav[33] utilizationEnergyMission 179250.28979111
scalar OsgEarthNet.uav[33] utilizationEnergyMaintenance 123378.16389847
scalar OsgEarthNet.uav[33] utilizationEnergyCharge 299607.52243042
scalar OsgEarthNet.uav[33] utilizationEnergyOverdrawMission 0
scalar OsgEarthNet.uav[33] utilizationEnergyOverdrawMaintenance 0
scalar OsgEarthNet.uav[33] utilizationCountMissions 69
scalar OsgEarthNet.uav[33] utilizationCountManeuversMission 1275
scalar OsgEarthNet.uav[33] utilizationCountManeuversMaintenance 138
scalar OsgEarthNet.uav[33] utilizationCountChargeState 69
scalar OsgEarthNet.uav[33] utilizationCountOverdrawnAfterMission 0
scalar OsgEarthNet.uav[33] utilizationCountIdleState 5
scalar OsgEarthNet.uav[33] utilizationFail 0
scalar OsgEarthNet.uav[33] simulationTime 259200
scalar OsgEarthNet.uav[34] utilizationSecMission 39635.10573916
scalar OsgEarthNet.uav[34] utilizationSecMaintenance 20985.438181168
scalar OsgEarthNet.uav[34] utilizationSecCharge 196122.13899784
scalar OsgEarthNet.uav[34] utilizationSecIdle 2457.3160818306
scalar OsgEarthNet.uav[34] utilizationEnergyMission 190257.72740555
scalar OsgEarthNet.uav[34] utilizationEnergyMaintenance 99696.684547424
scalar OsgEarthNet.uav[34] utilizationEnergyCharge 286231.4152832
scalar OsgEarthNet.uav[34] utilizationEnergyOverdrawMission 0
scalar OsgEarthNet.uav[34] utilizationEnergyOverdrawMaintenance 0
scalar OsgEarthNet.uav[34] utilizationCountMissions 69
scalar OsgEarthNet.uav[34] utilizationCountManeuversMission 1220
scalar OsgEarthNet.uav[34] utilizationCountManeuversMaintenance 138
scalar OsgEarthNet.uav[34] utilizationCountChargeState 69
scalar OsgEarthNet.uav[34] utilizationCountOverdrawnAfterMission 0
scalar OsgEarthNet.uav[34] utilizationCountIdleState 2
scalar OsgEarthNet.uav[34] utilizationFail 0
scalar OsgEarthNet.uav[34] simulationTime 259200
scalar OsgEarthNet.uav[35] utilizationSecMission 38859.116827756
scalar OsgEarthNet.uav[35] utilizationSecMaintenance 23946.715804627
scalar OsgEarthNet.uav[35] utilizationSecCharge 194902.16436762
scalar OsgEarthNet.uav[35] utilizationSecIdle 1492.002
scalar OsgEarthNet.uav[35] utilizationEnergyMission 190635.54808426
scalar OsgEarthNet.uav[35] utilizationEnergyMaintenance 112778.53528595
scalar OsgEarthNet.uav[35] utilizationEnergyCharge 300295.87213135
scalar OsgEarthNet.uav[35] utilizationEnergyOverdrawMission 0
scalar OsgEarthNet.uav[35] utilizationEnergyOverdrawMaintenance 0
scalar OsgEarthNet.uav[35] utilizationCountMissions 70
scalar OsgEarthNet.uav[35] utilizationCountManeuversMission 1229
scalar OsgEarthNet.uav[35] utilizationCountManeuversMaintenance 140
scalar OsgEarthNet.uav[35] utilizationCountChargeState 70
scalar OsgEarthNet.uav[35] utilizationCountOverdrawnAfterMission 0
scalar OsgEarthNet.uav[35] utilizationCountIdleState 2
scalar OsgEarthNet.uav[35] utilizationFail 0
scalar OsgEarthNet.uav[35] simulationTime 259200
scalar OsgEarthNet.uav[36] utilizationSecMission 44139.685036753
scalar OsgEarthNet.uav[36] utilizationSecMaintenance 17945.50876594
scalar OsgEarthNet.uav[36] utilizationSecCharge 194043.85594164
scalar OsgEarthNet.uav[36] utilizationSecIdle 3070.9492556647
scalar OsgEarthNet.uav[36] utilizationEnergyMission 215069.34172058
scalar OsgEarthNet.uav[36] utilizationEnergyMaintenance 82416.448234558
scalar OsgEarthNet.uav[36] utilizationEnergyCharge 294249.7711792
scalar OsgEarthNet.uav[36] utilizationEnergyOverdrawMission 0
scalar OsgEarthNet.uav[36] utilizationEnergyOverdrawMaintenance 0
scalar OsgEarthNet.uav[36] utilizationCountMissions 66
scalar OsgEarthNet.uav[36] utilizationCountManeuversMission 1490
scalar OsgEarthNet.uav[36] utilizationCountManeuversMaintenance 132
scalar OsgEarthNet.uav[36] utilizationCountChargeState 66
scalar OsgEarthNet.uav[36] utilizationCountOverdrawnAfterMission 0
scalar OsgEarthNet.uav[36] utilizationCountIdleState 2
scalar OsgEarthNet.uav[36] utilizationFail 0
scalar OsgEarthNet.uav[36] simulationTime 259200
scalar OsgEarthNet.uav[37] utilizationSecMission 36958.323805142
scalar OsgEarthNet.uav[37] utilizationSecMaintenance 20979.670194858
scalar OsgEarthNet.uav[37] utilizationSecCharge 198460
scalar OsgEarthNet.uav[37] utilizationSecIdle 2802.005
scalar OsgEarthNet.uav[37] utilizationEnergyMission 178806.69201204
scalar OsgEarthNet.uav[37] utilizationEnergyMaintenance 99772.439823151
scalar OsgEarthNet.uav[37] utilizationEnergyCharge 278158.45825195
scalar OsgEarthNet.uav[37] utilizationEnergyOverdrawMission 0
scalar OsgEarthNet.uav[37] utilizationEnergyOverdrawMaintenance 0
scalar OsgEarthNet.uav[37] utilizationCountMissions 67
scalar OsgEarthNet.uav[37] utilizationCountManeuversMission 1093
scalar OsgEarthNet.uav[37] utilizationCountManeuversMaintenance 135
scalar OsgEarthNet.uav[37] utilizationCountChargeState 67
scalar OsgEarthNet.uav[37] utilizationCountOverdrawnAfterMission 0
scalar OsgEarthNet.uav[37] utilizationCountIdleState 7
scalar OsgEarthNet.uav[37] utilizationFail 0
scalar OsgEarthNet.uav[37] simulationTime 259200
scalar OsgEarthNet.uav[38] utilizationSecMission 42947.304225047
scalar OsgEarthNet.uav[38] utilizationSecMaintenance 19978.152431883
scalar OsgEarthNet.uav[38] utilizationSecCharge 195572.54134307
scalar OsgEarthNet.uav[38] utilizationSecIdle 702.001
scalar OsgEarthNet.uav[38] utilizationEnergyMission 208276.73186874
scalar OsgEarthNet.uav[38] utilizationEnergyMaintenance 91310.305774689
scalar OsgEarthNet.uav[38] utilizationEnergyCharge 300715.04638672
scalar OsgEarthNet.uav[38] utilizationEnergyOverdrawMission 0
scalar OsgEarthNet.uav[38] utilizationEnergyOverdrawMaintenance 0
scalar OsgEarthNet.uav[38] utilizationCountMissions 67
scalar OsgEarthNet.uav[38] utilizationCountManeuversMission 1445
scalar OsgEarthNet.uav[38] utilizationCountManeuversMaintenance 134
scalar OsgEarthNet.uav[38] utilizationCountChargeState 67
scalar OsgEarthNet.uav[38] utilizationCountOverdrawnAfterMission 0
scalar OsgEarthNet.uav[38] utilizationCountIdleState 1
scalar OsgEarthNet.uav[38] utilizationFail 0
scalar OsgEarthNet.uav[38] simulationTime 259200
scalar OsgEarthNet.uav[39] utilizationSecMission 38120.877285373
scalar OsgEarthNet.uav[39] utilizationSecMaintenance 20736.620411122
scalar OsgEarthNet.uav[39] utilizationSecCharge 197680.4963035
scalar OsgEarthNet.uav[39] utilizationSecIdle 2662.005
scalar OsgEarthNet.uav[39] utilizationEnergyMission 181597.93246841
scalar OsgEarthNet.uav[39] utilizationEnergyMaintenance 98663.542037964
scalar OsgEarthNet.uav[39] utilizationEnergyCharge 280415.44042969
scalar OsgEarthNet.uav[39] utilizationEnergyOverdrawMission 0
scalar OsgEarthNet.uav[39] utilizationEnergyOverdrawMaintenance 0
scalar OsgEarthNet.uav[39] utilizationCountMissions 68
scalar OsgEarthNet.uav[39] utilizationCountManeuversMission 1025
scalar OsgEarthNet.uav[39] utilizationCountManeuversMaintenance 136
scalar OsgEarthNet.uav[39] utilizationCountChargeState 68
scalar OsgEarthNet.uav[39] utilizationCountOverdrawnAfterMission 0
scalar OsgEarthNet.uav[39] utilizationCountIdleState 4
scalar OsgEarthNet.uav[39] utilizationFail 0
scalar OsgEarthNet.uav[39] simulationTime 259200
scalar OsgEarthNet.uav[40] utilizationSecMission 36689.814467029
scalar OsgEarthNet.uav[40] utilizationSecMaintenance 25505.416498673
scalar OsgEarthNet.uav[40] utilizationSecCharge 193892.98203925
scalar OsgEarthNet.uav[40] utilizationSecIdle 3111.7859950476
scalar OsgEarthNet.uav[40] utilizationEnergyMission 178515.98559189
scalar OsgEarthNet.uav[40] utilizationEnergyMaintenance 121115.63568878
scalar OsgEarthNet.uav[40] utilizationEnergyCharge 298641.72680664
scalar OsgEarthNet.uav[40] utilizationEnergyOverdrawMission 0
scalar OsgEarthNet.uav[40] utilizationEnergyOverdrawMaintenance 0
scalar OsgEarthNet.uav[40] utilizationCountMissions 69
scalar OsgEarthNet.uav[40] utilizationCountManeuversMission 1243
scalar OsgEarthNet.uav[40] utilizationCountManeuversMaintenance 138
scalar OsgEarthNet.uav[40] utilizationCountChargeState 69
scalar OsgEarthNet.uav[40] utilizationCountOverdrawnAfterMission 0
scalar OsgEarthNet.uav[40] utilizationCountIdleState 2
scalar OsgEarthNet.uav[40] utilizationFail 0
scalar OsgEarthNet.uav[40] simulationTime 259200
scalar OsgEarthNet.uav[41] utilizationSecMission 36620.34814312
scalar OsgEarthNet.uav[41] utilizationSecMaintenance 21851.201900292
scalar OsgEarthNet.uav[41] utilizationSecCharge 199506.44744987
scalar OsgEarthNet.uav[41] utilizationSecIdle 1222.0015067221
scalar OsgEarthNet.uav[41] utilizationEnergyMission 175874.93722916
scalar OsgEarthNet.uav[41] utilizationEnergyMaintenance 103941.11950684
scalar OsgEarthNet.uav[41] utilizationEnergyCharge 277463.24511719
scalar OsgEarthNet.uav[41] utilizationEnergyOverdrawMission 0
scalar OsgEarthNet.uav[41] utilizationEnergyOverdrawMaintenance 0
scalar OsgEarthNet.uav[41] utilizationCountMissions 71
scalar OsgEarthNet.uav[41] utilizationCountManeuversMission 1015
scalar OsgEarthNet.uav[41] utilizationCountManeuversMaintenance 142
scalar OsgEarthNet.uav[41] utilizationCountChargeState 71
scalar OsgEarthNet.uav[41] utilizationCountOverdrawnAfterMission 0
scalar OsgEarthNet.uav[41] utilizationCountIdleState 6
scalar OsgEarthNet.uav[41] utilizationFail 0
scalar OsgEarthNet.uav[41] simulationTime 259200
scalar OsgEarthNet.uav[42] utilizationSecMission 39781.611506807
scalar OsgEarthNet.uav[42] utilizationSecMaintenance 22164.704306591
scalar OsgEarthNet.uav[42] utilizationSecCharge 195890
scalar OsgEarthNet.uav[42] utilizationSecIdle 1363.683186602
scalar OsgEarthNet.uav[42] utilizationEnergyMission 197115.84578323
scalar OsgEarthNet.uav[42] utilizationEnergyMaintenance 104193.51371805
scalar OsgEarthNet.uav[42] utilizationEnergyCharge 297709.79394531
scalar OsgEarthNet.uav[42] utilizationEnergyOverdrawMission 0
scalar OsgEarthNet.uav[42] utilizationEnergyOverdrawMaintenance 0
scalar OsgEarthNet.uav[42] utilizationCountMissions 69
scalar OsgEarthNet.uav[42] utilizationCountManeuversMission 1412
scalar OsgEarthNet.uav[42] utilizationCountManeuversMaintenance 138
scalar OsgEarthNet.uav[42] utilizationCountChargeState 68
scalar OsgEarthNet.uav[42] utilizationCountOverdrawnAfterMission 0
scalar OsgEarthNet.uav[42] utilizationCountIdleState 1
scalar OsgEarthNet.uav[42] utilizationFail 0
scalar OsgEarthNet.uav[42] simulationTime 259200
scalar OsgEarthNet.uav[43] utilizationSecMission 41807.320968232
scalar OsgEarthNet.uav[43] utilizationSecMaintenance 20962.148256008
scalar OsgEarthNet.uav[43] utilizationSecCharge 196428.52977576
scalar OsgEarthNet.uav[43] utilizationSecIdle 2
scalar OsgEarthNet.uav[43] utilizationEnergyMission 202275.18806076
scalar OsgEarthNet.uav[43] utilizationEnergyMaintenance 97508.548519134
scalar OsgEarthNet.uav[43] utilizationEnergyCharge 303492.75244141
scalar OsgEarthNet.uav[43] utilizationEnergyOverdrawMission 0
scalar OsgEarthNet.uav[43] utilizationEnergyOverdrawMaintenance 0
scalar OsgEarthNet.uav[43] utilizationCountMissions 68
scalar OsgEarthNet.uav[43] utilizationCountManeuversMission 1441
scalar OsgEarthNet.uav[43] utilizationCountManeuversMaintenance 135
scalar OsgEarthNet.uav[43] utilizationCountChargeState 68
scalar OsgEarthNet.uav[43] utilizationCountOverdrawnAfterMission 0
scalar OsgEarthNet.uav[43] utilizationCountIdleState 1
scalar OsgEarthNet.uav[43] utilizationFail 0
scalar OsgEarthNet.uav[43] simulationTime 259200
scalar OsgEarthNet.uav[44] utilizationSecMission 38845.682879917
scalar OsgEarthNet.uav[44] utilizationSecMaintenance 20100.080098706
scalar OsgEarthNet.uav[44] utilizationSecCharge 198472.23402138
scalar OsgEarthNet.uav[44] utilizationSecIdle 1782.002
scalar OsgEarthNet.uav[44] utilizationEnergyMission 186066.30910492
scalar OsgEarthNet.uav[44] utilizationEnergyMaintenance 95987.966342926
scalar OsgEarthNet.uav[44] utilizationEnergyCharge 278330.32128906
scalar OsgEarthNet.uav[44] utilizationEnergyOverdrawMission 0
scalar OsgEarthNet.uav[44] utilizationEnergyOverdrawMaintenance 0
scalar OsgEarthNet.uav[44] utilizationCountMissions 66
scalar OsgEarthNet.uav[44] utilizationCountManeuversMission 1113
scalar OsgEarthNet.uav[44] utilizationCountManeuversMaintenance 132
scalar OsgEarthNet.uav[44] utilizationCountChargeState 66
scalar OsgEarthNet.uav[44] utilizationCountOverdrawnAfterMission 0
scalar OsgEarthNet.uav[44] utilizationCountIdleState 11
scalar OsgEarthNet.uav[44] utilizationFail 0
scalar OsgEarthNet.uav[44] simulationTime 259200
scalar OsgEarthNet.uav[45] utilizationSecMission 44748.754832828
scalar OsgEarthNet.uav[45] utilizationSecMaintenance 18638.833520339
scalar OsgEarthNet.uav[45] utilizationSecCharge 193990.73759745
scalar OsgEarthNet.uav[45] utilizationSecIdle 1821.673049383
scalar OsgEarthNet.uav[45] utilizationEnergyMission 216925.21987534
scalar OsgEarthNet.uav[45] utilizationEnergyMaintenance 85691.051376343
scalar OsgEarthNet.uav[45] utilizationEnergyCharge 297089.16363525
scalar OsgEarthNet.uav[45] utilizationEnergyOverdrawMission 0
scalar OsgEarthNet.uav[45] utilizationEnergyOverdrawMaintenance 0
scalar OsgEarthNet.uav[45] utilizationCountMissions 67
scalar OsgEarthNet.uav[45] utilizationCountManeuversMission 1394
scalar OsgEarthNet.uav[45] utilizationCountManeuversMaintenance 134
scalar OsgEarthNet.uav[45] utilizationCountChargeState 67
scalar OsgEarthNet.uav[45] utilizationCountOverdrawnAfterMission 0
scalar OsgEarthNet.uav[45] utilizationCountIdleState 2
scalar OsgEarthNet.uav[45] utilizationFail 0
scalar OsgEarthNet.uav[45] simulationTime 259200
scalar OsgEarthNet.uav[46] utilizationSecMission 40080.211912717
scalar OsgEarthNet.uav[46] utilizationSecMaintenance 22339.714950911
scalar OsgEarthNet.uav[46] utilizationSecCharge 195076.81981479
scalar OsgEarthNet.uav[46] utilizationSecIdle 1703.2523215786
scalar OsgEarthNet.uav[46] utilizationEnergyMission 195255.4961319
scalar OsgEarthNet.uav[46] utilizationEnergyMaintenance 105945.40301514
scalar OsgEarthNet.uav[46] utilizationEnergyCharge 297711.07250977
scalar OsgEarthNet.uav[46] utilizationEnergyOverdrawMission 0
scalar OsgEarthNet.uav[46] utilizationEnergyOverdrawMaintenance 0
scalar OsgEarthNet.uav[46] utilizationCountMissions 68
scalar OsgEarthNet.uav[46] utilizationCountManeuversMission 1280
scalar OsgEarthNet.uav[46] utilizationCountManeuversMaintenance 136
scalar OsgEarthNet.uav[46] utilizationCountChargeState 68
scalar OsgEarthNet.uav[46] utilizationCountOverdrawnAfterMission 0
scalar OsgEarthNet.uav[46] utilizationCountIdleState 3
scalar OsgEarthNet.uav[46] utilizationFail 0
scalar OsgEarthNet.uav[46] simulationTime 259200
scalar OsgEarthNet.uav[47] utilizationSecMission 38105.02122587
scalar OsgEarthNet.uav[47] utilizationSecMaintenance 20619.367038945
scalar OsgEarthNet.uav[47] utilizationSecCharge 199740.99884567
scalar OsgEarthNet.uav[47] utilizationSecIdle 734.61188951643
scalar OsgEarthNet.uav[47] utilizationEnergyMission 182081.52254486
scalar OsgEarthNet.uav[47] utilizationEnergyMaintenance 98500.763557434
scalar OsgEarthNet.uav[47] utilizationEnergyCharge 278229.96411133
scalar OsgEarthNet.uav[47] utilizationEnergyOverdrawMission 0
scalar OsgEarthNet.uav[47] utilizationEnergyOverdrawMaintenance 0
scalar OsgEarthNet.uav[47] utilizationCountMissions 69
scalar OsgEarthNet.uav[47] utilizationCountManeuversMission 1030
scalar OsgEarthNet.uav[47] utilizationCountManeuversMaintenance 138
scalar OsgEarthNet.uav[47] utilizationCountChargeState 69
scalar OsgEarthNet.uav[47] utilizationCountOverdrawnAfterMission 0
scalar OsgEarthNet.uav[47] utilizationCountIdleState 8
scalar OsgEarthNet.uav[47] utilizationFail 0
scalar OsgEarthNet.uav[47] simulationTime 259200
scalar OsgEarthNet.uav[48] utilizationSecMission 40781.776774223
scalar OsgEarthNet.uav[48] utilizationSecMaintenance 22239.588953928
scalar OsgEarthNet.uav[48] utilizationSecCharge 194596.63027185
scalar OsgEarthNet.uav[48] utilizationSecIdle 1582.003
scalar OsgEarthNet.uav[48] utilizationEnergyMission 198376.26595688
scalar OsgEarthNet.uav[48] utilizationEnergyMaintenance 103673.08683777
scalar OsgEarthNet.uav[48] utilizationEnergyCharge 300801.91162109
scalar OsgEarthNet.uav[48] utilizationEnergyOverdrawMission 0
scalar OsgEarthNet.uav[48] utilizationEnergyOverdrawMaintenance 0
scalar OsgEarthNet.uav[48] utilizationCountMissions 68
scalar OsgEarthNet.uav[48] utilizationCountManeuversMission 1333
scalar OsgEarthNet.uav[48] utilizationCountManeuversMaintenance 136
scalar OsgEarthNet.uav[48] utilizationCountChargeState 68
scalar OsgEarthNet.uav[48] utilizationCountOverdrawnAfterMission 0
scalar OsgEarthNet.uav[48] utilizationCountIdleState 1
scalar OsgEarthNet.uav[48] utilizationFail 0
scalar OsgEarthNet.uav[48] simulationTime 259200
scalar OsgEarthNet.uav[49] utilizationSecMission 40566.371720994
scalar OsgEarthNet.uav[49] utilizationSecMaintenance 21707.140724087
scalar OsgEarthNet.uav[49] utilizationSecCharge 196504.48555492
scalar OsgEarthNet.uav[49] utilizationSecIdle 422.001
scalar OsgEarthNet.uav[49] utilizationEnergyMission 195720.82390976
scalar OsgEarthNet.uav[49] utilizationEnergyMaintenance 101498.70110702
scalar OsgEarthNet.uav[49] utilizationEnergyCharge 295558.25756836
scalar OsgEarthNet.uav[49] utilizationEnergyOverdrawMission 0
scalar OsgEarthNet.uav[49] utilizationEnergyOverdrawMaintenance 0
scalar OsgEarthNet.uav[49] utilizationCountMissions 69
scalar OsgEarthNet.uav[49] utilizationCountManeuversMission 1237
scalar OsgEarthNet.uav[49] utilizationCountManeuversMaintenance 138
scalar OsgEarthNet.uav[49] utilizationCountChargeState 69
scalar OsgEarthNet.uav[49] utilizationCountOverdrawnAfterMission 0
scalar OsgEarthNet.uav[49] utilizationCountIdleState 1
scalar OsgEarthNet.uav[49] utilizationFail 0
scalar OsgEarthNet.uav[49] simulationTime 259200
scalar OsgEarthNet.uav[50] utilizationSecMission 35137.801779249
scalar OsgEarthNet.uav[50] utilizationSecMaintenance 23207.448070961
scalar OsgEarthNet.uav[50] utilizationSecCharge 197877.47521701
scalar OsgEarthNet.uav[50] utilizationSecIdle 2977.2739327774
scalar OsgEarthNet.uav[50] utilizationEnergyMission 169316.41142273
scalar OsgEarthNet.uav[50] utilizationEnergyMaintenance 109731.69420242
scalar OsgEarthNet.uav[50] utilizationEnergyCharge 281367.43188477
scalar OsgEarthNet.uav[50] utilizationEnergyOverdrawMission 0
scalar OsgEarthNet.uav[50] utilizationEnergyOverdrawMaintenance 0
scalar OsgEarthNet.uav[50] utilizationCountMissions 70
scalar OsgEarthNet.uav[50] utilizationCountManeuversMission 1071
scalar OsgEarthNet.uav[50] utilizationCountManeuversMaintenance 140
scalar OsgEarthNet.uav[50] utilizationCountChargeState 70
scalar OsgEarthNet.uav[50] utilizationCountOverdrawnAfterMission 0
scalar OsgEarthNet.uav[50] utilizationCountIdleState 4
scalar OsgEarthNet.uav[50] utilizationFail 0
scalar OsgEarthNet.uav[50] simulationTime 259200
scalar OsgEarthNet.uav[51] utilizationSecMission 41685.603878426
scalar OsgEarthNet.uav[51] utilizationSecMaintenance 21078.953032883
scalar OsgEarthNet.uav[51] utilizationSecCharge 194190
scalar OsgEarthNet.uav[51] utilizationSecIdle 2245.4420886909
scalar OsgEarthNet.uav[51] utilizationEnergyMission 203980.23633622
scalar OsgEarthNet.uav[51] utilizationEnergyMaintenance 97925.921463013
scalar OsgEarthNet.uav[51] utilizationEnergyCharge 299069.69067383
scalar OsgEarthNet.uav[51] utilizationEnergyOverdrawMission 0
scalar OsgEarthNet.uav[51] utilizationEnergyOverdrawMaintenance 0
scalar OsgEarthNet.uav[51] utilizationCountMissions 67
scalar OsgEarthNet.uav[51] utilizationCountManeuversMission 1302
scalar OsgEarthNet.uav[51] utilizationCountManeuversMaintenance 135
scalar OsgEarthNet.uav[51] utilizationCountChargeState 67
scalar OsgEarthNet.uav[51] utilizationCountOverdrawnAfterMission 0
scalar OsgEarthNet.uav[51] utilizationCountIdleState 1
scalar OsgEarthNet.uav[51] utilizationFail 0
scalar OsgEarthNet.uav[51] simulationTime 259200
scalar OsgEarthNet.uav[52] utilizationSecMission 42961.460503216
scalar OsgEarthNet.uav[52] utilizationSecMaintenance 19396.535496784
scalar OsgEarthNet.uav[52] utilizationSecCharge 194760
scalar OsgEarthNet.uav[52] utilizationSecIdle 2082.003
scalar OsgEarthNet.uav[52] utilizationEnergyMission 212322.18385038
scalar OsgEarthNet.uav[52] utilizationEnergyMaintenance 88314.733402252
scalar OsgEarthNet.uav[52] utilizationEnergyCharge 296915.90429688
scalar OsgEarthNet.uav[52] utilizationEnergyOverdrawMission 0
scalar OsgEarthNet.uav[52] utilizationEnergyOverdrawMaintenance 0
scalar OsgEarthNet.uav[52] utilizationCountMissions 66
scalar OsgEarthNet.uav[52] utilizationCountManeuversMission 1582
scalar OsgEarthNet.uav[52] utilizationCountManeuversMaintenance 133
scalar OsgEarthNet.uav[52] utilizationCountChargeState 66
scalar OsgEarthNet.uav[52] utilizationCountOverdrawnAfterMission 0
scalar OsgEarthNet.uav[52] utilizationCountIdleState 1
scalar OsgEarthNet.uav[52] utilizationFail 0
scalar OsgEarthNet.uav[52] simulationTime 259200
scalar OsgEarthNet.uav[53] utilizationSecMission 43481.963220829
scalar OsgEarthNet.uav[53] utilizationSecMaintenance 18612.976395903
scalar OsgEarthNet.uav[53] utilizationSecCharge 196232.43322248
scalar OsgEarthNet.uav[53] utilizationSecIdle 872.62616078931
scalar OsgEarthNet.uav[53] utilizationEnergyMission 211428.13340759
scalar OsgEarthNet.uav[53] utilizationEnergyMaintenance 86624.662464142
scalar OsgEarthNet.uav[53] utilizationEnergyCharge 297547.2409668
scalar OsgEarthNet.uav[53] utilizationEnergyOverdrawMission 0
scalar OsgEarthNet.uav[53] utilizationEnergyOverdrawMaintenance 0
scalar OsgEarthNet.uav[53] utilizationCountMissions 66
scalar OsgEarthNet.uav[53] utilizationCountManeuversMission 1372
scalar OsgEarthNet.uav[53] utilizationCountManeuversMaintenance 132
scalar OsgEarthNet.uav[53] utilizationCountChargeState 66
scalar OsgEarthNet.uav[53] utilizationCountOverdrawnAfterMission 0
scalar OsgEarthNet.uav[53] utilizationCountIdleState 2
scalar OsgEarthNet.uav[53] utilizationFail 0
scalar OsgEarthNet.uav[53] simulationTime 259200
scalar OsgEarthNet.uav[54] utilizationSecMission 39244.977780089
scalar OsgEarthNet.uav[54] utilizationSecMaintenance 21373.276990902
scalar OsgEarthNet.uav[54] utilizationSecCharge 196899.74122901
scalar OsgEarthNet.uav[54] utilizationSecIdle 1682.003
scalar OsgEarthNet.uav[54] utilizationEnergyMission 189758.72707367
scalar OsgEarthNet.uav[54] utilizationEnergyMaintenance 99604.83436203
scalar OsgEarthNet.uav[54] utilizationEnergyCharge 289630.80664062
scalar OsgEarthNet.uav[54] utilizationEnergyOverdrawMission 0
scalar OsgEarthNet.uav[54] utilizationEnergyOverdrawMaintenance 0
scalar OsgEarthNet.uav[54] utilizationCountMissions 69
scalar OsgEarthNet.uav[54] utilizationCountManeuversMission 1342
scalar OsgEarthNet.uav[54] utilizationCountManeuversMaintenance 138
scalar OsgEarthNet.uav[54] utilizationCountChargeState 69
scalar OsgEarthNet.uav[54] utilizationCountOverdrawnAfterMission 0
scalar OsgEarthNet.uav[54] utilizationCountIdleState 2
scalar OsgEarthNet.uav[54] utilizationFail 0
scalar OsgEarthNet.uav[54] simulationTime 259200
scalar OsgEarthNet.uav[55] utilizationSecMission 37082.598704005
scalar OsgEarthNet.uav[55] utilizationSecMaintenance 26225.398295995
scalar OsgEarthNet.uav[55] utilizationSecCharge 194710
scalar OsgEarthNet.uav[55] utilizationSecIdle 1182.002
scalar OsgEarthNet.uav[55] utilizationEnergyMission 181590.95181274
scalar OsgEarthNet.uav[55] utilizationEnergyMaintenance 124822.57946876
scalar OsgEarthNet.uav[55] utilizationEnergyCharge 303003.84765625
scalar OsgEarthNet.uav[55] utilizationEnergyOverdrawMission 0
scalar OsgEarthNet.uav[55] utilizationEnergyOverdrawMaintenance 0
scalar OsgEarthNet.uav[55] utilizationCountMissions 70
scalar OsgEarthNet.uav[55] utilizationCountManeuversMission 1324
scalar OsgEarthNet.uav[55] utilizationCountManeuversMaintenance 140
scalar OsgEarthNet.uav[55] utilizationCountChargeState 69
scalar OsgEarthNet.uav[55] utilizationCountOverdrawnAfterMission 0
scalar OsgEarthNet.uav[55] utilizationCountIdleState 3
scalar OsgEarthNet.uav[55] utilizationFail 0
scalar OsgEarthNet.uav[55] simulationTime 259200
scalar OsgEarthNet.uav[56] utilizationSecMission 36933.58767164
scalar OsgEarthNet.uav[56] utilizationSecMaintenance 22554.41132836
scalar OsgEarthNet.uav[56] utilizationSecCharge 199430
scalar OsgEarthNet.uav[56] utilizationSecIdle 282
scalar OsgEarthNet.uav[56] utilizationEnergyMission 178296.48869324
scalar OsgEarthNet.uav[56] utilizationEnergyMaintenance 106826.15027363
scalar OsgEarthNet.uav[56] utilizationEnergyCharge 285892.55517578
scalar OsgEarthNet.uav[56] utilizationEnergyOverdrawMission 0
scalar OsgEarthNet.uav[56] utilizationEnergyOverdrawMaintenance 0
scalar OsgEarthNet.uav[56] utilizationCountMissions 70
scalar OsgEarthNet.uav[56] utilizationCountManeuversMission 1250
scalar OsgEarthNet.uav[56] utilizationCountManeuversMaintenance 140
scalar OsgEarthNet.uav[56] utilizationCountChargeState 70
scalar OsgEarthNet.uav[56] utilizationCountOverdrawnAfterMission 0
scalar OsgEarthNet.uav[56] utilizationCountIdleState 5
scalar OsgEarthNet.uav[56] utilizationFail 0
scalar OsgEarthNet.uav[56] simulationTime 259200
scalar OsgEarthNet.uav[57] utilizationSecMission 41977.334551807
scalar OsgEarthNet.uav[57] utilizationSecMaintenance 20571.25094883
scalar OsgEarthNet.uav[57] utilizationSecCharge 195919.41249936
scalar OsgEarthNet.uav[57] utilizationSecIdle 732.001
scalar OsgEarthNet.uav[57] utilizationEnergyMission 201905.40476608
scalar OsgEarthNet.uav[57] utilizationEnergyMaintenance 95116.433368683
scalar OsgEarthNet.uav[57] utilizationEnergyCharge 297337.3996582
scalar OsgEarthNet.uav[57] utilizationEnergyOverdrawMission 0
scalar OsgEarthNet.uav[57] utilizationEnergyOverdrawMaintenance 0
scalar OsgEarthNet.uav[57] utilizationCountMissions 67
scalar OsgEarthNet.uav[57] utilizationCountManeuversMission 1298
scalar OsgEarthNet.uav[57] utilizationCountManeuversMaintenance 134
scalar OsgEarthNet.uav[57] utilizationCountChargeState 67
scalar OsgEarthNet.uav[57] utilizationCountOverdrawnAfterMission 0
scalar OsgEarthNet.uav[57] utilizationCountIdleState 2
scalar OsgEarthNet.uav[57] utilizationFail 0
scalar OsgEarthNet.uav[57] simulationTime 259200
scalar OsgEarthNet.cs[0] usedPower 4126564.6993096
scalar OsgEarthNet.cs[0] chargedPower 4126564.6993096
scalar OsgEarthNet.cs[0] chargedMobileNodes 26
scalar OsgEarthNet.cs[0] reservations 948
scalar OsgEarthNet.cs[1] usedPower 5745613.85904
scalar OsgEarthNet.cs[1] chargedPower 5745613.85904
scalar OsgEarthNet.cs[1] chargedMobileNodes 114
scalar OsgEarthNet.cs[1] reservations 1425
scalar OsgEarthNet.cs[2] usedPower 7038137.7322267
scalar OsgEarthNet.cs[2] chargedPower 7038137.7322267
scalar OsgEarthNet.cs[2] chargedMobileNodes 15
scalar OsgEarthNet.cs[2] reservations 1572

