version 2
run Szenario_Hotel_Gabelbach-200-20180719-08:20:30-6740
attr configname Szenario_Hotel_Gabelbach
attr datetime 20180719-08:20:30
attr experiment Szenario_Hotel_Gabelbach
attr inifile omnetpp.ini
attr iterationvars "$replM=2, $biWeight=0.35, $replSearchM=1, $numUAVs=66"
attr iterationvarsf replM=2,biWeight=0.35,replSearchM=1,numUAVs=66-
attr measurement "$replM=2, $biWeight=0.35, $replSearchM=1, $numUAVs=66"
attr network OsgEarthNet
attr processid 6740
attr repetition 8
attr replication #8
attr resultdir results
attr runnumber 200
attr seedset 200
itervar biWeight 0.35
itervar numUAVs 66
itervar replM 2
itervar replSearchM 1
param *.osgEarthScene.scene "\"Szenario_Hotel_Gabelbach.earth\""
param *.playgroundLatitude 50.6830269
param *.playgroundLongitude 10.8538055
param *.playgroundWidth 3500m
param *.playgroundHeight 3500m
param *.cs[0].posX 3537m
param *.cs[0].posY 965m
param *.cs[0].posZ 538m
param *.cs[1].posX 312m
param *.cs[1].posY 1262m
param *.cs[1].posZ 539m
param *.cs[2].posX 2185m
param *.cs[2].posY 3026m
param *.cs[2].posZ 777m
param *.cs[3].posX 10m
param *.cs[3].posY 2200m
param *.cs[3].posZ 560m
param *.cs[4].posX 750m
param *.cs[4].posY 200m
param *.cs[4].posZ 540m
param *.cs[5].posX 2450m
param *.cs[5].posY 180m
param *.cs[5].posZ 524m
param *.cs[6].posX 3140m
param *.cs[6].posY 1790m
param *.cs[6].posZ 606m
param *.numCSs 3
param *.uav[*].replacementMethod 2
param *.uav[*].weightedSumWeight 0.35
param *.missionControl.replacementSearchMethod 1
param *.numUAVs 66
param *.*.timeStep 10s
param *.uav[*].commandPreviewCommandCount 20
param *.missionControl.missionFiles "\"missions\\\\Szenario_WB_Hotel_Gabelbach_Mission_Hotel.waypoints,missions\\\\Szenario_WB_Hotel_Gabelbach_Mission_Kickelhahn.waypoints,missions\\\\Szenario_WB_Hotel_Gabelbach_Mission_Ilmenau_Sportplatz.waypoints,missions\\\\Szenario_WB_Hotel_Gabelbach_Mission_Manebach_Mitte.waypoints,missions\\\\Szenario_WB_Hotel_Gabelbach_Mission_Manebach_Sued.waypoints,missions\\\\Szenario_WB_Hotel_Gabelbach_Hover_HoheSchlaufe.waypoints,missions\\\\Szenario_WB_Hotel_Gabelbach_Hover_Kickelhahn.waypoints,missions\\\\Szenario_WB_Hotel_Gabelbach_Hover_Gabelbachskopf.waypoints,missions\\\\Szenario_WB_Hotel_Gabelbach_Hover_Dachskopf.waypoints\""
param *.uav[0].startX 3537m
param *.uav[0].startY 965m
param *.uav[0].startZ 539m
param *.uav[1].startX 312m
param *.uav[1].startY 1262m
param *.uav[1].startZ 540m
param *.uav[2].startX 2185m
param *.uav[2].startY 3026m
param *.uav[2].startZ 778m
param *.uav[3].startX 3537m
param *.uav[3].startY 965m
param *.uav[3].startZ 539m
param *.uav[4].startX 312m
param *.uav[4].startY 1262m
param *.uav[4].startZ 540m
param *.uav[5].startX 2185m
param *.uav[5].startY 3026m
param *.uav[5].startZ 778m
param *.uav[6].startX 3537m
param *.uav[6].startY 965m
param *.uav[6].startZ 539m
param *.uav[7].startX 312m
param *.uav[7].startY 1262m
param *.uav[7].startZ 540m
param *.uav[8].startX 2185m
param *.uav[8].startY 3026m
param *.uav[8].startZ 778m
param *.uav[9].startX 3537m
param *.uav[9].startY 965m
param *.uav[9].startZ 539m
param *.uav[10].startX 3537m
param *.uav[10].startY 965m
param *.uav[10].startZ 539m
param *.uav[11].startX 312m
param *.uav[11].startY 1262m
param *.uav[11].startZ 540m
param *.uav[12].startX 2185m
param *.uav[12].startY 3026m
param *.uav[12].startZ 778m
param *.uav[13].startX 3537m
param *.uav[13].startY 965m
param *.uav[13].startZ 539m
param *.uav[14].startX 312m
param *.uav[14].startY 1262m
param *.uav[14].startZ 540m
param *.uav[15].startX 2185m
param *.uav[15].startY 3026m
param *.uav[15].startZ 778m
param *.uav[16].startX 3537m
param *.uav[16].startY 965m
param *.uav[16].startZ 539m
param *.uav[17].startX 312m
param *.uav[17].startY 1262m
param *.uav[17].startZ 540m
param *.uav[18].startX 2185m
param *.uav[18].startY 3026m
param *.uav[18].startZ 778m
param *.uav[19].startX 3537m
param *.uav[19].startY 965m
param *.uav[19].startZ 539m
param *.uav[20].startX 3537m
param *.uav[20].startY 965m
param *.uav[20].startZ 539m
param *.uav[21].startX 312m
param *.uav[21].startY 1262m
param *.uav[21].startZ 540m
param *.uav[22].startX 2185m
param *.uav[22].startY 3026m
param *.uav[22].startZ 778m
param *.uav[23].startX 3537m
param *.uav[23].startY 965m
param *.uav[23].startZ 539m
param *.uav[24].startX 312m
param *.uav[24].startY 1262m
param *.uav[24].startZ 540m
param *.uav[25].startX 2185m
param *.uav[25].startY 3026m
param *.uav[25].startZ 778m
param *.uav[26].startX 3537m
param *.uav[26].startY 965m
param *.uav[26].startZ 539m
param *.uav[27].startX 312m
param *.uav[27].startY 1262m
param *.uav[27].startZ 540m
param *.uav[28].startX 2185m
param *.uav[28].startY 3026m
param *.uav[28].startZ 778m
param *.uav[29].startX 3537m
param *.uav[29].startY 965m
param *.uav[29].startZ 539m
param *.uav[30].startX 3537m
param *.uav[30].startY 965m
param *.uav[30].startZ 539m
param *.uav[31].startX 312m
param *.uav[31].startY 1262m
param *.uav[31].startZ 540m
param *.uav[32].startX 2185m
param *.uav[32].startY 3026m
param *.uav[32].startZ 778m
param *.uav[33].startX 3537m
param *.uav[33].startY 965m
param *.uav[33].startZ 539m
param *.uav[34].startX 312m
param *.uav[34].startY 1262m
param *.uav[34].startZ 540m
param *.uav[35].startX 2185m
param *.uav[35].startY 3026m
param *.uav[35].startZ 778m
param *.uav[36].startX 3537m
param *.uav[36].startY 965m
param *.uav[36].startZ 539m
param *.uav[37].startX 312m
param *.uav[37].startY 1262m
param *.uav[37].startZ 540m
param *.uav[38].startX 2185m
param *.uav[38].startY 3026m
param *.uav[38].startZ 778m
param *.uav[39].startX 3537m
param *.uav[39].startY 965m
param *.uav[39].startZ 539m
param *.uav[40].startX 3537m
param *.uav[40].startY 965m
param *.uav[40].startZ 539m
param *.uav[41].startX 312m
param *.uav[41].startY 1262m
param *.uav[41].startZ 540m
param *.uav[42].startX 2185m
param *.uav[42].startY 3026m
param *.uav[42].startZ 778m
param *.uav[43].startX 3537m
param *.uav[43].startY 965m
param *.uav[43].startZ 539m
param *.uav[44].startX 312m
param *.uav[44].startY 1262m
param *.uav[44].startZ 540m
param *.uav[45].startX 2185m
param *.uav[45].startY 3026m
param *.uav[45].startZ 778m
param *.uav[46].startX 3537m
param *.uav[46].startY 965m
param *.uav[46].startZ 539m
param *.uav[47].startX 312m
param *.uav[47].startY 1262m
param *.uav[47].startZ 540m
param *.uav[48].startX 2185m
param *.uav[48].startY 3026m
param *.uav[48].startZ 778m
param *.uav[49].startX 3537m
param *.uav[49].startY 965m
param *.uav[49].startZ 539m
param *.uav[50].startX 3537m
param *.uav[50].startY 965m
param *.uav[50].startZ 539m
param *.uav[51].startX 312m
param *.uav[51].startY 1262m
param *.uav[51].startZ 540m
param *.uav[52].startX 2185m
param *.uav[52].startY 3026m
param *.uav[52].startZ 778m
param *.uav[53].startX 3537m
param *.uav[53].startY 965m
param *.uav[53].startZ 539m
param *.uav[54].startX 312m
param *.uav[54].startY 1262m
param *.uav[54].startZ 540m
param *.uav[55].startX 2185m
param *.uav[55].startY 3026m
param *.uav[55].startZ 778m
param *.uav[56].startX 3537m
param *.uav[56].startY 965m
param *.uav[56].startZ 539m
param *.uav[57].startX 312m
param *.uav[57].startY 1262m
param *.uav[57].startZ 540m
param *.uav[58].startX 2185m
param *.uav[58].startY 3026m
param *.uav[58].startZ 778m
param *.uav[59].startX 3537m
param *.uav[59].startY 965m
param *.uav[59].startZ 539m
param *.uav[60].startX 3537m
param *.uav[60].startY 965m
param *.uav[60].startZ 539m
param *.uav[61].startX 312m
param *.uav[61].startY 1262m
param *.uav[61].startZ 540m
param *.uav[62].startX 2185m
param *.uav[62].startY 3026m
param *.uav[62].startZ 778m
param *.uav[63].startX 3537m
param *.uav[63].startY 965m
param *.uav[63].startZ 539m
param *.uav[64].startX 312m
param *.uav[64].startY 1262m
param *.uav[64].startZ 540m
param *.uav[65].startX 2185m
param *.uav[65].startY 3026m
param *.uav[65].startZ 778m
param *.uav[66].startX 3537m
param *.uav[66].startY 965m
param *.uav[66].startZ 539m
param *.uav[67].startX 312m
param *.uav[67].startY 1262m
param *.uav[67].startZ 540m
param *.uav[68].startX 2185m
param *.uav[68].startY 3026m
param *.uav[68].startZ 778m
param *.uav[69].startX 3537m
param *.uav[69].startY 965m
param *.uav[69].startZ 539m
param *.uav[70].startX 3537m
param *.uav[70].startY 965m
param *.uav[70].startZ 539m
param *.uav[71].startX 312m
param *.uav[71].startY 1262m
param *.uav[71].startZ 540m
param *.uav[72].startX 2185m
param *.uav[72].startY 3026m
param *.uav[72].startZ 778m
param *.uav[73].startX 3537m
param *.uav[73].startY 965m
param *.uav[73].startZ 539m
param *.uav[74].startX 312m
param *.uav[74].startY 1262m
param *.uav[74].startZ 540m
param *.uav[75].startX 2185m
param *.uav[75].startY 3026m
param *.uav[75].startZ 778m
param *.uav[76].startX 3537m
param *.uav[76].startY 965m
param *.uav[76].startZ 539m
param *.uav[77].startX 312m
param *.uav[77].startY 1262m
param *.uav[77].startZ 540m
param *.uav[78].startX 2185m
param *.uav[78].startY 3026m
param *.uav[78].startZ 778m
param *.uav[79].startX 3537m
param *.uav[79].startY 965m
param *.uav[79].startZ 539m
param *.uav[80].startX 3537m
param *.uav[80].startY 965m
param *.uav[80].startZ 539m
param *.uav[81].startX 312m
param *.uav[81].startY 1262m
param *.uav[81].startZ 540m
param *.uav[82].startX 2185m
param *.uav[82].startY 3026m
param *.uav[82].startZ 778m
param *.uav[83].startX 3537m
param *.uav[83].startY 965m
param *.uav[83].startZ 539m
param *.uav[84].startX 312m
param *.uav[84].startY 1262m
param *.uav[84].startZ 540m
param *.uav[85].startX 2185m
param *.uav[85].startY 3026m
param *.uav[85].startZ 778m
param *.uav[86].startX 3537m
param *.uav[86].startY 965m
param *.uav[86].startZ 539m
param *.uav[87].startX 312m
param *.uav[87].startY 1262m
param *.uav[87].startZ 540m
param *.uav[88].startX 2185m
param *.uav[88].startY 3026m
param *.uav[88].startZ 778m
param *.uav[89].startX 3537m
param *.uav[89].startY 965m
param *.uav[89].startZ 539m
param *.uav[90].startX 3537m
param *.uav[90].startY 965m
param *.uav[90].startZ 539m
param *.uav[91].startX 312m
param *.uav[91].startY 1262m
param *.uav[91].startZ 540m
param *.uav[92].startX 2185m
param *.uav[92].startY 3026m
param *.uav[92].startZ 778m
param *.uav[93].startX 3537m
param *.uav[93].startY 965m
param *.uav[93].startZ 539m
param *.uav[94].startX 312m
param *.uav[94].startY 1262m
param *.uav[94].startZ 540m
param *.uav[95].startX 2185m
param *.uav[95].startY 3026m
param *.uav[95].startZ 778m
param *.uav[96].startX 3537m
param *.uav[96].startY 965m
param *.uav[96].startZ 539m
param *.uav[97].startX 312m
param *.uav[97].startY 1262m
param *.uav[97].startZ 540m
param *.uav[98].startX 2185m
param *.uav[98].startY 3026m
param *.uav[98].startZ 778m
param *.uav[99].startX 3537m
param *.uav[99].startY 965m
param *.uav[99].startZ 539m
param *.osgEarthScene.scene "\"boston.earth\""
param *.playgroundLatitude 42.3558
param *.playgroundLongitude -71.0677
param *.playgroundWidth 400m
param *.playgroundHeight 200m
param *.channelController.connectionColor "\"#0000FF40\""
param *.channelController.showConnections false
param *.uav[*].modelURL "\"quadrocopter.small.obj.15.scale.0,0,90.rot\""
param *.uav[*].labelColor "\"#FF7C00CC\""
param *.uav[*].label2Color "\"#FF7C00EE\""
param *.uav[*].batteryCapacity 5200mAh
param *.uav[*].batteryRemaining uav[index].batteryCapacity
param *.uav[*].predictionQuantile 0.95
param *.uav[*].replacementMethod 2
param *.uav[*].weightedSumWeight 0.5
param *.cs[*].modelURL "\"chargingstation_v1.osgt.2.scale.0,0,0.rot.0,0,-15e-1.trans\""
param *.cs[*].spotsWaiting 999
param *.cs[*].spotsCharging 999
param *.cs[*].chargeEffectivenessPercentage 100
param *.cs[*].nonLinearPhaseStartPercentage 85
param *.cs[*].chargeCurrent 6.0A
param *.cs[*].prioritizeFastCharge true
param *.missionControl.replacementSearchMethod 0
param *.*.timeStep 9s

scalar OsgEarthNet.uav[0] utilizationSecMission 37470.778998821
scalar OsgEarthNet.uav[0] utilizationSecMaintenance 19504.769307536
scalar OsgEarthNet.uav[0] utilizationSecCharge 193169.80528086
scalar OsgEarthNet.uav[0] utilizationSecIdle 9054.6454127841
scalar OsgEarthNet.uav[0] utilizationEnergyMission 178369.41221237
scalar OsgEarthNet.uav[0] utilizationEnergyMaintenance 93100.922981262
scalar OsgEarthNet.uav[0] utilizationEnergyCharge 269997.59692383
scalar OsgEarthNet.uav[0] utilizationEnergyOverdrawMission 0
scalar OsgEarthNet.uav[0] utilizationEnergyOverdrawMaintenance 0
scalar OsgEarthNet.uav[0] utilizationCountMissions 61
scalar OsgEarthNet.uav[0] utilizationCountManeuversMission 1027
scalar OsgEarthNet.uav[0] utilizationCountManeuversMaintenance 122
scalar OsgEarthNet.uav[0] utilizationCountChargeState 61
scalar OsgEarthNet.uav[0] utilizationCountOverdrawnAfterMission 0
scalar OsgEarthNet.uav[0] utilizationCountIdleState 20
scalar OsgEarthNet.uav[0] utilizationFail 0
scalar OsgEarthNet.uav[0] simulationTime 259200
scalar OsgEarthNet.uav[1] utilizationSecMission 35410.292895288
scalar OsgEarthNet.uav[1] utilizationSecMaintenance 14924.264016021
scalar OsgEarthNet.uav[1] utilizationSecCharge 183720
scalar OsgEarthNet.uav[1] utilizationSecIdle 25145.442088691
scalar OsgEarthNet.uav[1] utilizationEnergyMission 171930.84879899
scalar OsgEarthNet.uav[1] utilizationEnergyMaintenance 70412.584884644
scalar OsgEarthNet.uav[1] utilizationEnergyCharge 238929.84692383
scalar OsgEarthNet.uav[1] utilizationEnergyOverdrawMission 0
scalar OsgEarthNet.uav[1] utilizationEnergyOverdrawMaintenance 0
scalar OsgEarthNet.uav[1] utilizationCountMissions 52
scalar OsgEarthNet.uav[1] utilizationCountManeuversMission 1145
scalar OsgEarthNet.uav[1] utilizationCountManeuversMaintenance 105
scalar OsgEarthNet.uav[1] utilizationCountChargeState 52
scalar OsgEarthNet.uav[1] utilizationCountOverdrawnAfterMission 0
scalar OsgEarthNet.uav[1] utilizationCountIdleState 50
scalar OsgEarthNet.uav[1] utilizationFail 0
scalar OsgEarthNet.uav[1] simulationTime 259200
scalar OsgEarthNet.uav[2] utilizationSecMission 36366.950950618
scalar OsgEarthNet.uav[2] utilizationSecMaintenance 14736.557568842
scalar OsgEarthNet.uav[2] utilizationSecCharge 185354.48848054
scalar OsgEarthNet.uav[2] utilizationSecIdle 22742.002
scalar OsgEarthNet.uav[2] utilizationEnergyMission 176990.1255188
scalar OsgEarthNet.uav[2] utilizationEnergyMaintenance 68522.436756134
scalar OsgEarthNet.uav[2] utilizationEnergyCharge 241700.7565918
scalar OsgEarthNet.uav[2] utilizationEnergyOverdrawMission 0
scalar OsgEarthNet.uav[2] utilizationEnergyOverdrawMaintenance 0
scalar OsgEarthNet.uav[2] utilizationCountMissions 53
scalar OsgEarthNet.uav[2] utilizationCountManeuversMission 1171
scalar OsgEarthNet.uav[2] utilizationCountManeuversMaintenance 106
scalar OsgEarthNet.uav[2] utilizationCountChargeState 53
scalar OsgEarthNet.uav[2] utilizationCountOverdrawnAfterMission 0
scalar OsgEarthNet.uav[2] utilizationCountIdleState 52
scalar OsgEarthNet.uav[2] utilizationFail 0
scalar OsgEarthNet.uav[2] simulationTime 259200
scalar OsgEarthNet.uav[3] utilizationSecMission 35683.993084867
scalar OsgEarthNet.uav[3] utilizationSecMaintenance 15150.827917057
scalar OsgEarthNet.uav[3] utilizationSecCharge 185484.22874241
scalar OsgEarthNet.uav[3] utilizationSecIdle 22880.949255665
scalar OsgEarthNet.uav[3] utilizationEnergyMission 174606.41236496
scalar OsgEarthNet.uav[3] utilizationEnergyMaintenance 70208.091640472
scalar OsgEarthNet.uav[3] utilizationEnergyCharge 241494.84570312
scalar OsgEarthNet.uav[3] utilizationEnergyOverdrawMission 0
scalar OsgEarthNet.uav[3] utilizationEnergyOverdrawMaintenance 0
scalar OsgEarthNet.uav[3] utilizationCountMissions 53
scalar OsgEarthNet.uav[3] utilizationCountManeuversMission 1189
scalar OsgEarthNet.uav[3] utilizationCountManeuversMaintenance 106
scalar OsgEarthNet.uav[3] utilizationCountChargeState 53
scalar OsgEarthNet.uav[3] utilizationCountOverdrawnAfterMission 0
scalar OsgEarthNet.uav[3] utilizationCountIdleState 50
scalar OsgEarthNet.uav[3] utilizationFail 0
scalar OsgEarthNet.uav[3] simulationTime 259200
scalar OsgEarthNet.uav[4] utilizationSecMission 34776.576484875
scalar OsgEarthNet.uav[4] utilizationSecMaintenance 17969.619601832
scalar OsgEarthNet.uav[4] utilizationSecCharge 194670
scalar OsgEarthNet.uav[4] utilizationSecIdle 11783.802913293
scalar OsgEarthNet.uav[4] utilizationEnergyMission 165565.48141407
scalar OsgEarthNet.uav[4] utilizationEnergyMaintenance 84812.800094604
scalar OsgEarthNet.uav[4] utilizationEnergyCharge 251815.66552734
scalar OsgEarthNet.uav[4] utilizationEnergyOverdrawMission 0
scalar OsgEarthNet.uav[4] utilizationEnergyOverdrawMaintenance 0
scalar OsgEarthNet.uav[4] utilizationCountMissions 59
scalar OsgEarthNet.uav[4] utilizationCountManeuversMission 947
scalar OsgEarthNet.uav[4] utilizationCountManeuversMaintenance 119
scalar OsgEarthNet.uav[4] utilizationCountChargeState 59
scalar OsgEarthNet.uav[4] utilizationCountOverdrawnAfterMission 0
scalar OsgEarthNet.uav[4] utilizationCountIdleState 35
scalar OsgEarthNet.uav[4] utilizationFail 0
scalar OsgEarthNet.uav[4] simulationTime 259200
scalar OsgEarthNet.uav[5] utilizationSecMission 34724.446193317
scalar OsgEarthNet.uav[5] utilizationSecMaintenance 15767.517993228
scalar OsgEarthNet.uav[5] utilizationSecCharge 185256.03181345
scalar OsgEarthNet.uav[5] utilizationSecIdle 23452.003
scalar OsgEarthNet.uav[5] utilizationEnergyMission 169884.22459412
scalar OsgEarthNet.uav[5] utilizationEnergyMaintenance 72006.56577301
scalar OsgEarthNet.uav[5] utilizationEnergyCharge 241351.89160156
scalar OsgEarthNet.uav[5] utilizationEnergyOverdrawMission 0
scalar OsgEarthNet.uav[5] utilizationEnergyOverdrawMaintenance 0
scalar OsgEarthNet.uav[5] utilizationCountMissions 53
scalar OsgEarthNet.uav[5] utilizationCountManeuversMission 1136
scalar OsgEarthNet.uav[5] utilizationCountManeuversMaintenance 106
scalar OsgEarthNet.uav[5] utilizationCountChargeState 53
scalar OsgEarthNet.uav[5] utilizationCountOverdrawnAfterMission 0
scalar OsgEarthNet.uav[5] utilizationCountIdleState 51
scalar OsgEarthNet.uav[5] utilizationFail 0
scalar OsgEarthNet.uav[5] simulationTime 259200
scalar OsgEarthNet.uav[6] utilizationSecMission 35584.745623176
scalar OsgEarthNet.uav[6] utilizationSecMaintenance 22353.831607524
scalar OsgEarthNet.uav[6] utilizationSecCharge 196689.4167693
scalar OsgEarthNet.uav[6] utilizationSecIdle 4572.005
scalar OsgEarthNet.uav[6] utilizationEnergyMission 173343.05118942
scalar OsgEarthNet.uav[6] utilizationEnergyMaintenance 105656.38589096
scalar OsgEarthNet.uav[6] utilizationEnergyCharge 276141.20922852
scalar OsgEarthNet.uav[6] utilizationEnergyOverdrawMission 0
scalar OsgEarthNet.uav[6] utilizationEnergyOverdrawMaintenance 0
scalar OsgEarthNet.uav[6] utilizationCountMissions 63
scalar OsgEarthNet.uav[6] utilizationCountManeuversMission 1159
scalar OsgEarthNet.uav[6] utilizationCountManeuversMaintenance 126
scalar OsgEarthNet.uav[6] utilizationCountChargeState 63
scalar OsgEarthNet.uav[6] utilizationCountOverdrawnAfterMission 0
scalar OsgEarthNet.uav[6] utilizationCountIdleState 14
scalar OsgEarthNet.uav[6] utilizationFail 0
scalar OsgEarthNet.uav[6] simulationTime 259200
scalar OsgEarthNet.uav[7] utilizationSecMission 34234.400384023
scalar OsgEarthNet.uav[7] utilizationSecMaintenance 19773.50026984
scalar OsgEarthNet.uav[7] utilizationSecCharge 197610.09683941
scalar OsgEarthNet.uav[7] utilizationSecIdle 7582.0015067221
scalar OsgEarthNet.uav[7] utilizationEnergyMission 166448.68084335
scalar OsgEarthNet.uav[7] utilizationEnergyMaintenance 94427.921730041
scalar OsgEarthNet.uav[7] utilizationEnergyCharge 258100.17016602
scalar OsgEarthNet.uav[7] utilizationEnergyOverdrawMission 0
scalar OsgEarthNet.uav[7] utilizationEnergyOverdrawMaintenance 0
scalar OsgEarthNet.uav[7] utilizationCountMissions 61
scalar OsgEarthNet.uav[7] utilizationCountManeuversMission 1079
scalar OsgEarthNet.uav[7] utilizationCountManeuversMaintenance 122
scalar OsgEarthNet.uav[7] utilizationCountChargeState 61
scalar OsgEarthNet.uav[7] utilizationCountOverdrawnAfterMission 0
scalar OsgEarthNet.uav[7] utilizationCountIdleState 37
scalar OsgEarthNet.uav[7] utilizationFail 0
scalar OsgEarthNet.uav[7] simulationTime 259200
scalar OsgEarthNet.uav[8] utilizationSecMission 35871.714204706
scalar OsgEarthNet.uav[8] utilizationSecMaintenance 15286.465141419
scalar OsgEarthNet.uav[8] utilizationSecCharge 185329.81765387
scalar OsgEarthNet.uav[8] utilizationSecIdle 22712.002
scalar OsgEarthNet.uav[8] utilizationEnergyMission 174916.97968674
scalar OsgEarthNet.uav[8] utilizationEnergyMaintenance 70706.864738464
scalar OsgEarthNet.uav[8] utilizationEnergyCharge 241833.17724609
scalar OsgEarthNet.uav[8] utilizationEnergyOverdrawMission 0
scalar OsgEarthNet.uav[8] utilizationEnergyOverdrawMaintenance 0
scalar OsgEarthNet.uav[8] utilizationCountMissions 53
scalar OsgEarthNet.uav[8] utilizationCountManeuversMission 1132
scalar OsgEarthNet.uav[8] utilizationCountManeuversMaintenance 106
scalar OsgEarthNet.uav[8] utilizationCountChargeState 53
scalar OsgEarthNet.uav[8] utilizationCountOverdrawnAfterMission 0
scalar OsgEarthNet.uav[8] utilizationCountIdleState 52
scalar OsgEarthNet.uav[8] utilizationFail 0
scalar OsgEarthNet.uav[8] simulationTime 259200
scalar OsgEarthNet.uav[9] utilizationSecMission 32887.965224259
scalar OsgEarthNet.uav[9] utilizationSecMaintenance 19312.338902559
scalar OsgEarthNet.uav[9] utilizationSecCharge 197507.69487318
scalar OsgEarthNet.uav[9] utilizationSecIdle 9492
scalar OsgEarthNet.uav[9] utilizationEnergyMission 157728.38441849
scalar OsgEarthNet.uav[9] utilizationEnergyMaintenance 91161.985149384
scalar OsgEarthNet.uav[9] utilizationEnergyCharge 248820.97241211
scalar OsgEarthNet.uav[9] utilizationEnergyOverdrawMission 0
scalar OsgEarthNet.uav[9] utilizationEnergyOverdrawMaintenance 0
scalar OsgEarthNet.uav[9] utilizationCountMissions 65
scalar OsgEarthNet.uav[9] utilizationCountManeuversMission 875
scalar OsgEarthNet.uav[9] utilizationCountManeuversMaintenance 129
scalar OsgEarthNet.uav[9] utilizationCountChargeState 65
scalar OsgEarthNet.uav[9] utilizationCountOverdrawnAfterMission 0
scalar OsgEarthNet.uav[9] utilizationCountIdleState 40
scalar OsgEarthNet.uav[9] utilizationFail 0
scalar OsgEarthNet.uav[9] simulationTime 259200
scalar OsgEarthNet.uav[10] utilizationSecMission 37678.129424828
scalar OsgEarthNet.uav[10] utilizationSecMaintenance 21409.866575172
scalar OsgEarthNet.uav[10] utilizationSecCharge 195310
scalar OsgEarthNet.uav[10] utilizationSecIdle 4802.003
scalar OsgEarthNet.uav[10] utilizationEnergyMission 180325.9787674
scalar OsgEarthNet.uav[10] utilizationEnergyMaintenance 101265.07559503
scalar OsgEarthNet.uav[10] utilizationEnergyCharge 278752.17626953
scalar OsgEarthNet.uav[10] utilizationEnergyOverdrawMission 0
scalar OsgEarthNet.uav[10] utilizationEnergyOverdrawMaintenance 0
scalar OsgEarthNet.uav[10] utilizationCountMissions 64
scalar OsgEarthNet.uav[10] utilizationCountManeuversMission 1129
scalar OsgEarthNet.uav[10] utilizationCountManeuversMaintenance 128
scalar OsgEarthNet.uav[10] utilizationCountChargeState 63
scalar OsgEarthNet.uav[10] utilizationCountOverdrawnAfterMission 0
scalar OsgEarthNet.uav[10] utilizationCountIdleState 15
scalar OsgEarthNet.uav[10] utilizationFail 0
scalar OsgEarthNet.uav[10] simulationTime 259200
scalar OsgEarthNet.uav[11] utilizationSecMission 34576.16479109
scalar OsgEarthNet.uav[11] utilizationSecMaintenance 19147.393360699
scalar OsgEarthNet.uav[11] utilizationSecCharge 195194.43684821
scalar OsgEarthNet.uav[11] utilizationSecIdle 10282.004
scalar OsgEarthNet.uav[11] utilizationEnergyMission 166174.8284111
scalar OsgEarthNet.uav[11] utilizationEnergyMaintenance 90430.849300385
scalar OsgEarthNet.uav[11] utilizationEnergyCharge 252298.91027832
scalar OsgEarthNet.uav[11] utilizationEnergyOverdrawMission 0
scalar OsgEarthNet.uav[11] utilizationEnergyOverdrawMaintenance 0
scalar OsgEarthNet.uav[11] utilizationCountMissions 61
scalar OsgEarthNet.uav[11] utilizationCountManeuversMission 1040
scalar OsgEarthNet.uav[11] utilizationCountManeuversMaintenance 122
scalar OsgEarthNet.uav[11] utilizationCountChargeState 61
scalar OsgEarthNet.uav[11] utilizationCountOverdrawnAfterMission 0
scalar OsgEarthNet.uav[11] utilizationCountIdleState 31
scalar OsgEarthNet.uav[11] utilizationFail 0
scalar OsgEarthNet.uav[11] simulationTime 259200
scalar OsgEarthNet.uav[12] utilizationSecMission 37540.782370105
scalar OsgEarthNet.uav[12] utilizationSecMaintenance 13690.674273283
scalar OsgEarthNet.uav[12] utilizationSecCharge 184150
scalar OsgEarthNet.uav[12] utilizationSecIdle 23818.542356613
scalar OsgEarthNet.uav[12] utilizationEnergyMission 178798.49423218
scalar OsgEarthNet.uav[12] utilizationEnergyMaintenance 61949.011062622
scalar OsgEarthNet.uav[12] utilizationEnergyCharge 239983.31884766
scalar OsgEarthNet.uav[12] utilizationEnergyOverdrawMission 0
scalar OsgEarthNet.uav[12] utilizationEnergyOverdrawMaintenance 0
scalar OsgEarthNet.uav[12] utilizationCountMissions 52
scalar OsgEarthNet.uav[12] utilizationCountManeuversMission 1074
scalar OsgEarthNet.uav[12] utilizationCountManeuversMaintenance 104
scalar OsgEarthNet.uav[12] utilizationCountChargeState 52
scalar OsgEarthNet.uav[12] utilizationCountOverdrawnAfterMission 0
scalar OsgEarthNet.uav[12] utilizationCountIdleState 52
scalar OsgEarthNet.uav[12] utilizationFail 0
scalar OsgEarthNet.uav[12] simulationTime 259200
scalar OsgEarthNet.uav[13] utilizationSecMission 34472.503051606
scalar OsgEarthNet.uav[13] utilizationSecMaintenance 23297.721674619
scalar OsgEarthNet.uav[13] utilizationSecCharge 196547.76827378
scalar OsgEarthNet.uav[13] utilizationSecIdle 4882.006
scalar OsgEarthNet.uav[13] utilizationEnergyMission 168762.04727936
scalar OsgEarthNet.uav[13] utilizationEnergyMaintenance 110444.39918137
scalar OsgEarthNet.uav[13] utilizationEnergyCharge 277412.6652832
scalar OsgEarthNet.uav[13] utilizationEnergyOverdrawMission 0
scalar OsgEarthNet.uav[13] utilizationEnergyOverdrawMaintenance 0
scalar OsgEarthNet.uav[13] utilizationCountMissions 63
scalar OsgEarthNet.uav[13] utilizationCountManeuversMission 1203
scalar OsgEarthNet.uav[13] utilizationCountManeuversMaintenance 126
scalar OsgEarthNet.uav[13] utilizationCountChargeState 63
scalar OsgEarthNet.uav[13] utilizationCountOverdrawnAfterMission 0
scalar OsgEarthNet.uav[13] utilizationCountIdleState 12
scalar OsgEarthNet.uav[13] utilizationFail 0
scalar OsgEarthNet.uav[13] simulationTime 259200
scalar OsgEarthNet.uav[14] utilizationSecMission 32484.705394017
scalar OsgEarthNet.uav[14] utilizationSecMaintenance 19555.298404643
scalar OsgEarthNet.uav[14] utilizationSecCharge 198437.99420134
scalar OsgEarthNet.uav[14] utilizationSecIdle 8722.001
scalar OsgEarthNet.uav[14] utilizationEnergyMission 153935.24365234
scalar OsgEarthNet.uav[14] utilizationEnergyMaintenance 93670.11971283
scalar OsgEarthNet.uav[14] utilizationEnergyCharge 248666.88867188
scalar OsgEarthNet.uav[14] utilizationEnergyOverdrawMission 0
scalar OsgEarthNet.uav[14] utilizationEnergyOverdrawMaintenance 0
scalar OsgEarthNet.uav[14] utilizationCountMissions 66
scalar OsgEarthNet.uav[14] utilizationCountManeuversMission 857
scalar OsgEarthNet.uav[14] utilizationCountManeuversMaintenance 132
scalar OsgEarthNet.uav[14] utilizationCountChargeState 66
scalar OsgEarthNet.uav[14] utilizationCountOverdrawnAfterMission 0
scalar OsgEarthNet.uav[14] utilizationCountIdleState 38
scalar OsgEarthNet.uav[14] utilizationFail 0
scalar OsgEarthNet.uav[14] simulationTime 259200
scalar OsgEarthNet.uav[15] utilizationSecMission 34873.276809649
scalar OsgEarthNet.uav[15] utilizationSecMaintenance 15954.61364454
scalar OsgEarthNet.uav[15] utilizationSecCharge 185800.65558709
scalar OsgEarthNet.uav[15] utilizationSecIdle 22571.452958717
scalar OsgEarthNet.uav[15] utilizationEnergyMission 171327.06059265
scalar OsgEarthNet.uav[15] utilizationEnergyMaintenance 73616.645881653
scalar OsgEarthNet.uav[15] utilizationEnergyCharge 242471.04321289
scalar OsgEarthNet.uav[15] utilizationEnergyOverdrawMission 0
scalar OsgEarthNet.uav[15] utilizationEnergyOverdrawMaintenance 0
scalar OsgEarthNet.uav[15] utilizationCountMissions 53
scalar OsgEarthNet.uav[15] utilizationCountManeuversMission 1204
scalar OsgEarthNet.uav[15] utilizationCountManeuversMaintenance 106
scalar OsgEarthNet.uav[15] utilizationCountChargeState 53
scalar OsgEarthNet.uav[15] utilizationCountOverdrawnAfterMission 0
scalar OsgEarthNet.uav[15] utilizationCountIdleState 51
scalar OsgEarthNet.uav[15] utilizationFail 0
scalar OsgEarthNet.uav[15] simulationTime 259200
scalar OsgEarthNet.uav[16] utilizationSecMission 37045.287721131
scalar OsgEarthNet.uav[16] utilizationSecMaintenance 13159.547564524
scalar OsgEarthNet.uav[16] utilizationSecCharge 182040
scalar OsgEarthNet.uav[16] utilizationSecIdle 26955.163714345
scalar OsgEarthNet.uav[16] utilizationEnergyMission 179365.83177087
scalar OsgEarthNet.uav[16] utilizationEnergyMaintenance 60321.336097717
scalar OsgEarthNet.uav[16] utilizationEnergyCharge 236454.87255859
scalar OsgEarthNet.uav[16] utilizationEnergyOverdrawMission 0
scalar OsgEarthNet.uav[16] utilizationEnergyOverdrawMaintenance 0
scalar OsgEarthNet.uav[16] utilizationCountMissions 51
scalar OsgEarthNet.uav[16] utilizationCountManeuversMission 1042
scalar OsgEarthNet.uav[16] utilizationCountManeuversMaintenance 103
scalar OsgEarthNet.uav[16] utilizationCountChargeState 51
scalar OsgEarthNet.uav[16] utilizationCountOverdrawnAfterMission 0
scalar OsgEarthNet.uav[16] utilizationCountIdleState 52
scalar OsgEarthNet.uav[16] utilizationFail 0
scalar OsgEarthNet.uav[16] simulationTime 259200
scalar OsgEarthNet.uav[17] utilizationSecMission 34845.336982663
scalar OsgEarthNet.uav[17] utilizationSecMaintenance 18906.308414458
scalar OsgEarthNet.uav[17] utilizationSecCharge 196140
scalar OsgEarthNet.uav[17] utilizationSecIdle 9308.3536028792
scalar OsgEarthNet.uav[17] utilizationEnergyMission 167079.48378224
scalar OsgEarthNet.uav[17] utilizationEnergyMaintenance 89760.491939545
scalar OsgEarthNet.uav[17] utilizationEnergyCharge 253387.99853516
scalar OsgEarthNet.uav[17] utilizationEnergyOverdrawMission 0
scalar OsgEarthNet.uav[17] utilizationEnergyOverdrawMaintenance 0
scalar OsgEarthNet.uav[17] utilizationCountMissions 60
scalar OsgEarthNet.uav[17] utilizationCountManeuversMission 1054
scalar OsgEarthNet.uav[17] utilizationCountManeuversMaintenance 121
scalar OsgEarthNet.uav[17] utilizationCountChargeState 60
scalar OsgEarthNet.uav[17] utilizationCountOverdrawnAfterMission 0
scalar OsgEarthNet.uav[17] utilizationCountIdleState 35
scalar OsgEarthNet.uav[17] utilizationFail 0
scalar OsgEarthNet.uav[17] simulationTime 259200
scalar OsgEarthNet.uav[18] utilizationSecMission 34636.187278739
scalar OsgEarthNet.uav[18] utilizationSecMaintenance 15804.518305467
scalar OsgEarthNet.uav[18] utilizationSecCharge 186389.8680685
scalar OsgEarthNet.uav[18] utilizationSecIdle 22369.42534729
scalar OsgEarthNet.uav[18] utilizationEnergyMission 169124.11815643
scalar OsgEarthNet.uav[18] utilizationEnergyMaintenance 72024.416591644
scalar OsgEarthNet.uav[18] utilizationEnergyCharge 242324.40820312
scalar OsgEarthNet.uav[18] utilizationEnergyOverdrawMission 0
scalar OsgEarthNet.uav[18] utilizationEnergyOverdrawMaintenance 0
scalar OsgEarthNet.uav[18] utilizationCountMissions 53
scalar OsgEarthNet.uav[18] utilizationCountManeuversMission 1202
scalar OsgEarthNet.uav[18] utilizationCountManeuversMaintenance 106
scalar OsgEarthNet.uav[18] utilizationCountChargeState 53
scalar OsgEarthNet.uav[18] utilizationCountOverdrawnAfterMission 0
scalar OsgEarthNet.uav[18] utilizationCountIdleState 51
scalar OsgEarthNet.uav[18] utilizationFail 0
scalar OsgEarthNet.uav[18] simulationTime 259200
scalar OsgEarthNet.uav[19] utilizationSecMission 35261.170809622
scalar OsgEarthNet.uav[19] utilizationSecMaintenance 15629.77924403
scalar OsgEarthNet.uav[19] utilizationSecCharge 186066.9042064
scalar OsgEarthNet.uav[19] utilizationSecIdle 22242.144739949
scalar OsgEarthNet.uav[19] utilizationEnergyMission 174627.63777924
scalar OsgEarthNet.uav[19] utilizationEnergyMaintenance 72490.474754334
scalar OsgEarthNet.uav[19] utilizationEnergyCharge 242179.27416992
scalar OsgEarthNet.uav[19] utilizationEnergyOverdrawMission 0
scalar OsgEarthNet.uav[19] utilizationEnergyOverdrawMaintenance 0
scalar OsgEarthNet.uav[19] utilizationCountMissions 53
scalar OsgEarthNet.uav[19] utilizationCountManeuversMission 1186
scalar OsgEarthNet.uav[19] utilizationCountManeuversMaintenance 106
scalar OsgEarthNet.uav[19] utilizationCountChargeState 53
scalar OsgEarthNet.uav[19] utilizationCountOverdrawnAfterMission 0
scalar OsgEarthNet.uav[19] utilizationCountIdleState 52
scalar OsgEarthNet.uav[19] utilizationFail 0
scalar OsgEarthNet.uav[19] simulationTime 259200
scalar OsgEarthNet.uav[20] utilizationSecMission 34894.805135996
scalar OsgEarthNet.uav[20] utilizationSecMaintenance 16063.841222217
scalar OsgEarthNet.uav[20] utilizationSecCharge 184260.44996162
scalar OsgEarthNet.uav[20] utilizationSecIdle 23980.902680166
scalar OsgEarthNet.uav[20] utilizationEnergyMission 169861.41757584
scalar OsgEarthNet.uav[20] utilizationEnergyMaintenance 74785.388938904
scalar OsgEarthNet.uav[20] utilizationEnergyCharge 239036.23553467
scalar OsgEarthNet.uav[20] utilizationEnergyOverdrawMission 0
scalar OsgEarthNet.uav[20] utilizationEnergyOverdrawMaintenance 0
scalar OsgEarthNet.uav[20] utilizationCountMissions 53
scalar OsgEarthNet.uav[20] utilizationCountManeuversMission 1180
scalar OsgEarthNet.uav[20] utilizationCountManeuversMaintenance 106
scalar OsgEarthNet.uav[20] utilizationCountChargeState 53
scalar OsgEarthNet.uav[20] utilizationCountOverdrawnAfterMission 0
scalar OsgEarthNet.uav[20] utilizationCountIdleState 50
scalar OsgEarthNet.uav[20] utilizationFail 0
scalar OsgEarthNet.uav[20] simulationTime 259200
scalar OsgEarthNet.uav[21] utilizationSecMission 34361.236041845
scalar OsgEarthNet.uav[21] utilizationSecMaintenance 19151.013993379
scalar OsgEarthNet.uav[21] utilizationSecCharge 196506.7849791
scalar OsgEarthNet.uav[21] utilizationSecIdle 9180.9639856735
scalar OsgEarthNet.uav[21] utilizationEnergyMission 166799.13554001
scalar OsgEarthNet.uav[21] utilizationEnergyMaintenance 90668.856861114
scalar OsgEarthNet.uav[21] utilizationEnergyCharge 253960.98486328
scalar OsgEarthNet.uav[21] utilizationEnergyOverdrawMission 0
scalar OsgEarthNet.uav[21] utilizationEnergyOverdrawMaintenance 0
scalar OsgEarthNet.uav[21] utilizationCountMissions 62
scalar OsgEarthNet.uav[21] utilizationCountManeuversMission 986
scalar OsgEarthNet.uav[21] utilizationCountManeuversMaintenance 124
scalar OsgEarthNet.uav[21] utilizationCountChargeState 62
scalar OsgEarthNet.uav[21] utilizationCountOverdrawnAfterMission 0
scalar OsgEarthNet.uav[21] utilizationCountIdleState 39
scalar OsgEarthNet.uav[21] utilizationFail 0
scalar OsgEarthNet.uav[21] simulationTime 259200
scalar OsgEarthNet.uav[22] utilizationSecMission 35739.990048604
scalar OsgEarthNet.uav[22] utilizationSecMaintenance 15570.307487444
scalar OsgEarthNet.uav[22] utilizationSecCharge 187977.70146395
scalar OsgEarthNet.uav[22] utilizationSecIdle 19912
scalar OsgEarthNet.uav[22] utilizationEnergyMission 173277.63564808
scalar OsgEarthNet.uav[22] utilizationEnergyMaintenance 71632.720497131
scalar OsgEarthNet.uav[22] utilizationEnergyCharge 246015.72119141
scalar OsgEarthNet.uav[22] utilizationEnergyOverdrawMission 0
scalar OsgEarthNet.uav[22] utilizationEnergyOverdrawMaintenance 0
scalar OsgEarthNet.uav[22] utilizationCountMissions 54
scalar OsgEarthNet.uav[22] utilizationCountManeuversMission 1161
scalar OsgEarthNet.uav[22] utilizationCountManeuversMaintenance 107
scalar OsgEarthNet.uav[22] utilizationCountChargeState 54
scalar OsgEarthNet.uav[22] utilizationCountOverdrawnAfterMission 0
scalar OsgEarthNet.uav[22] utilizationCountIdleState 48
scalar OsgEarthNet.uav[22] utilizationFail 0
scalar OsgEarthNet.uav[22] simulationTime 259200
scalar OsgEarthNet.uav[23] utilizationSecMission 36462.915803629
scalar OsgEarthNet.uav[23] utilizationSecMaintenance 22215.083196371
scalar OsgEarthNet.uav[23] utilizationSecCharge 197950
scalar OsgEarthNet.uav[23] utilizationSecIdle 2572
scalar OsgEarthNet.uav[23] utilizationEnergyMission 178633.66462571
scalar OsgEarthNet.uav[23] utilizationEnergyMaintenance 105156.83221436
scalar OsgEarthNet.uav[23] utilizationEnergyCharge 279825.93505859
scalar OsgEarthNet.uav[23] utilizationEnergyOverdrawMission 0
scalar OsgEarthNet.uav[23] utilizationEnergyOverdrawMaintenance 0
scalar OsgEarthNet.uav[23] utilizationCountMissions 63
scalar OsgEarthNet.uav[23] utilizationCountManeuversMission 1177
scalar OsgEarthNet.uav[23] utilizationCountManeuversMaintenance 127
scalar OsgEarthNet.uav[23] utilizationCountChargeState 63
scalar OsgEarthNet.uav[23] utilizationCountOverdrawnAfterMission 0
scalar OsgEarthNet.uav[23] utilizationCountIdleState 14
scalar OsgEarthNet.uav[23] utilizationFail 0
scalar OsgEarthNet.uav[23] simulationTime 259200
scalar OsgEarthNet.uav[24] utilizationSecMission 32220.111229461
scalar OsgEarthNet.uav[24] utilizationSecMaintenance 20020.139506235
scalar OsgEarthNet.uav[24] utilizationSecCharge 198825.13637479
scalar OsgEarthNet.uav[24] utilizationSecIdle 8134.6118895164
scalar OsgEarthNet.uav[24] utilizationEnergyMission 153532.40306854
scalar OsgEarthNet.uav[24] utilizationEnergyMaintenance 96056.088352203
scalar OsgEarthNet.uav[24] utilizationEnergyCharge 248127.63525391
scalar OsgEarthNet.uav[24] utilizationEnergyOverdrawMission 0
scalar OsgEarthNet.uav[24] utilizationEnergyOverdrawMaintenance 0
scalar OsgEarthNet.uav[24] utilizationCountMissions 66
scalar OsgEarthNet.uav[24] utilizationCountManeuversMission 926
scalar OsgEarthNet.uav[24] utilizationCountManeuversMaintenance 132
scalar OsgEarthNet.uav[24] utilizationCountChargeState 66
scalar OsgEarthNet.uav[24] utilizationCountOverdrawnAfterMission 0
scalar OsgEarthNet.uav[24] utilizationCountIdleState 41
scalar OsgEarthNet.uav[24] utilizationFail 0
scalar OsgEarthNet.uav[24] simulationTime 259200
scalar OsgEarthNet.uav[25] utilizationSecMission 36315.33590508
scalar OsgEarthNet.uav[25] utilizationSecMaintenance 15529.124605709
scalar OsgEarthNet.uav[25] utilizationSecCharge 187103.53848921
scalar OsgEarthNet.uav[25] utilizationSecIdle 20252
scalar OsgEarthNet.uav[25] utilizationEnergyMission 176549.54869843
scalar OsgEarthNet.uav[25] utilizationEnergyMaintenance 70995.15581131
scalar OsgEarthNet.uav[25] utilizationEnergyCharge 243233.97149658
scalar OsgEarthNet.uav[25] utilizationEnergyOverdrawMission 0
scalar OsgEarthNet.uav[25] utilizationEnergyOverdrawMaintenance 0
scalar OsgEarthNet.uav[25] utilizationCountMissions 54
scalar OsgEarthNet.uav[25] utilizationCountManeuversMission 1143
scalar OsgEarthNet.uav[25] utilizationCountManeuversMaintenance 108
scalar OsgEarthNet.uav[25] utilizationCountChargeState 54
scalar OsgEarthNet.uav[25] utilizationCountOverdrawnAfterMission 0
scalar OsgEarthNet.uav[25] utilizationCountIdleState 52
scalar OsgEarthNet.uav[25] utilizationFail 0
scalar OsgEarthNet.uav[25] simulationTime 259200
scalar OsgEarthNet.uav[26] utilizationSecMission 35503.386242936
scalar OsgEarthNet.uav[26] utilizationSecMaintenance 23612.550528936
scalar OsgEarthNet.uav[26] utilizationSecCharge 196922.05822813
scalar OsgEarthNet.uav[26] utilizationSecIdle 3162.004
scalar OsgEarthNet.uav[26] utilizationEnergyMission 171577.71173096
scalar OsgEarthNet.uav[26] utilizationEnergyMaintenance 111891.79562378
scalar OsgEarthNet.uav[26] utilizationEnergyCharge 281439.52203369
scalar OsgEarthNet.uav[26] utilizationEnergyOverdrawMission 0
scalar OsgEarthNet.uav[26] utilizationEnergyOverdrawMaintenance 0
scalar OsgEarthNet.uav[26] utilizationCountMissions 64
scalar OsgEarthNet.uav[26] utilizationCountManeuversMission 1224
scalar OsgEarthNet.uav[26] utilizationCountManeuversMaintenance 128
scalar OsgEarthNet.uav[26] utilizationCountChargeState 64
scalar OsgEarthNet.uav[26] utilizationCountOverdrawnAfterMission 0
scalar OsgEarthNet.uav[26] utilizationCountIdleState 7
scalar OsgEarthNet.uav[26] utilizationFail 0
scalar OsgEarthNet.uav[26] simulationTime 259200
scalar OsgEarthNet.uav[27] utilizationSecMission 31846.949639872
scalar OsgEarthNet.uav[27] utilizationSecMaintenance 20214.536463178
scalar OsgEarthNet.uav[27] utilizationSecCharge 199736.51289695
scalar OsgEarthNet.uav[27] utilizationSecIdle 7402
scalar OsgEarthNet.uav[27] utilizationEnergyMission 153189.27985382
scalar OsgEarthNet.uav[27] utilizationEnergyMaintenance 95415.642356873
scalar OsgEarthNet.uav[27] utilizationEnergyCharge 250423.31176758
scalar OsgEarthNet.uav[27] utilizationEnergyOverdrawMission 0
scalar OsgEarthNet.uav[27] utilizationEnergyOverdrawMaintenance 0
scalar OsgEarthNet.uav[27] utilizationCountMissions 66
scalar OsgEarthNet.uav[27] utilizationCountManeuversMission 906
scalar OsgEarthNet.uav[27] utilizationCountManeuversMaintenance 132
scalar OsgEarthNet.uav[27] utilizationCountChargeState 66
scalar OsgEarthNet.uav[27] utilizationCountOverdrawnAfterMission 0
scalar OsgEarthNet.uav[27] utilizationCountIdleState 42
scalar OsgEarthNet.uav[27] utilizationFail 0
scalar OsgEarthNet.uav[27] simulationTime 259200
scalar OsgEarthNet.uav[28] utilizationSecMission 35697.524939514
scalar OsgEarthNet.uav[28] utilizationSecMaintenance 15350.474060486
scalar OsgEarthNet.uav[28] utilizationSecCharge 187450
scalar OsgEarthNet.uav[28] utilizationSecIdle 20702
scalar OsgEarthNet.uav[28] utilizationEnergyMission 173492.22154363
scalar OsgEarthNet.uav[28] utilizationEnergyMaintenance 70618.874492645
scalar OsgEarthNet.uav[28] utilizationEnergyCharge 244339.24511719
scalar OsgEarthNet.uav[28] utilizationEnergyOverdrawMission 0
scalar OsgEarthNet.uav[28] utilizationEnergyOverdrawMaintenance 0
scalar OsgEarthNet.uav[28] utilizationCountMissions 53
scalar OsgEarthNet.uav[28] utilizationCountManeuversMission 1168
scalar OsgEarthNet.uav[28] utilizationCountManeuversMaintenance 107
scalar OsgEarthNet.uav[28] utilizationCountChargeState 53
scalar OsgEarthNet.uav[28] utilizationCountOverdrawnAfterMission 0
scalar OsgEarthNet.uav[28] utilizationCountIdleState 51
scalar OsgEarthNet.uav[28] utilizationFail 0
scalar OsgEarthNet.uav[28] simulationTime 259200
scalar OsgEarthNet.uav[29] utilizationSecMission 34933.753356766
scalar OsgEarthNet.uav[29] utilizationSecMaintenance 22701.894639766
scalar OsgEarthNet.uav[29] utilizationSecCharge 196920.95789507
scalar OsgEarthNet.uav[29] utilizationSecIdle 4643.3931083948
scalar OsgEarthNet.uav[29] utilizationEnergyMission 173533.30563736
scalar OsgEarthNet.uav[29] utilizationEnergyMaintenance 108083.05241013
scalar OsgEarthNet.uav[29] utilizationEnergyCharge 279580.49584961
scalar OsgEarthNet.uav[29] utilizationEnergyOverdrawMission 0
scalar OsgEarthNet.uav[29] utilizationEnergyOverdrawMaintenance 0
scalar OsgEarthNet.uav[29] utilizationCountMissions 63
scalar OsgEarthNet.uav[29] utilizationCountManeuversMission 1174
scalar OsgEarthNet.uav[29] utilizationCountManeuversMaintenance 126
scalar OsgEarthNet.uav[29] utilizationCountChargeState 63
scalar OsgEarthNet.uav[29] utilizationCountOverdrawnAfterMission 0
scalar OsgEarthNet.uav[29] utilizationCountIdleState 9
scalar OsgEarthNet.uav[29] utilizationFail 0
scalar OsgEarthNet.uav[29] simulationTime 259200
scalar OsgEarthNet.uav[30] utilizationSecMission 35868.321688432
scalar OsgEarthNet.uav[30] utilizationSecMaintenance 14700.729055903
scalar OsgEarthNet.uav[30] utilizationSecCharge 184700
scalar OsgEarthNet.uav[30] utilizationSecIdle 23930.948255665
scalar OsgEarthNet.uav[30] utilizationEnergyMission 174389.35120392
scalar OsgEarthNet.uav[30] utilizationEnergyMaintenance 67790.09624945
scalar OsgEarthNet.uav[30] utilizationEnergyCharge 239790.45654297
scalar OsgEarthNet.uav[30] utilizationEnergyOverdrawMission 0
scalar OsgEarthNet.uav[30] utilizationEnergyOverdrawMaintenance 0
scalar OsgEarthNet.uav[30] utilizationCountMissions 53
scalar OsgEarthNet.uav[30] utilizationCountManeuversMission 1224
scalar OsgEarthNet.uav[30] utilizationCountManeuversMaintenance 106
scalar OsgEarthNet.uav[30] utilizationCountChargeState 52
scalar OsgEarthNet.uav[30] utilizationCountOverdrawnAfterMission 0
scalar OsgEarthNet.uav[30] utilizationCountIdleState 52
scalar OsgEarthNet.uav[30] utilizationFail 0
scalar OsgEarthNet.uav[30] simulationTime 259200
scalar OsgEarthNet.uav[31] utilizationSecMission 34064.649534554
scalar OsgEarthNet.uav[31] utilizationSecMaintenance 18980.741605637
scalar OsgEarthNet.uav[31] utilizationSecCharge 193852.60085981
scalar OsgEarthNet.uav[31] utilizationSecIdle 12302.007
scalar OsgEarthNet.uav[31] utilizationEnergyMission 161852.57440948
scalar OsgEarthNet.uav[31] utilizationEnergyMaintenance 90050.311519623
scalar OsgEarthNet.uav[31] utilizationEnergyCharge 250550.63085938
scalar OsgEarthNet.uav[31] utilizationEnergyOverdrawMission 0
scalar OsgEarthNet.uav[31] utilizationEnergyOverdrawMaintenance 0
scalar OsgEarthNet.uav[31] utilizationCountMissions 61
scalar OsgEarthNet.uav[31] utilizationCountManeuversMission 953
scalar OsgEarthNet.uav[31] utilizationCountManeuversMaintenance 122
scalar OsgEarthNet.uav[31] utilizationCountChargeState 61
scalar OsgEarthNet.uav[31] utilizationCountOverdrawnAfterMission 0
scalar OsgEarthNet.uav[31] utilizationCountIdleState 38
scalar OsgEarthNet.uav[31] utilizationFail 0
scalar OsgEarthNet.uav[31] simulationTime 259200
scalar OsgEarthNet.uav[32] utilizationSecMission 37170.122664155
scalar OsgEarthNet.uav[32] utilizationSecMaintenance 13590.83256643
scalar OsgEarthNet.uav[32] utilizationSecCharge 184881.59350538
scalar OsgEarthNet.uav[32] utilizationSecIdle 23557.450264031
scalar OsgEarthNet.uav[32] utilizationEnergyMission 178943.69043732
scalar OsgEarthNet.uav[32] utilizationEnergyMaintenance 62160.202445984
scalar OsgEarthNet.uav[32] utilizationEnergyCharge 241273.86425781
scalar OsgEarthNet.uav[32] utilizationEnergyOverdrawMission 0
scalar OsgEarthNet.uav[32] utilizationEnergyOverdrawMaintenance 0
scalar OsgEarthNet.uav[32] utilizationCountMissions 52
scalar OsgEarthNet.uav[32] utilizationCountManeuversMission 1112
scalar OsgEarthNet.uav[32] utilizationCountManeuversMaintenance 104
scalar OsgEarthNet.uav[32] utilizationCountChargeState 52
scalar OsgEarthNet.uav[32] utilizationCountOverdrawnAfterMission 0
scalar OsgEarthNet.uav[32] utilizationCountIdleState 49
scalar OsgEarthNet.uav[32] utilizationFail 0
scalar OsgEarthNet.uav[32] simulationTime 259200
scalar OsgEarthNet.uav[33] utilizationSecMission 34442.761090356
scalar OsgEarthNet.uav[33] utilizationSecMaintenance 23167.293673435
scalar OsgEarthNet.uav[33] utilizationSecCharge 196465.92497562
scalar OsgEarthNet.uav[33] utilizationSecIdle 5124.0192605894
scalar OsgEarthNet.uav[33] utilizationEnergyMission 168336.09506226
scalar OsgEarthNet.uav[33] utilizationEnergyMaintenance 110207.74307251
scalar OsgEarthNet.uav[33] utilizationEnergyCharge 278712.48242188
scalar OsgEarthNet.uav[33] utilizationEnergyOverdrawMission 0
scalar OsgEarthNet.uav[33] utilizationEnergyOverdrawMaintenance 0
scalar OsgEarthNet.uav[33] utilizationCountMissions 63
scalar OsgEarthNet.uav[33] utilizationCountManeuversMission 1197
scalar OsgEarthNet.uav[33] utilizationCountManeuversMaintenance 126
scalar OsgEarthNet.uav[33] utilizationCountChargeState 63
scalar OsgEarthNet.uav[33] utilizationCountOverdrawnAfterMission 0
scalar OsgEarthNet.uav[33] utilizationCountIdleState 9
scalar OsgEarthNet.uav[33] utilizationFail 0
scalar OsgEarthNet.uav[33] simulationTime 259200
scalar OsgEarthNet.uav[34] utilizationSecMission 36740.624258032
scalar OsgEarthNet.uav[34] utilizationSecMaintenance 14133.211158813
scalar OsgEarthNet.uav[34] utilizationSecCharge 183730.72049446
scalar OsgEarthNet.uav[34] utilizationSecIdle 24595.443088691
scalar OsgEarthNet.uav[34] utilizationEnergyMission 178550.31083679
scalar OsgEarthNet.uav[34] utilizationEnergyMaintenance 64700.534835815
scalar OsgEarthNet.uav[34] utilizationEnergyCharge 239617.36621094
scalar OsgEarthNet.uav[34] utilizationEnergyOverdrawMission 0
scalar OsgEarthNet.uav[34] utilizationEnergyOverdrawMaintenance 0
scalar OsgEarthNet.uav[34] utilizationCountMissions 52
scalar OsgEarthNet.uav[34] utilizationCountManeuversMission 1113
scalar OsgEarthNet.uav[34] utilizationCountManeuversMaintenance 104
scalar OsgEarthNet.uav[34] utilizationCountChargeState 52
scalar OsgEarthNet.uav[34] utilizationCountOverdrawnAfterMission 0
scalar OsgEarthNet.uav[34] utilizationCountIdleState 51
scalar OsgEarthNet.uav[34] utilizationFail 0
scalar OsgEarthNet.uav[34] simulationTime 259200
scalar OsgEarthNet.uav[35] utilizationSecMission 35714.211375844
scalar OsgEarthNet.uav[35] utilizationSecMaintenance 15125.772337948
scalar OsgEarthNet.uav[35] utilizationSecCharge 185245.51734503
scalar OsgEarthNet.uav[35] utilizationSecIdle 23114.497941176
scalar OsgEarthNet.uav[35] utilizationEnergyMission 174906.38132858
scalar OsgEarthNet.uav[35] utilizationEnergyMaintenance 70146.210426331
scalar OsgEarthNet.uav[35] utilizationEnergyCharge 241271.73754883
scalar OsgEarthNet.uav[35] utilizationEnergyOverdrawMission 0
scalar OsgEarthNet.uav[35] utilizationEnergyOverdrawMaintenance 0
scalar OsgEarthNet.uav[35] utilizationCountMissions 53
scalar OsgEarthNet.uav[35] utilizationCountManeuversMission 1124
scalar OsgEarthNet.uav[35] utilizationCountManeuversMaintenance 106
scalar OsgEarthNet.uav[35] utilizationCountChargeState 53
scalar OsgEarthNet.uav[35] utilizationCountOverdrawnAfterMission 0
scalar OsgEarthNet.uav[35] utilizationCountIdleState 50
scalar OsgEarthNet.uav[35] utilizationFail 0
scalar OsgEarthNet.uav[35] simulationTime 259200
scalar OsgEarthNet.uav[36] utilizationSecMission 36520.577491271
scalar OsgEarthNet.uav[36] utilizationSecMaintenance 14612.731763928
scalar OsgEarthNet.uav[36] utilizationSecCharge 186044.6897448
scalar OsgEarthNet.uav[36] utilizationSecIdle 22022
scalar OsgEarthNet.uav[36] utilizationEnergyMission 176455.25417328
scalar OsgEarthNet.uav[36] utilizationEnergyMaintenance 66670.783546448
scalar OsgEarthNet.uav[36] utilizationEnergyCharge 242714.49755859
scalar OsgEarthNet.uav[36] utilizationEnergyOverdrawMission 0
scalar OsgEarthNet.uav[36] utilizationEnergyOverdrawMaintenance 0
scalar OsgEarthNet.uav[36] utilizationCountMissions 53
scalar OsgEarthNet.uav[36] utilizationCountManeuversMission 1167
scalar OsgEarthNet.uav[36] utilizationCountManeuversMaintenance 105
scalar OsgEarthNet.uav[36] utilizationCountChargeState 53
scalar OsgEarthNet.uav[36] utilizationCountOverdrawnAfterMission 0
scalar OsgEarthNet.uav[36] utilizationCountIdleState 52
scalar OsgEarthNet.uav[36] utilizationFail 0
scalar OsgEarthNet.uav[36] simulationTime 259200
scalar OsgEarthNet.uav[37] utilizationSecMission 34066.619226207
scalar OsgEarthNet.uav[37] utilizationSecMaintenance 19141.269746326
scalar OsgEarthNet.uav[37] utilizationSecCharge 197450.10702747
scalar OsgEarthNet.uav[37] utilizationSecIdle 8542.003
scalar OsgEarthNet.uav[37] utilizationEnergyMission 165506.94735336
scalar OsgEarthNet.uav[37] utilizationEnergyMaintenance 90760.613368988
scalar OsgEarthNet.uav[37] utilizationEnergyCharge 256423.23486328
scalar OsgEarthNet.uav[37] utilizationEnergyOverdrawMission 0
scalar OsgEarthNet.uav[37] utilizationEnergyOverdrawMaintenance 0
scalar OsgEarthNet.uav[37] utilizationCountMissions 61
scalar OsgEarthNet.uav[37] utilizationCountManeuversMission 1029
scalar OsgEarthNet.uav[37] utilizationCountManeuversMaintenance 122
scalar OsgEarthNet.uav[37] utilizationCountChargeState 61
scalar OsgEarthNet.uav[37] utilizationCountOverdrawnAfterMission 0
scalar OsgEarthNet.uav[37] utilizationCountIdleState 42
scalar OsgEarthNet.uav[37] utilizationFail 0
scalar OsgEarthNet.uav[37] simulationTime 259200
scalar OsgEarthNet.uav[38] utilizationSecMission 36519.329900577
scalar OsgEarthNet.uav[38] utilizationSecMaintenance 14148.666099423
scalar OsgEarthNet.uav[38] utilizationSecCharge 184740
scalar OsgEarthNet.uav[38] utilizationSecIdle 23792.003
scalar OsgEarthNet.uav[38] utilizationEnergyMission 174080.38490271
scalar OsgEarthNet.uav[38] utilizationEnergyMaintenance 64972.698699951
scalar OsgEarthNet.uav[38] utilizationEnergyCharge 240097.99853516
scalar OsgEarthNet.uav[38] utilizationEnergyOverdrawMission 0
scalar OsgEarthNet.uav[38] utilizationEnergyOverdrawMaintenance 0
scalar OsgEarthNet.uav[38] utilizationCountMissions 52
scalar OsgEarthNet.uav[38] utilizationCountManeuversMission 1168
scalar OsgEarthNet.uav[38] utilizationCountManeuversMaintenance 105
scalar OsgEarthNet.uav[38] utilizationCountChargeState 52
scalar OsgEarthNet.uav[38] utilizationCountOverdrawnAfterMission 0
scalar OsgEarthNet.uav[38] utilizationCountIdleState 51
scalar OsgEarthNet.uav[38] utilizationFail 0
scalar OsgEarthNet.uav[38] simulationTime 259200
scalar OsgEarthNet.uav[39] utilizationSecMission 35775.650064348
scalar OsgEarthNet.uav[39] utilizationSecMaintenance 17763.458622564
scalar OsgEarthNet.uav[39] utilizationSecCharge 194028.88831309
scalar OsgEarthNet.uav[39] utilizationSecIdle 11632.002
scalar OsgEarthNet.uav[39] utilizationEnergyMission 170751.80631638
scalar OsgEarthNet.uav[39] utilizationEnergyMaintenance 84535.268436432
scalar OsgEarthNet.uav[39] utilizationEnergyCharge 252965.40356445
scalar OsgEarthNet.uav[39] utilizationEnergyOverdrawMission 0
scalar OsgEarthNet.uav[39] utilizationEnergyOverdrawMaintenance 0
scalar OsgEarthNet.uav[39] utilizationCountMissions 59
scalar OsgEarthNet.uav[39] utilizationCountManeuversMission 925
scalar OsgEarthNet.uav[39] utilizationCountManeuversMaintenance 118
scalar OsgEarthNet.uav[39] utilizationCountChargeState 59
scalar OsgEarthNet.uav[39] utilizationCountOverdrawnAfterMission 0
scalar OsgEarthNet.uav[39] utilizationCountIdleState 40
scalar OsgEarthNet.uav[39] utilizationFail 0
scalar OsgEarthNet.uav[39] simulationTime 259200
scalar OsgEarthNet.uav[40] utilizationSecMission 34924.77787583
scalar OsgEarthNet.uav[40] utilizationSecMaintenance 14846.531598316
scalar OsgEarthNet.uav[40] utilizationSecCharge 184720
scalar OsgEarthNet.uav[40] utilizationSecIdle 24708.689525854
scalar OsgEarthNet.uav[40] utilizationEnergyMission 169368.81472397
scalar OsgEarthNet.uav[40] utilizationEnergyMaintenance 69984.022979736
scalar OsgEarthNet.uav[40] utilizationEnergyCharge 239548.89257812
scalar OsgEarthNet.uav[40] utilizationEnergyOverdrawMission 0
scalar OsgEarthNet.uav[40] utilizationEnergyOverdrawMaintenance 0
scalar OsgEarthNet.uav[40] utilizationCountMissions 52
scalar OsgEarthNet.uav[40] utilizationCountManeuversMission 1181
scalar OsgEarthNet.uav[40] utilizationCountManeuversMaintenance 104
scalar OsgEarthNet.uav[40] utilizationCountChargeState 52
scalar OsgEarthNet.uav[40] utilizationCountOverdrawnAfterMission 0
scalar OsgEarthNet.uav[40] utilizationCountIdleState 51
scalar OsgEarthNet.uav[40] utilizationFail 0
scalar OsgEarthNet.uav[40] simulationTime 259200
scalar OsgEarthNet.uav[41] utilizationSecMission 35175.393955595
scalar OsgEarthNet.uav[41] utilizationSecMaintenance 18150.936866418
scalar OsgEarthNet.uav[41] utilizationSecCharge 194930
scalar OsgEarthNet.uav[41] utilizationSecIdle 10943.668177988
scalar OsgEarthNet.uav[41] utilizationEnergyMission 165987.88523483
scalar OsgEarthNet.uav[41] utilizationEnergyMaintenance 86570.206678069
scalar OsgEarthNet.uav[41] utilizationEnergyCharge 253620.51904297
scalar OsgEarthNet.uav[41] utilizationEnergyOverdrawMission 0
scalar OsgEarthNet.uav[41] utilizationEnergyOverdrawMaintenance 0
scalar OsgEarthNet.uav[41] utilizationCountMissions 59
scalar OsgEarthNet.uav[41] utilizationCountManeuversMission 966
scalar OsgEarthNet.uav[41] utilizationCountManeuversMaintenance 119
scalar OsgEarthNet.uav[41] utilizationCountChargeState 59
scalar OsgEarthNet.uav[41] utilizationCountOverdrawnAfterMission 0
scalar OsgEarthNet.uav[41] utilizationCountIdleState 34
scalar OsgEarthNet.uav[41] utilizationFail 0
scalar OsgEarthNet.uav[41] simulationTime 259200
scalar OsgEarthNet.uav[42] utilizationSecMission 35704.120982396
scalar OsgEarthNet.uav[42] utilizationSecMaintenance 14918.635140974
scalar OsgEarthNet.uav[42] utilizationSecCharge 185907.61179596
scalar OsgEarthNet.uav[42] utilizationSecIdle 22669.631080665
scalar OsgEarthNet.uav[42] utilizationEnergyMission 172786.90613556
scalar OsgEarthNet.uav[42] utilizationEnergyMaintenance 69735.096477509
scalar OsgEarthNet.uav[42] utilizationEnergyCharge 241783.78100586
scalar OsgEarthNet.uav[42] utilizationEnergyOverdrawMission 0
scalar OsgEarthNet.uav[42] utilizationEnergyOverdrawMaintenance 0
scalar OsgEarthNet.uav[42] utilizationCountMissions 53
scalar OsgEarthNet.uav[42] utilizationCountManeuversMission 1242
scalar OsgEarthNet.uav[42] utilizationCountManeuversMaintenance 106
scalar OsgEarthNet.uav[42] utilizationCountChargeState 53
scalar OsgEarthNet.uav[42] utilizationCountOverdrawnAfterMission 0
scalar OsgEarthNet.uav[42] utilizationCountIdleState 53
scalar OsgEarthNet.uav[42] utilizationFail 0
scalar OsgEarthNet.uav[42] simulationTime 259200
scalar OsgEarthNet.uav[43] utilizationSecMission 33359.119249954
scalar OsgEarthNet.uav[43] utilizationSecMaintenance 24854.738340855
scalar OsgEarthNet.uav[43] utilizationSecCharge 195864.13240919
scalar OsgEarthNet.uav[43] utilizationSecIdle 5122.009
scalar OsgEarthNet.uav[43] utilizationEnergyMission 164272.67635727
scalar OsgEarthNet.uav[43] utilizationEnergyMaintenance 118126.30688477
scalar OsgEarthNet.uav[43] utilizationEnergyCharge 279017.40026855
scalar OsgEarthNet.uav[43] utilizationEnergyOverdrawMission 0
scalar OsgEarthNet.uav[43] utilizationEnergyOverdrawMaintenance 0
scalar OsgEarthNet.uav[43] utilizationCountMissions 64
scalar OsgEarthNet.uav[43] utilizationCountManeuversMission 1282
scalar OsgEarthNet.uav[43] utilizationCountManeuversMaintenance 128
scalar OsgEarthNet.uav[43] utilizationCountChargeState 64
scalar OsgEarthNet.uav[43] utilizationCountOverdrawnAfterMission 0
scalar OsgEarthNet.uav[43] utilizationCountIdleState 8
scalar OsgEarthNet.uav[43] utilizationFail 0
scalar OsgEarthNet.uav[43] simulationTime 259200
scalar OsgEarthNet.uav[44] utilizationSecMission 33330.682727808
scalar OsgEarthNet.uav[44] utilizationSecMaintenance 19088.782622764
scalar OsgEarthNet.uav[44] utilizationSecCharge 194840
scalar OsgEarthNet.uav[44] utilizationSecIdle 11940.533649428
scalar OsgEarthNet.uav[44] utilizationEnergyMission 160303.16991806
scalar OsgEarthNet.uav[44] utilizationEnergyMaintenance 90661.488666534
scalar OsgEarthNet.uav[44] utilizationEnergyCharge 249011.91430664
scalar OsgEarthNet.uav[44] utilizationEnergyOverdrawMission 0
scalar OsgEarthNet.uav[44] utilizationEnergyOverdrawMaintenance 0
scalar OsgEarthNet.uav[44] utilizationCountMissions 62
scalar OsgEarthNet.uav[44] utilizationCountManeuversMission 976
scalar OsgEarthNet.uav[44] utilizationCountManeuversMaintenance 124
scalar OsgEarthNet.uav[44] utilizationCountChargeState 62
scalar OsgEarthNet.uav[44] utilizationCountOverdrawnAfterMission 0
scalar OsgEarthNet.uav[44] utilizationCountIdleState 36
scalar OsgEarthNet.uav[44] utilizationFail 0
scalar OsgEarthNet.uav[44] simulationTime 259200
scalar OsgEarthNet.uav[45] utilizationSecMission 35564.402539823
scalar OsgEarthNet.uav[45] utilizationSecMaintenance 15272.044876617
scalar OsgEarthNet.uav[45] utilizationSecCharge 185684.33196964
scalar OsgEarthNet.uav[45] utilizationSecIdle 22679.219613916
scalar OsgEarthNet.uav[45] utilizationEnergyMission 170682.38489914
scalar OsgEarthNet.uav[45] utilizationEnergyMaintenance 72830.344112396
scalar OsgEarthNet.uav[45] utilizationEnergyCharge 243009.13061523
scalar OsgEarthNet.uav[45] utilizationEnergyOverdrawMission 0
scalar OsgEarthNet.uav[45] utilizationEnergyOverdrawMaintenance 0
scalar OsgEarthNet.uav[45] utilizationCountMissions 53
scalar OsgEarthNet.uav[45] utilizationCountManeuversMission 1130
scalar OsgEarthNet.uav[45] utilizationCountManeuversMaintenance 106
scalar OsgEarthNet.uav[45] utilizationCountChargeState 53
scalar OsgEarthNet.uav[45] utilizationCountOverdrawnAfterMission 0
scalar OsgEarthNet.uav[45] utilizationCountIdleState 51
scalar OsgEarthNet.uav[45] utilizationFail 0
scalar OsgEarthNet.uav[45] simulationTime 259200
scalar OsgEarthNet.uav[46] utilizationSecMission 34891.986974105
scalar OsgEarthNet.uav[46] utilizationSecMaintenance 23616.622819254
scalar OsgEarthNet.uav[46] utilizationSecCharge 197732.07110531
scalar OsgEarthNet.uav[46] utilizationSecIdle 2959.3181013329
scalar OsgEarthNet.uav[46] utilizationEnergyMission 172189.24199295
scalar OsgEarthNet.uav[46] utilizationEnergyMaintenance 112375.21859741
scalar OsgEarthNet.uav[46] utilizationEnergyCharge 282010.30249023
scalar OsgEarthNet.uav[46] utilizationEnergyOverdrawMission 0
scalar OsgEarthNet.uav[46] utilizationEnergyOverdrawMaintenance 0
scalar OsgEarthNet.uav[46] utilizationCountMissions 64
scalar OsgEarthNet.uav[46] utilizationCountManeuversMission 1233
scalar OsgEarthNet.uav[46] utilizationCountManeuversMaintenance 128
scalar OsgEarthNet.uav[46] utilizationCountChargeState 64
scalar OsgEarthNet.uav[46] utilizationCountOverdrawnAfterMission 0
scalar OsgEarthNet.uav[46] utilizationCountIdleState 11
scalar OsgEarthNet.uav[46] utilizationFail 0
scalar OsgEarthNet.uav[46] simulationTime 259200
scalar OsgEarthNet.uav[47] utilizationSecMission 33235.874805167
scalar OsgEarthNet.uav[47] utilizationSecMaintenance 19654.716861477
scalar OsgEarthNet.uav[47] utilizationSecCharge 195847.40233336
scalar OsgEarthNet.uav[47] utilizationSecIdle 10462.005
scalar OsgEarthNet.uav[47] utilizationEnergyMission 160692.47926331
scalar OsgEarthNet.uav[47] utilizationEnergyMaintenance 93801.931587219
scalar OsgEarthNet.uav[47] utilizationEnergyCharge 253429.66210938
scalar OsgEarthNet.uav[47] utilizationEnergyOverdrawMission 0
scalar OsgEarthNet.uav[47] utilizationEnergyOverdrawMaintenance 0
scalar OsgEarthNet.uav[47] utilizationCountMissions 62
scalar OsgEarthNet.uav[47] utilizationCountManeuversMission 1030
scalar OsgEarthNet.uav[47] utilizationCountManeuversMaintenance 124
scalar OsgEarthNet.uav[47] utilizationCountChargeState 62
scalar OsgEarthNet.uav[47] utilizationCountOverdrawnAfterMission 0
scalar OsgEarthNet.uav[47] utilizationCountIdleState 38
scalar OsgEarthNet.uav[47] utilizationFail 0
scalar OsgEarthNet.uav[47] simulationTime 259200
scalar OsgEarthNet.uav[48] utilizationSecMission 35017.669812996
scalar OsgEarthNet.uav[48] utilizationSecMaintenance 22851.638396496
scalar OsgEarthNet.uav[48] utilizationSecCharge 198191.72207487
scalar OsgEarthNet.uav[48] utilizationSecIdle 3138.9687156399
scalar OsgEarthNet.uav[48] utilizationEnergyMission 171182.79373169
scalar OsgEarthNet.uav[48] utilizationEnergyMaintenance 108831.62942505
scalar OsgEarthNet.uav[48] utilizationEnergyCharge 281078.78076172
scalar OsgEarthNet.uav[48] utilizationEnergyOverdrawMission 0
scalar OsgEarthNet.uav[48] utilizationEnergyOverdrawMaintenance 0
scalar OsgEarthNet.uav[48] utilizationCountMissions 63
scalar OsgEarthNet.uav[48] utilizationCountManeuversMission 1167
scalar OsgEarthNet.uav[48] utilizationCountManeuversMaintenance 126
scalar OsgEarthNet.uav[48] utilizationCountChargeState 63
scalar OsgEarthNet.uav[48] utilizationCountOverdrawnAfterMission 0
scalar OsgEarthNet.uav[48] utilizationCountIdleState 11
scalar OsgEarthNet.uav[48] utilizationFail 0
scalar OsgEarthNet.uav[48] simulationTime 259200
scalar OsgEarthNet.uav[49] utilizationSecMission 32143.490845
scalar OsgEarthNet.uav[49] utilizationSecMaintenance 19875.756521871
scalar OsgEarthNet.uav[49] utilizationSecCharge 196350
scalar OsgEarthNet.uav[49] utilizationSecIdle 10830.751633129
scalar OsgEarthNet.uav[49] utilizationEnergyMission 153921.05115509
scalar OsgEarthNet.uav[49] utilizationEnergyMaintenance 93847.281175603
scalar OsgEarthNet.uav[49] utilizationEnergyCharge 244476.61962891
scalar OsgEarthNet.uav[49] utilizationEnergyOverdrawMission 0
scalar OsgEarthNet.uav[49] utilizationEnergyOverdrawMaintenance 0
scalar OsgEarthNet.uav[49] utilizationCountMissions 66
scalar OsgEarthNet.uav[49] utilizationCountManeuversMission 890
scalar OsgEarthNet.uav[49] utilizationCountManeuversMaintenance 132
scalar OsgEarthNet.uav[49] utilizationCountChargeState 65
scalar OsgEarthNet.uav[49] utilizationCountOverdrawnAfterMission 0
scalar OsgEarthNet.uav[49] utilizationCountIdleState 40
scalar OsgEarthNet.uav[49] utilizationFail 0
scalar OsgEarthNet.uav[49] simulationTime 259200
scalar OsgEarthNet.uav[50] utilizationSecMission 34202.135937776
scalar OsgEarthNet.uav[50] utilizationSecMaintenance 23508.875191575
scalar OsgEarthNet.uav[50] utilizationSecCharge 196746.97987065
scalar OsgEarthNet.uav[50] utilizationSecIdle 4742.008
scalar OsgEarthNet.uav[50] utilizationEnergyMission 167069.03973007
scalar OsgEarthNet.uav[50] utilizationEnergyMaintenance 111915.72946167
scalar OsgEarthNet.uav[50] utilizationEnergyCharge 279265.92919922
scalar OsgEarthNet.uav[50] utilizationEnergyOverdrawMission 0
scalar OsgEarthNet.uav[50] utilizationEnergyOverdrawMaintenance 0
scalar OsgEarthNet.uav[50] utilizationCountMissions 63
scalar OsgEarthNet.uav[50] utilizationCountManeuversMission 1211
scalar OsgEarthNet.uav[50] utilizationCountManeuversMaintenance 126
scalar OsgEarthNet.uav[50] utilizationCountChargeState 63
scalar OsgEarthNet.uav[50] utilizationCountOverdrawnAfterMission 0
scalar OsgEarthNet.uav[50] utilizationCountIdleState 7
scalar OsgEarthNet.uav[50] utilizationFail 0
scalar OsgEarthNet.uav[50] simulationTime 259200
scalar OsgEarthNet.uav[51] utilizationSecMission 33453.836513314
scalar OsgEarthNet.uav[51] utilizationSecMaintenance 18906.378538878
scalar OsgEarthNet.uav[51] utilizationSecCharge 194967.7814026
scalar OsgEarthNet.uav[51] utilizationSecIdle 11872.002545211
scalar OsgEarthNet.uav[51] utilizationEnergyMission 159118.34047699
scalar OsgEarthNet.uav[51] utilizationEnergyMaintenance 89564.620330811
scalar OsgEarthNet.uav[51] utilizationEnergyCharge 248508.49072266
scalar OsgEarthNet.uav[51] utilizationEnergyOverdrawMission 0
scalar OsgEarthNet.uav[51] utilizationEnergyOverdrawMaintenance 0
scalar OsgEarthNet.uav[51] utilizationCountMissions 63
scalar OsgEarthNet.uav[51] utilizationCountManeuversMission 876
scalar OsgEarthNet.uav[51] utilizationCountManeuversMaintenance 126
scalar OsgEarthNet.uav[51] utilizationCountChargeState 63
scalar OsgEarthNet.uav[51] utilizationCountOverdrawnAfterMission 0
scalar OsgEarthNet.uav[51] utilizationCountIdleState 36
scalar OsgEarthNet.uav[51] utilizationFail 0
scalar OsgEarthNet.uav[51] simulationTime 259200
scalar OsgEarthNet.uav[52] utilizationSecMission 35861.019682642
scalar OsgEarthNet.uav[52] utilizationSecMaintenance 15138.376873643
scalar OsgEarthNet.uav[52] utilizationSecCharge 186528.60144371
scalar OsgEarthNet.uav[52] utilizationSecIdle 21672.001
scalar OsgEarthNet.uav[52] utilizationEnergyMission 175311.44542694
scalar OsgEarthNet.uav[52] utilizationEnergyMaintenance 69495.486995697
scalar OsgEarthNet.uav[52] utilizationEnergyCharge 242919.3359375
scalar OsgEarthNet.uav[52] utilizationEnergyOverdrawMission 0
scalar OsgEarthNet.uav[52] utilizationEnergyOverdrawMaintenance 0
scalar OsgEarthNet.uav[52] utilizationCountMissions 53
scalar OsgEarthNet.uav[52] utilizationCountManeuversMission 1202
scalar OsgEarthNet.uav[52] utilizationCountManeuversMaintenance 106
scalar OsgEarthNet.uav[52] utilizationCountChargeState 53
scalar OsgEarthNet.uav[52] utilizationCountOverdrawnAfterMission 0
scalar OsgEarthNet.uav[52] utilizationCountIdleState 52
scalar OsgEarthNet.uav[52] utilizationFail 0
scalar OsgEarthNet.uav[52] simulationTime 259200
scalar OsgEarthNet.uav[53] utilizationSecMission 35203.106940415
scalar OsgEarthNet.uav[53] utilizationSecMaintenance 15473.626756498
scalar OsgEarthNet.uav[53] utilizationSecCharge 185537.3706285
scalar OsgEarthNet.uav[53] utilizationSecIdle 22985.894674585
scalar OsgEarthNet.uav[53] utilizationEnergyMission 172126.47893906
scalar OsgEarthNet.uav[53] utilizationEnergyMaintenance 70601.407627106
scalar OsgEarthNet.uav[53] utilizationEnergyCharge 240924.36669922
scalar OsgEarthNet.uav[53] utilizationEnergyOverdrawMission 0
scalar OsgEarthNet.uav[53] utilizationEnergyOverdrawMaintenance 0
scalar OsgEarthNet.uav[53] utilizationCountMissions 53
scalar OsgEarthNet.uav[53] utilizationCountManeuversMission 1237
scalar OsgEarthNet.uav[53] utilizationCountManeuversMaintenance 106
scalar OsgEarthNet.uav[53] utilizationCountChargeState 53
scalar OsgEarthNet.uav[53] utilizationCountOverdrawnAfterMission 0
scalar OsgEarthNet.uav[53] utilizationCountIdleState 51
scalar OsgEarthNet.uav[53] utilizationFail 0
scalar OsgEarthNet.uav[53] simulationTime 259200
scalar OsgEarthNet.uav[54] utilizationSecMission 34256.185445818
scalar OsgEarthNet.uav[54] utilizationSecMaintenance 19561.811554182
scalar OsgEarthNet.uav[54] utilizationSecCharge 198670
scalar OsgEarthNet.uav[54] utilizationSecIdle 6712.002
scalar OsgEarthNet.uav[54] utilizationEnergyMission 166027.52769853
scalar OsgEarthNet.uav[54] utilizationEnergyMaintenance 92512.047298431
scalar OsgEarthNet.uav[54] utilizationEnergyCharge 257742.67724609
scalar OsgEarthNet.uav[54] utilizationEnergyOverdrawMission 0
scalar OsgEarthNet.uav[54] utilizationEnergyOverdrawMaintenance 0
scalar OsgEarthNet.uav[54] utilizationCountMissions 61
scalar OsgEarthNet.uav[54] utilizationCountManeuversMission 1037
scalar OsgEarthNet.uav[54] utilizationCountManeuversMaintenance 123
scalar OsgEarthNet.uav[54] utilizationCountChargeState 61
scalar OsgEarthNet.uav[54] utilizationCountOverdrawnAfterMission 0
scalar OsgEarthNet.uav[54] utilizationCountIdleState 31
scalar OsgEarthNet.uav[54] utilizationFail 0
scalar OsgEarthNet.uav[54] simulationTime 259200
scalar OsgEarthNet.uav[55] utilizationSecMission 36116.881151281
scalar OsgEarthNet.uav[55] utilizationSecMaintenance 14667.59567172
scalar OsgEarthNet.uav[55] utilizationSecCharge 186300
scalar OsgEarthNet.uav[55] utilizationSecIdle 22115.522176999
scalar OsgEarthNet.uav[55] utilizationEnergyMission 174676.95336634
scalar OsgEarthNet.uav[55] utilizationEnergyMaintenance 67402.472621918
scalar OsgEarthNet.uav[55] utilizationEnergyCharge 242177.16894531
scalar OsgEarthNet.uav[55] utilizationEnergyOverdrawMission 0
scalar OsgEarthNet.uav[55] utilizationEnergyOverdrawMaintenance 0
scalar OsgEarthNet.uav[55] utilizationCountMissions 53
scalar OsgEarthNet.uav[55] utilizationCountManeuversMission 1115
scalar OsgEarthNet.uav[55] utilizationCountManeuversMaintenance 105
scalar OsgEarthNet.uav[55] utilizationCountChargeState 53
scalar OsgEarthNet.uav[55] utilizationCountOverdrawnAfterMission 0
scalar OsgEarthNet.uav[55] utilizationCountIdleState 51
scalar OsgEarthNet.uav[55] utilizationFail 0
scalar OsgEarthNet.uav[55] simulationTime 259200
scalar OsgEarthNet.uav[56] utilizationSecMission 36029.894349653
scalar OsgEarthNet.uav[56] utilizationSecMaintenance 21931.954126178
scalar OsgEarthNet.uav[56] utilizationSecCharge 198021.53184603
scalar OsgEarthNet.uav[56] utilizationSecIdle 3216.6186781405
scalar OsgEarthNet.uav[56] utilizationEnergyMission 175940.71390533
scalar OsgEarthNet.uav[56] utilizationEnergyMaintenance 104398.19145584
scalar OsgEarthNet.uav[56] utilizationEnergyCharge 280800.76660156
scalar OsgEarthNet.uav[56] utilizationEnergyOverdrawMission 0
scalar OsgEarthNet.uav[56] utilizationEnergyOverdrawMaintenance 0
scalar OsgEarthNet.uav[56] utilizationCountMissions 63
scalar OsgEarthNet.uav[56] utilizationCountManeuversMission 1129
scalar OsgEarthNet.uav[56] utilizationCountManeuversMaintenance 126
scalar OsgEarthNet.uav[56] utilizationCountChargeState 63
scalar OsgEarthNet.uav[56] utilizationCountOverdrawnAfterMission 0
scalar OsgEarthNet.uav[56] utilizationCountIdleState 14
scalar OsgEarthNet.uav[56] utilizationFail 0
scalar OsgEarthNet.uav[56] simulationTime 259200
scalar OsgEarthNet.uav[57] utilizationSecMission 33657.280461187
scalar OsgEarthNet.uav[57] utilizationSecMaintenance 19191.96458665
scalar OsgEarthNet.uav[57] utilizationSecCharge 196428.74795216
scalar OsgEarthNet.uav[57] utilizationSecIdle 9922.006
scalar OsgEarthNet.uav[57] utilizationEnergyMission 162159.32360077
scalar OsgEarthNet.uav[57] utilizationEnergyMaintenance 91250.740516663
scalar OsgEarthNet.uav[57] utilizationEnergyCharge 251426.1394043
scalar OsgEarthNet.uav[57] utilizationEnergyOverdrawMission 0
scalar OsgEarthNet.uav[57] utilizationEnergyOverdrawMaintenance 0
scalar OsgEarthNet.uav[57] utilizationCountMissions 62
scalar OsgEarthNet.uav[57] utilizationCountManeuversMission 1000
scalar OsgEarthNet.uav[57] utilizationCountManeuversMaintenance 124
scalar OsgEarthNet.uav[57] utilizationCountChargeState 62
scalar OsgEarthNet.uav[57] utilizationCountOverdrawnAfterMission 0
scalar OsgEarthNet.uav[57] utilizationCountIdleState 35
scalar OsgEarthNet.uav[57] utilizationFail 0
scalar OsgEarthNet.uav[57] simulationTime 259200
scalar OsgEarthNet.uav[58] utilizationSecMission 34954.821196009
scalar OsgEarthNet.uav[58] utilizationSecMaintenance 15640.195972157
scalar OsgEarthNet.uav[58] utilizationSecCharge 185849.52617843
scalar OsgEarthNet.uav[58] utilizationSecIdle 22755.455653403
scalar OsgEarthNet.uav[58] utilizationEnergyMission 172101.21804428
scalar OsgEarthNet.uav[58] utilizationEnergyMaintenance 72029.824562073
scalar OsgEarthNet.uav[58] utilizationEnergyCharge 242398.31494141
scalar OsgEarthNet.uav[58] utilizationEnergyOverdrawMission 0
scalar OsgEarthNet.uav[58] utilizationEnergyOverdrawMaintenance 0
scalar OsgEarthNet.uav[58] utilizationCountMissions 53
scalar OsgEarthNet.uav[58] utilizationCountManeuversMission 1255
scalar OsgEarthNet.uav[58] utilizationCountManeuversMaintenance 106
scalar OsgEarthNet.uav[58] utilizationCountChargeState 53
scalar OsgEarthNet.uav[58] utilizationCountOverdrawnAfterMission 0
scalar OsgEarthNet.uav[58] utilizationCountIdleState 51
scalar OsgEarthNet.uav[58] utilizationFail 0
scalar OsgEarthNet.uav[58] simulationTime 259200
scalar OsgEarthNet.uav[59] utilizationSecMission 34624.037825513
scalar OsgEarthNet.uav[59] utilizationSecMaintenance 18223.960174487
scalar OsgEarthNet.uav[59] utilizationSecCharge 196470
scalar OsgEarthNet.uav[59] utilizationSecIdle 9882.001
scalar OsgEarthNet.uav[59] utilizationEnergyMission 164838.67777252
scalar OsgEarthNet.uav[59] utilizationEnergyMaintenance 86713.743393589
scalar OsgEarthNet.uav[59] utilizationEnergyCharge 246058.01171875
scalar OsgEarthNet.uav[59] utilizationEnergyOverdrawMission 0
scalar OsgEarthNet.uav[59] utilizationEnergyOverdrawMaintenance 0
scalar OsgEarthNet.uav[59] utilizationCountMissions 64
scalar OsgEarthNet.uav[59] utilizationCountManeuversMission 850
scalar OsgEarthNet.uav[59] utilizationCountManeuversMaintenance 128
scalar OsgEarthNet.uav[59] utilizationCountChargeState 63
scalar OsgEarthNet.uav[59] utilizationCountOverdrawnAfterMission 0
scalar OsgEarthNet.uav[59] utilizationCountIdleState 48
scalar OsgEarthNet.uav[59] utilizationFail 0
scalar OsgEarthNet.uav[59] simulationTime 259200
scalar OsgEarthNet.uav[60] utilizationSecMission 33795.164582127
scalar OsgEarthNet.uav[60] utilizationSecMaintenance 19378.267620486
scalar OsgEarthNet.uav[60] utilizationSecCharge 196023.79984119
scalar OsgEarthNet.uav[60] utilizationSecIdle 10002.7669562
scalar OsgEarthNet.uav[60] utilizationEnergyMission 162261.5381012
scalar OsgEarthNet.uav[60] utilizationEnergyMaintenance 91448.670970917
scalar OsgEarthNet.uav[60] utilizationEnergyCharge 250610.39331055
scalar OsgEarthNet.uav[60] utilizationEnergyOverdrawMission 0
scalar OsgEarthNet.uav[60] utilizationEnergyOverdrawMaintenance 0
scalar OsgEarthNet.uav[60] utilizationCountMissions 63
scalar OsgEarthNet.uav[60] utilizationCountManeuversMission 980
scalar OsgEarthNet.uav[60] utilizationCountManeuversMaintenance 126
scalar OsgEarthNet.uav[60] utilizationCountChargeState 63
scalar OsgEarthNet.uav[60] utilizationCountOverdrawnAfterMission 0
scalar OsgEarthNet.uav[60] utilizationCountIdleState 35
scalar OsgEarthNet.uav[60] utilizationFail 0
scalar OsgEarthNet.uav[60] simulationTime 259200
scalar OsgEarthNet.uav[61] utilizationSecMission 34656.764219169
scalar OsgEarthNet.uav[61] utilizationSecMaintenance 18709.962272433
scalar OsgEarthNet.uav[61] utilizationSecCharge 195665.95642657
scalar OsgEarthNet.uav[61] utilizationSecIdle 10167.316081831
scalar OsgEarthNet.uav[61] utilizationEnergyMission 169289.99137115
scalar OsgEarthNet.uav[61] utilizationEnergyMaintenance 87692.307167053
scalar OsgEarthNet.uav[61] utilizationEnergyCharge 255922.04663086
scalar OsgEarthNet.uav[61] utilizationEnergyOverdrawMission 0
scalar OsgEarthNet.uav[61] utilizationEnergyOverdrawMaintenance 0
scalar OsgEarthNet.uav[61] utilizationCountMissions 60
scalar OsgEarthNet.uav[61] utilizationCountManeuversMission 1030
scalar OsgEarthNet.uav[61] utilizationCountManeuversMaintenance 120
scalar OsgEarthNet.uav[61] utilizationCountChargeState 60
scalar OsgEarthNet.uav[61] utilizationCountOverdrawnAfterMission 0
scalar OsgEarthNet.uav[61] utilizationCountIdleState 33
scalar OsgEarthNet.uav[61] utilizationFail 0
scalar OsgEarthNet.uav[61] simulationTime 259200
scalar OsgEarthNet.uav[62] utilizationSecMission 35807.132549475
scalar OsgEarthNet.uav[62] utilizationSecMaintenance 14921.068700619
scalar OsgEarthNet.uav[62] utilizationSecCharge 184949.79374991
scalar OsgEarthNet.uav[62] utilizationSecIdle 23522.004
scalar OsgEarthNet.uav[62] utilizationEnergyMission 173904.32897949
scalar OsgEarthNet.uav[62] utilizationEnergyMaintenance 68578.733242035
scalar OsgEarthNet.uav[62] utilizationEnergyCharge 240088.30447388
scalar OsgEarthNet.uav[62] utilizationEnergyOverdrawMission 0
scalar OsgEarthNet.uav[62] utilizationEnergyOverdrawMaintenance 0
scalar OsgEarthNet.uav[62] utilizationCountMissions 53
scalar OsgEarthNet.uav[62] utilizationCountManeuversMission 1207
scalar OsgEarthNet.uav[62] utilizationCountManeuversMaintenance 106
scalar OsgEarthNet.uav[62] utilizationCountChargeState 53
scalar OsgEarthNet.uav[62] utilizationCountOverdrawnAfterMission 0
scalar OsgEarthNet.uav[62] utilizationCountIdleState 51
scalar OsgEarthNet.uav[62] utilizationFail 0
scalar OsgEarthNet.uav[62] simulationTime 259200
scalar OsgEarthNet.uav[63] utilizationSecMission 36067.188506526
scalar OsgEarthNet.uav[63] utilizationSecMaintenance 21470.803493474
scalar OsgEarthNet.uav[63] utilizationSecCharge 195680
scalar OsgEarthNet.uav[63] utilizationSecIdle 5982.007
scalar OsgEarthNet.uav[63] utilizationEnergyMission 175250.37424882
scalar OsgEarthNet.uav[63] utilizationEnergyMaintenance 102576.22206497
scalar OsgEarthNet.uav[63] utilizationEnergyCharge 276182.79248047
scalar OsgEarthNet.uav[63] utilizationEnergyOverdrawMission 0
scalar OsgEarthNet.uav[63] utilizationEnergyOverdrawMaintenance 0
scalar OsgEarthNet.uav[63] utilizationCountMissions 62
scalar OsgEarthNet.uav[63] utilizationCountManeuversMission 1123
scalar OsgEarthNet.uav[63] utilizationCountManeuversMaintenance 125
scalar OsgEarthNet.uav[63] utilizationCountChargeState 62
scalar OsgEarthNet.uav[63] utilizationCountOverdrawnAfterMission 0
scalar OsgEarthNet.uav[63] utilizationCountIdleState 15
scalar OsgEarthNet.uav[63] utilizationFail 0
scalar OsgEarthNet.uav[63] simulationTime 259200
scalar OsgEarthNet.uav[64] utilizationSecMission 33643.058431662
scalar OsgEarthNet.uav[64] utilizationSecMaintenance 18797.444807089
scalar OsgEarthNet.uav[64] utilizationSecCharge 199807.49576125
scalar OsgEarthNet.uav[64] utilizationSecIdle 6952
scalar OsgEarthNet.uav[64] utilizationEnergyMission 162908.53252792
scalar OsgEarthNet.uav[64] utilizationEnergyMaintenance 89937.823680878
scalar OsgEarthNet.uav[64] utilizationEnergyCharge 250018.3671875
scalar OsgEarthNet.uav[64] utilizationEnergyOverdrawMission 0
scalar OsgEarthNet.uav[64] utilizationEnergyOverdrawMaintenance 0
scalar OsgEarthNet.uav[64] utilizationCountMissions 65
scalar OsgEarthNet.uav[64] utilizationCountManeuversMission 910
scalar OsgEarthNet.uav[64] utilizationCountManeuversMaintenance 129
scalar OsgEarthNet.uav[64] utilizationCountChargeState 65
scalar OsgEarthNet.uav[64] utilizationCountOverdrawnAfterMission 0
scalar OsgEarthNet.uav[64] utilizationCountIdleState 42
scalar OsgEarthNet.uav[64] utilizationFail 0
scalar OsgEarthNet.uav[64] simulationTime 259200
scalar OsgEarthNet.uav[65] utilizationSecMission 35654.764264803
scalar OsgEarthNet.uav[65] utilizationSecMaintenance 15008.709798916
scalar OsgEarthNet.uav[65] utilizationSecCharge 186484.8518869
scalar OsgEarthNet.uav[65] utilizationSecIdle 22051.673049383
scalar OsgEarthNet.uav[65] utilizationEnergyMission 172460.59003448
scalar OsgEarthNet.uav[65] utilizationEnergyMaintenance 68742.776435852
scalar OsgEarthNet.uav[65] utilizationEnergyCharge 242844.14746094
scalar OsgEarthNet.uav[65] utilizationEnergyOverdrawMission 0
scalar OsgEarthNet.uav[65] utilizationEnergyOverdrawMaintenance 0
scalar OsgEarthNet.uav[65] utilizationCountMissions 53
scalar OsgEarthNet.uav[65] utilizationCountManeuversMission 1168
scalar OsgEarthNet.uav[65] utilizationCountManeuversMaintenance 106
scalar OsgEarthNet.uav[65] utilizationCountChargeState 53
scalar OsgEarthNet.uav[65] utilizationCountOverdrawnAfterMission 0
scalar OsgEarthNet.uav[65] utilizationCountIdleState 51
scalar OsgEarthNet.uav[65] utilizationFail 0
scalar OsgEarthNet.uav[65] simulationTime 259200
scalar OsgEarthNet.cs[0] usedPower 4019243.0419797
scalar OsgEarthNet.cs[0] chargedPower 4019243.0419797
scalar OsgEarthNet.cs[0] chargedMobileNodes 172
scalar OsgEarthNet.cs[0] reservations 910
scalar OsgEarthNet.cs[1] usedPower 5715799.9887286
scalar OsgEarthNet.cs[1] chargedPower 5715799.9887286
scalar OsgEarthNet.cs[1] chargedMobileNodes 844
scalar OsgEarthNet.cs[1] reservations 1418
scalar OsgEarthNet.cs[2] usedPower 6954259.1415034
scalar OsgEarthNet.cs[2] chargedPower 6954259.1415034
scalar OsgEarthNet.cs[2] chargedMobileNodes 1451
scalar OsgEarthNet.cs[2] reservations 1520

