version 2
run Szenario_Hotel_Gabelbach-185-20180719-07:51:08-31688
attr configname Szenario_Hotel_Gabelbach
attr datetime 20180719-07:51:08
attr experiment Szenario_Hotel_Gabelbach
attr inifile omnetpp.ini
attr iterationvars "$replM=2, $biWeight=0.35, $replSearchM=1, $numUAVs=64"
attr iterationvarsf replM=2,biWeight=0.35,replSearchM=1,numUAVs=64-
attr measurement "$replM=2, $biWeight=0.35, $replSearchM=1, $numUAVs=64"
attr network OsgEarthNet
attr processid 31688
attr repetition 17
attr replication #17
attr resultdir results
attr runnumber 185
attr seedset 185
itervar biWeight 0.35
itervar numUAVs 64
itervar replM 2
itervar replSearchM 1
param *.osgEarthScene.scene "\"Szenario_Hotel_Gabelbach.earth\""
param *.playgroundLatitude 50.6830269
param *.playgroundLongitude 10.8538055
param *.playgroundWidth 3500m
param *.playgroundHeight 3500m
param *.cs[0].posX 3537m
param *.cs[0].posY 965m
param *.cs[0].posZ 538m
param *.cs[1].posX 312m
param *.cs[1].posY 1262m
param *.cs[1].posZ 539m
param *.cs[2].posX 2185m
param *.cs[2].posY 3026m
param *.cs[2].posZ 777m
param *.cs[3].posX 10m
param *.cs[3].posY 2200m
param *.cs[3].posZ 560m
param *.cs[4].posX 750m
param *.cs[4].posY 200m
param *.cs[4].posZ 540m
param *.cs[5].posX 2450m
param *.cs[5].posY 180m
param *.cs[5].posZ 524m
param *.cs[6].posX 3140m
param *.cs[6].posY 1790m
param *.cs[6].posZ 606m
param *.numCSs 3
param *.uav[*].replacementMethod 2
param *.uav[*].weightedSumWeight 0.35
param *.missionControl.replacementSearchMethod 1
param *.numUAVs 64
param *.*.timeStep 10s
param *.uav[*].commandPreviewCommandCount 20
param *.missionControl.missionFiles "\"missions\\\\Szenario_WB_Hotel_Gabelbach_Mission_Hotel.waypoints,missions\\\\Szenario_WB_Hotel_Gabelbach_Mission_Kickelhahn.waypoints,missions\\\\Szenario_WB_Hotel_Gabelbach_Mission_Ilmenau_Sportplatz.waypoints,missions\\\\Szenario_WB_Hotel_Gabelbach_Mission_Manebach_Mitte.waypoints,missions\\\\Szenario_WB_Hotel_Gabelbach_Mission_Manebach_Sued.waypoints,missions\\\\Szenario_WB_Hotel_Gabelbach_Hover_HoheSchlaufe.waypoints,missions\\\\Szenario_WB_Hotel_Gabelbach_Hover_Kickelhahn.waypoints,missions\\\\Szenario_WB_Hotel_Gabelbach_Hover_Gabelbachskopf.waypoints,missions\\\\Szenario_WB_Hotel_Gabelbach_Hover_Dachskopf.waypoints\""
param *.uav[0].startX 3537m
param *.uav[0].startY 965m
param *.uav[0].startZ 539m
param *.uav[1].startX 312m
param *.uav[1].startY 1262m
param *.uav[1].startZ 540m
param *.uav[2].startX 2185m
param *.uav[2].startY 3026m
param *.uav[2].startZ 778m
param *.uav[3].startX 3537m
param *.uav[3].startY 965m
param *.uav[3].startZ 539m
param *.uav[4].startX 312m
param *.uav[4].startY 1262m
param *.uav[4].startZ 540m
param *.uav[5].startX 2185m
param *.uav[5].startY 3026m
param *.uav[5].startZ 778m
param *.uav[6].startX 3537m
param *.uav[6].startY 965m
param *.uav[6].startZ 539m
param *.uav[7].startX 312m
param *.uav[7].startY 1262m
param *.uav[7].startZ 540m
param *.uav[8].startX 2185m
param *.uav[8].startY 3026m
param *.uav[8].startZ 778m
param *.uav[9].startX 3537m
param *.uav[9].startY 965m
param *.uav[9].startZ 539m
param *.uav[10].startX 3537m
param *.uav[10].startY 965m
param *.uav[10].startZ 539m
param *.uav[11].startX 312m
param *.uav[11].startY 1262m
param *.uav[11].startZ 540m
param *.uav[12].startX 2185m
param *.uav[12].startY 3026m
param *.uav[12].startZ 778m
param *.uav[13].startX 3537m
param *.uav[13].startY 965m
param *.uav[13].startZ 539m
param *.uav[14].startX 312m
param *.uav[14].startY 1262m
param *.uav[14].startZ 540m
param *.uav[15].startX 2185m
param *.uav[15].startY 3026m
param *.uav[15].startZ 778m
param *.uav[16].startX 3537m
param *.uav[16].startY 965m
param *.uav[16].startZ 539m
param *.uav[17].startX 312m
param *.uav[17].startY 1262m
param *.uav[17].startZ 540m
param *.uav[18].startX 2185m
param *.uav[18].startY 3026m
param *.uav[18].startZ 778m
param *.uav[19].startX 3537m
param *.uav[19].startY 965m
param *.uav[19].startZ 539m
param *.uav[20].startX 3537m
param *.uav[20].startY 965m
param *.uav[20].startZ 539m
param *.uav[21].startX 312m
param *.uav[21].startY 1262m
param *.uav[21].startZ 540m
param *.uav[22].startX 2185m
param *.uav[22].startY 3026m
param *.uav[22].startZ 778m
param *.uav[23].startX 3537m
param *.uav[23].startY 965m
param *.uav[23].startZ 539m
param *.uav[24].startX 312m
param *.uav[24].startY 1262m
param *.uav[24].startZ 540m
param *.uav[25].startX 2185m
param *.uav[25].startY 3026m
param *.uav[25].startZ 778m
param *.uav[26].startX 3537m
param *.uav[26].startY 965m
param *.uav[26].startZ 539m
param *.uav[27].startX 312m
param *.uav[27].startY 1262m
param *.uav[27].startZ 540m
param *.uav[28].startX 2185m
param *.uav[28].startY 3026m
param *.uav[28].startZ 778m
param *.uav[29].startX 3537m
param *.uav[29].startY 965m
param *.uav[29].startZ 539m
param *.uav[30].startX 3537m
param *.uav[30].startY 965m
param *.uav[30].startZ 539m
param *.uav[31].startX 312m
param *.uav[31].startY 1262m
param *.uav[31].startZ 540m
param *.uav[32].startX 2185m
param *.uav[32].startY 3026m
param *.uav[32].startZ 778m
param *.uav[33].startX 3537m
param *.uav[33].startY 965m
param *.uav[33].startZ 539m
param *.uav[34].startX 312m
param *.uav[34].startY 1262m
param *.uav[34].startZ 540m
param *.uav[35].startX 2185m
param *.uav[35].startY 3026m
param *.uav[35].startZ 778m
param *.uav[36].startX 3537m
param *.uav[36].startY 965m
param *.uav[36].startZ 539m
param *.uav[37].startX 312m
param *.uav[37].startY 1262m
param *.uav[37].startZ 540m
param *.uav[38].startX 2185m
param *.uav[38].startY 3026m
param *.uav[38].startZ 778m
param *.uav[39].startX 3537m
param *.uav[39].startY 965m
param *.uav[39].startZ 539m
param *.uav[40].startX 3537m
param *.uav[40].startY 965m
param *.uav[40].startZ 539m
param *.uav[41].startX 312m
param *.uav[41].startY 1262m
param *.uav[41].startZ 540m
param *.uav[42].startX 2185m
param *.uav[42].startY 3026m
param *.uav[42].startZ 778m
param *.uav[43].startX 3537m
param *.uav[43].startY 965m
param *.uav[43].startZ 539m
param *.uav[44].startX 312m
param *.uav[44].startY 1262m
param *.uav[44].startZ 540m
param *.uav[45].startX 2185m
param *.uav[45].startY 3026m
param *.uav[45].startZ 778m
param *.uav[46].startX 3537m
param *.uav[46].startY 965m
param *.uav[46].startZ 539m
param *.uav[47].startX 312m
param *.uav[47].startY 1262m
param *.uav[47].startZ 540m
param *.uav[48].startX 2185m
param *.uav[48].startY 3026m
param *.uav[48].startZ 778m
param *.uav[49].startX 3537m
param *.uav[49].startY 965m
param *.uav[49].startZ 539m
param *.uav[50].startX 3537m
param *.uav[50].startY 965m
param *.uav[50].startZ 539m
param *.uav[51].startX 312m
param *.uav[51].startY 1262m
param *.uav[51].startZ 540m
param *.uav[52].startX 2185m
param *.uav[52].startY 3026m
param *.uav[52].startZ 778m
param *.uav[53].startX 3537m
param *.uav[53].startY 965m
param *.uav[53].startZ 539m
param *.uav[54].startX 312m
param *.uav[54].startY 1262m
param *.uav[54].startZ 540m
param *.uav[55].startX 2185m
param *.uav[55].startY 3026m
param *.uav[55].startZ 778m
param *.uav[56].startX 3537m
param *.uav[56].startY 965m
param *.uav[56].startZ 539m
param *.uav[57].startX 312m
param *.uav[57].startY 1262m
param *.uav[57].startZ 540m
param *.uav[58].startX 2185m
param *.uav[58].startY 3026m
param *.uav[58].startZ 778m
param *.uav[59].startX 3537m
param *.uav[59].startY 965m
param *.uav[59].startZ 539m
param *.uav[60].startX 3537m
param *.uav[60].startY 965m
param *.uav[60].startZ 539m
param *.uav[61].startX 312m
param *.uav[61].startY 1262m
param *.uav[61].startZ 540m
param *.uav[62].startX 2185m
param *.uav[62].startY 3026m
param *.uav[62].startZ 778m
param *.uav[63].startX 3537m
param *.uav[63].startY 965m
param *.uav[63].startZ 539m
param *.uav[64].startX 312m
param *.uav[64].startY 1262m
param *.uav[64].startZ 540m
param *.uav[65].startX 2185m
param *.uav[65].startY 3026m
param *.uav[65].startZ 778m
param *.uav[66].startX 3537m
param *.uav[66].startY 965m
param *.uav[66].startZ 539m
param *.uav[67].startX 312m
param *.uav[67].startY 1262m
param *.uav[67].startZ 540m
param *.uav[68].startX 2185m
param *.uav[68].startY 3026m
param *.uav[68].startZ 778m
param *.uav[69].startX 3537m
param *.uav[69].startY 965m
param *.uav[69].startZ 539m
param *.uav[70].startX 3537m
param *.uav[70].startY 965m
param *.uav[70].startZ 539m
param *.uav[71].startX 312m
param *.uav[71].startY 1262m
param *.uav[71].startZ 540m
param *.uav[72].startX 2185m
param *.uav[72].startY 3026m
param *.uav[72].startZ 778m
param *.uav[73].startX 3537m
param *.uav[73].startY 965m
param *.uav[73].startZ 539m
param *.uav[74].startX 312m
param *.uav[74].startY 1262m
param *.uav[74].startZ 540m
param *.uav[75].startX 2185m
param *.uav[75].startY 3026m
param *.uav[75].startZ 778m
param *.uav[76].startX 3537m
param *.uav[76].startY 965m
param *.uav[76].startZ 539m
param *.uav[77].startX 312m
param *.uav[77].startY 1262m
param *.uav[77].startZ 540m
param *.uav[78].startX 2185m
param *.uav[78].startY 3026m
param *.uav[78].startZ 778m
param *.uav[79].startX 3537m
param *.uav[79].startY 965m
param *.uav[79].startZ 539m
param *.uav[80].startX 3537m
param *.uav[80].startY 965m
param *.uav[80].startZ 539m
param *.uav[81].startX 312m
param *.uav[81].startY 1262m
param *.uav[81].startZ 540m
param *.uav[82].startX 2185m
param *.uav[82].startY 3026m
param *.uav[82].startZ 778m
param *.uav[83].startX 3537m
param *.uav[83].startY 965m
param *.uav[83].startZ 539m
param *.uav[84].startX 312m
param *.uav[84].startY 1262m
param *.uav[84].startZ 540m
param *.uav[85].startX 2185m
param *.uav[85].startY 3026m
param *.uav[85].startZ 778m
param *.uav[86].startX 3537m
param *.uav[86].startY 965m
param *.uav[86].startZ 539m
param *.uav[87].startX 312m
param *.uav[87].startY 1262m
param *.uav[87].startZ 540m
param *.uav[88].startX 2185m
param *.uav[88].startY 3026m
param *.uav[88].startZ 778m
param *.uav[89].startX 3537m
param *.uav[89].startY 965m
param *.uav[89].startZ 539m
param *.uav[90].startX 3537m
param *.uav[90].startY 965m
param *.uav[90].startZ 539m
param *.uav[91].startX 312m
param *.uav[91].startY 1262m
param *.uav[91].startZ 540m
param *.uav[92].startX 2185m
param *.uav[92].startY 3026m
param *.uav[92].startZ 778m
param *.uav[93].startX 3537m
param *.uav[93].startY 965m
param *.uav[93].startZ 539m
param *.uav[94].startX 312m
param *.uav[94].startY 1262m
param *.uav[94].startZ 540m
param *.uav[95].startX 2185m
param *.uav[95].startY 3026m
param *.uav[95].startZ 778m
param *.uav[96].startX 3537m
param *.uav[96].startY 965m
param *.uav[96].startZ 539m
param *.uav[97].startX 312m
param *.uav[97].startY 1262m
param *.uav[97].startZ 540m
param *.uav[98].startX 2185m
param *.uav[98].startY 3026m
param *.uav[98].startZ 778m
param *.uav[99].startX 3537m
param *.uav[99].startY 965m
param *.uav[99].startZ 539m
param *.osgEarthScene.scene "\"boston.earth\""
param *.playgroundLatitude 42.3558
param *.playgroundLongitude -71.0677
param *.playgroundWidth 400m
param *.playgroundHeight 200m
param *.channelController.connectionColor "\"#0000FF40\""
param *.channelController.showConnections false
param *.uav[*].modelURL "\"quadrocopter.small.obj.15.scale.0,0,90.rot\""
param *.uav[*].labelColor "\"#FF7C00CC\""
param *.uav[*].label2Color "\"#FF7C00EE\""
param *.uav[*].batteryCapacity 5200mAh
param *.uav[*].batteryRemaining uav[index].batteryCapacity
param *.uav[*].predictionQuantile 0.95
param *.uav[*].replacementMethod 2
param *.uav[*].weightedSumWeight 0.5
param *.cs[*].modelURL "\"chargingstation_v1.osgt.2.scale.0,0,0.rot.0,0,-15e-1.trans\""
param *.cs[*].spotsWaiting 999
param *.cs[*].spotsCharging 999
param *.cs[*].chargeEffectivenessPercentage 100
param *.cs[*].nonLinearPhaseStartPercentage 85
param *.cs[*].chargeCurrent 6.0A
param *.cs[*].prioritizeFastCharge true
param *.missionControl.replacementSearchMethod 0
param *.*.timeStep 9s

scalar OsgEarthNet.uav[0] utilizationSecMission 39073.609767971
scalar OsgEarthNet.uav[0] utilizationSecMaintenance 17584.640499279
scalar OsgEarthNet.uav[0] utilizationSecCharge 197320.79947708
scalar OsgEarthNet.uav[0] utilizationSecIdle 5220.9492556647
scalar OsgEarthNet.uav[0] utilizationEnergyMission 192667.85410309
scalar OsgEarthNet.uav[0] utilizationEnergyMaintenance 80855.358810425
scalar OsgEarthNet.uav[0] utilizationEnergyCharge 275290.09765625
scalar OsgEarthNet.uav[0] utilizationEnergyOverdrawMission 0
scalar OsgEarthNet.uav[0] utilizationEnergyOverdrawMaintenance 0
scalar OsgEarthNet.uav[0] utilizationCountMissions 60
scalar OsgEarthNet.uav[0] utilizationCountManeuversMission 1415
scalar OsgEarthNet.uav[0] utilizationCountManeuversMaintenance 120
scalar OsgEarthNet.uav[0] utilizationCountChargeState 60
scalar OsgEarthNet.uav[0] utilizationCountOverdrawnAfterMission 0
scalar OsgEarthNet.uav[0] utilizationCountIdleState 16
scalar OsgEarthNet.uav[0] utilizationFail 0
scalar OsgEarthNet.uav[0] simulationTime 259200
scalar OsgEarthNet.uav[1] utilizationSecMission 33902.280750328
scalar OsgEarthNet.uav[1] utilizationSecMaintenance 18093.863425193
scalar OsgEarthNet.uav[1] utilizationSecCharge 192245.3281624
scalar OsgEarthNet.uav[1] utilizationSecIdle 14958.526662077
scalar OsgEarthNet.uav[1] utilizationEnergyMission 164053.29986572
scalar OsgEarthNet.uav[1] utilizationEnergyMaintenance 86244.49369812
scalar OsgEarthNet.uav[1] utilizationEnergyCharge 247976.5949707
scalar OsgEarthNet.uav[1] utilizationEnergyOverdrawMission 0
scalar OsgEarthNet.uav[1] utilizationEnergyOverdrawMaintenance 0
scalar OsgEarthNet.uav[1] utilizationCountMissions 59
scalar OsgEarthNet.uav[1] utilizationCountManeuversMission 950
scalar OsgEarthNet.uav[1] utilizationCountManeuversMaintenance 118
scalar OsgEarthNet.uav[1] utilizationCountChargeState 59
scalar OsgEarthNet.uav[1] utilizationCountOverdrawnAfterMission 0
scalar OsgEarthNet.uav[1] utilizationCountIdleState 48
scalar OsgEarthNet.uav[1] utilizationFail 0
scalar OsgEarthNet.uav[1] simulationTime 259200
scalar OsgEarthNet.uav[2] utilizationSecMission 39309.342425284
scalar OsgEarthNet.uav[2] utilizationSecMaintenance 18326.767654739
scalar OsgEarthNet.uav[2] utilizationSecCharge 197350
scalar OsgEarthNet.uav[2] utilizationSecIdle 4213.8889199767
scalar OsgEarthNet.uav[2] utilizationEnergyMission 189844.11487656
scalar OsgEarthNet.uav[2] utilizationEnergyMaintenance 85673.088558197
scalar OsgEarthNet.uav[2] utilizationEnergyCharge 275651.37646484
scalar OsgEarthNet.uav[2] utilizationEnergyOverdrawMission 0
scalar OsgEarthNet.uav[2] utilizationEnergyOverdrawMaintenance 0
scalar OsgEarthNet.uav[2] utilizationCountMissions 60
scalar OsgEarthNet.uav[2] utilizationCountManeuversMission 1348
scalar OsgEarthNet.uav[2] utilizationCountManeuversMaintenance 121
scalar OsgEarthNet.uav[2] utilizationCountChargeState 60
scalar OsgEarthNet.uav[2] utilizationCountOverdrawnAfterMission 0
scalar OsgEarthNet.uav[2] utilizationCountIdleState 13
scalar OsgEarthNet.uav[2] utilizationFail 0
scalar OsgEarthNet.uav[2] simulationTime 259200
scalar OsgEarthNet.uav[3] utilizationSecMission 30813.477092851
scalar OsgEarthNet.uav[3] utilizationSecMaintenance 19699.375033199
scalar OsgEarthNet.uav[3] utilizationSecCharge 191026.35970185
scalar OsgEarthNet.uav[3] utilizationSecIdle 17660.787172104
scalar OsgEarthNet.uav[3] utilizationEnergyMission 150858.68539047
scalar OsgEarthNet.uav[3] utilizationEnergyMaintenance 93013.053627014
scalar OsgEarthNet.uav[3] utilizationEnergyCharge 240762.92260742
scalar OsgEarthNet.uav[3] utilizationEnergyOverdrawMission 0
scalar OsgEarthNet.uav[3] utilizationEnergyOverdrawMaintenance 0
scalar OsgEarthNet.uav[3] utilizationCountMissions 61
scalar OsgEarthNet.uav[3] utilizationCountManeuversMission 965
scalar OsgEarthNet.uav[3] utilizationCountManeuversMaintenance 122
scalar OsgEarthNet.uav[3] utilizationCountChargeState 61
scalar OsgEarthNet.uav[3] utilizationCountOverdrawnAfterMission 0
scalar OsgEarthNet.uav[3] utilizationCountIdleState 46
scalar OsgEarthNet.uav[3] utilizationFail 0
scalar OsgEarthNet.uav[3] simulationTime 259200
scalar OsgEarthNet.uav[4] utilizationSecMission 31876.681033108
scalar OsgEarthNet.uav[4] utilizationSecMaintenance 18481.523132792
scalar OsgEarthNet.uav[4] utilizationSecCharge 191110
scalar OsgEarthNet.uav[4] utilizationSecIdle 17731.794834099
scalar OsgEarthNet.uav[4] utilizationEnergyMission 151628.43777466
scalar OsgEarthNet.uav[4] utilizationEnergyMaintenance 88264.131227376
scalar OsgEarthNet.uav[4] utilizationEnergyCharge 241636.99072266
scalar OsgEarthNet.uav[4] utilizationEnergyOverdrawMission 0
scalar OsgEarthNet.uav[4] utilizationEnergyOverdrawMaintenance 0
scalar OsgEarthNet.uav[4] utilizationCountMissions 60
scalar OsgEarthNet.uav[4] utilizationCountManeuversMission 925
scalar OsgEarthNet.uav[4] utilizationCountManeuversMaintenance 121
scalar OsgEarthNet.uav[4] utilizationCountChargeState 60
scalar OsgEarthNet.uav[4] utilizationCountOverdrawnAfterMission 0
scalar OsgEarthNet.uav[4] utilizationCountIdleState 48
scalar OsgEarthNet.uav[4] utilizationFail 0
scalar OsgEarthNet.uav[4] simulationTime 259200
scalar OsgEarthNet.uav[5] utilizationSecMission 40237.738703493
scalar OsgEarthNet.uav[5] utilizationSecMaintenance 17498.567258144
scalar OsgEarthNet.uav[5] utilizationSecCharge 198851.69103836
scalar OsgEarthNet.uav[5] utilizationSecIdle 2612.002
scalar OsgEarthNet.uav[5] utilizationEnergyMission 200110.82135391
scalar OsgEarthNet.uav[5] utilizationEnergyMaintenance 80730.67269516
scalar OsgEarthNet.uav[5] utilizationEnergyCharge 276432.18798828
scalar OsgEarthNet.uav[5] utilizationEnergyOverdrawMission 0
scalar OsgEarthNet.uav[5] utilizationEnergyOverdrawMaintenance 0
scalar OsgEarthNet.uav[5] utilizationCountMissions 61
scalar OsgEarthNet.uav[5] utilizationCountManeuversMission 1399
scalar OsgEarthNet.uav[5] utilizationCountManeuversMaintenance 122
scalar OsgEarthNet.uav[5] utilizationCountChargeState 61
scalar OsgEarthNet.uav[5] utilizationCountOverdrawnAfterMission 0
scalar OsgEarthNet.uav[5] utilizationCountIdleState 14
scalar OsgEarthNet.uav[5] utilizationFail 0
scalar OsgEarthNet.uav[5] simulationTime 259200
scalar OsgEarthNet.uav[6] utilizationSecMission 40916.873616805
scalar OsgEarthNet.uav[6] utilizationSecMaintenance 16431.493888139
scalar OsgEarthNet.uav[6] utilizationSecCharge 197019.84549251
scalar OsgEarthNet.uav[6] utilizationSecIdle 4831.7860025465
scalar OsgEarthNet.uav[6] utilizationEnergyMission 196626.92732239
scalar OsgEarthNet.uav[6] utilizationEnergyMaintenance 76109.437755585
scalar OsgEarthNet.uav[6] utilizationEnergyCharge 272511.84912109
scalar OsgEarthNet.uav[6] utilizationEnergyOverdrawMission 0
scalar OsgEarthNet.uav[6] utilizationEnergyOverdrawMaintenance 0
scalar OsgEarthNet.uav[6] utilizationCountMissions 60
scalar OsgEarthNet.uav[6] utilizationCountManeuversMission 1238
scalar OsgEarthNet.uav[6] utilizationCountManeuversMaintenance 120
scalar OsgEarthNet.uav[6] utilizationCountChargeState 60
scalar OsgEarthNet.uav[6] utilizationCountOverdrawnAfterMission 0
scalar OsgEarthNet.uav[6] utilizationCountIdleState 14
scalar OsgEarthNet.uav[6] utilizationFail 0
scalar OsgEarthNet.uav[6] simulationTime 259200
scalar OsgEarthNet.uav[7] utilizationSecMission 32312.893096493
scalar OsgEarthNet.uav[7] utilizationSecMaintenance 18945.720436597
scalar OsgEarthNet.uav[7] utilizationSecCharge 192749.38446691
scalar OsgEarthNet.uav[7] utilizationSecIdle 15192.001
scalar OsgEarthNet.uav[7] utilizationEnergyMission 159351.08067322
scalar OsgEarthNet.uav[7] utilizationEnergyMaintenance 89725.457099915
scalar OsgEarthNet.uav[7] utilizationEnergyCharge 242947.44641113
scalar OsgEarthNet.uav[7] utilizationEnergyOverdrawMission 0
scalar OsgEarthNet.uav[7] utilizationEnergyOverdrawMaintenance 0
scalar OsgEarthNet.uav[7] utilizationCountMissions 61
scalar OsgEarthNet.uav[7] utilizationCountManeuversMission 992
scalar OsgEarthNet.uav[7] utilizationCountManeuversMaintenance 122
scalar OsgEarthNet.uav[7] utilizationCountChargeState 61
scalar OsgEarthNet.uav[7] utilizationCountOverdrawnAfterMission 0
scalar OsgEarthNet.uav[7] utilizationCountIdleState 53
scalar OsgEarthNet.uav[7] utilizationFail 0
scalar OsgEarthNet.uav[7] simulationTime 259200
scalar OsgEarthNet.uav[8] utilizationSecMission 40386.983292442
scalar OsgEarthNet.uav[8] utilizationSecMaintenance 17041.010707558
scalar OsgEarthNet.uav[8] utilizationSecCharge 198410
scalar OsgEarthNet.uav[8] utilizationSecIdle 3362.005
scalar OsgEarthNet.uav[8] utilizationEnergyMission 199601.74643926
scalar OsgEarthNet.uav[8] utilizationEnergyMaintenance 79376.132949829
scalar OsgEarthNet.uav[8] utilizationEnergyCharge 275092.28417969
scalar OsgEarthNet.uav[8] utilizationEnergyOverdrawMission 0
scalar OsgEarthNet.uav[8] utilizationEnergyOverdrawMaintenance 0
scalar OsgEarthNet.uav[8] utilizationCountMissions 60
scalar OsgEarthNet.uav[8] utilizationCountManeuversMission 1418
scalar OsgEarthNet.uav[8] utilizationCountManeuversMaintenance 121
scalar OsgEarthNet.uav[8] utilizationCountChargeState 60
scalar OsgEarthNet.uav[8] utilizationCountOverdrawnAfterMission 0
scalar OsgEarthNet.uav[8] utilizationCountIdleState 13
scalar OsgEarthNet.uav[8] utilizationFail 0
scalar OsgEarthNet.uav[8] simulationTime 259200
scalar OsgEarthNet.uav[9] utilizationSecMission 34941.685383825
scalar OsgEarthNet.uav[9] utilizationSecMaintenance 20063.669194252
scalar OsgEarthNet.uav[9] utilizationSecCharge 195160
scalar OsgEarthNet.uav[9] utilizationSecIdle 9034.6444219229
scalar OsgEarthNet.uav[9] utilizationEnergyMission 168538.00903622
scalar OsgEarthNet.uav[9] utilizationEnergyMaintenance 94911.409030914
scalar OsgEarthNet.uav[9] utilizationEnergyCharge 261957.59179688
scalar OsgEarthNet.uav[9] utilizationEnergyOverdrawMission 0
scalar OsgEarthNet.uav[9] utilizationEnergyOverdrawMaintenance 0
scalar OsgEarthNet.uav[9] utilizationCountMissions 58
scalar OsgEarthNet.uav[9] utilizationCountManeuversMission 1050
scalar OsgEarthNet.uav[9] utilizationCountManeuversMaintenance 117
scalar OsgEarthNet.uav[9] utilizationCountChargeState 58
scalar OsgEarthNet.uav[9] utilizationCountOverdrawnAfterMission 0
scalar OsgEarthNet.uav[9] utilizationCountIdleState 20
scalar OsgEarthNet.uav[9] utilizationFail 0
scalar OsgEarthNet.uav[9] simulationTime 259200
scalar OsgEarthNet.uav[10] utilizationSecMission 32811.252746445
scalar OsgEarthNet.uav[10] utilizationSecMaintenance 22696.737253555
scalar OsgEarthNet.uav[10] utilizationSecCharge 195870
scalar OsgEarthNet.uav[10] utilizationSecIdle 7822.009
scalar OsgEarthNet.uav[10] utilizationEnergyMission 160731.68096542
scalar OsgEarthNet.uav[10] utilizationEnergyMaintenance 108177.94086014
scalar OsgEarthNet.uav[10] utilizationEnergyCharge 266601.36523438
scalar OsgEarthNet.uav[10] utilizationEnergyOverdrawMission 0
scalar OsgEarthNet.uav[10] utilizationEnergyOverdrawMaintenance 0
scalar OsgEarthNet.uav[10] utilizationCountMissions 60
scalar OsgEarthNet.uav[10] utilizationCountManeuversMission 1172
scalar OsgEarthNet.uav[10] utilizationCountManeuversMaintenance 120
scalar OsgEarthNet.uav[10] utilizationCountChargeState 59
scalar OsgEarthNet.uav[10] utilizationCountOverdrawnAfterMission 0
scalar OsgEarthNet.uav[10] utilizationCountIdleState 17
scalar OsgEarthNet.uav[10] utilizationFail 0
scalar OsgEarthNet.uav[10] simulationTime 259200
scalar OsgEarthNet.uav[11] utilizationSecMission 33327.459331318
scalar OsgEarthNet.uav[11] utilizationSecMaintenance 18379.857963926
scalar OsgEarthNet.uav[11] utilizationSecCharge 192290.67670476
scalar OsgEarthNet.uav[11] utilizationSecIdle 15202.005
scalar OsgEarthNet.uav[11] utilizationEnergyMission 158353.18124008
scalar OsgEarthNet.uav[11] utilizationEnergyMaintenance 86649.883548737
scalar OsgEarthNet.uav[11] utilizationEnergyCharge 246361.63989258
scalar OsgEarthNet.uav[11] utilizationEnergyOverdrawMission 0
scalar OsgEarthNet.uav[11] utilizationEnergyOverdrawMaintenance 0
scalar OsgEarthNet.uav[11] utilizationCountMissions 59
scalar OsgEarthNet.uav[11] utilizationCountManeuversMission 969
scalar OsgEarthNet.uav[11] utilizationCountManeuversMaintenance 118
scalar OsgEarthNet.uav[11] utilizationCountChargeState 59
scalar OsgEarthNet.uav[11] utilizationCountOverdrawnAfterMission 0
scalar OsgEarthNet.uav[11] utilizationCountIdleState 48
scalar OsgEarthNet.uav[11] utilizationFail 0
scalar OsgEarthNet.uav[11] simulationTime 259200
scalar OsgEarthNet.uav[12] utilizationSecMission 39799.486016434
scalar OsgEarthNet.uav[12] utilizationSecMaintenance 17358.509983566
scalar OsgEarthNet.uav[12] utilizationSecCharge 197560
scalar OsgEarthNet.uav[12] utilizationSecIdle 4482.003
scalar OsgEarthNet.uav[12] utilizationEnergyMission 189931.74944305
scalar OsgEarthNet.uav[12] utilizationEnergyMaintenance 81104.778850262
scalar OsgEarthNet.uav[12] utilizationEnergyCharge 272780.75341797
scalar OsgEarthNet.uav[12] utilizationEnergyOverdrawMission 0
scalar OsgEarthNet.uav[12] utilizationEnergyOverdrawMaintenance 0
scalar OsgEarthNet.uav[12] utilizationCountMissions 60
scalar OsgEarthNet.uav[12] utilizationCountManeuversMission 1180
scalar OsgEarthNet.uav[12] utilizationCountManeuversMaintenance 121
scalar OsgEarthNet.uav[12] utilizationCountChargeState 60
scalar OsgEarthNet.uav[12] utilizationCountOverdrawnAfterMission 0
scalar OsgEarthNet.uav[12] utilizationCountIdleState 18
scalar OsgEarthNet.uav[12] utilizationFail 0
scalar OsgEarthNet.uav[12] simulationTime 259200
scalar OsgEarthNet.uav[13] utilizationSecMission 33672.503051606
scalar OsgEarthNet.uav[13] utilizationSecMaintenance 21945.457814613
scalar OsgEarthNet.uav[13] utilizationSecCharge 197879.89832064
scalar OsgEarthNet.uav[13] utilizationSecIdle 5702.1398131443
scalar OsgEarthNet.uav[13] utilizationEnergyMission 164704.41093063
scalar OsgEarthNet.uav[13] utilizationEnergyMaintenance 104208.79229355
scalar OsgEarthNet.uav[13] utilizationEnergyCharge 266129.52783203
scalar OsgEarthNet.uav[13] utilizationEnergyOverdrawMission 0
scalar OsgEarthNet.uav[13] utilizationEnergyOverdrawMaintenance 0
scalar OsgEarthNet.uav[13] utilizationCountMissions 60
scalar OsgEarthNet.uav[13] utilizationCountManeuversMission 1163
scalar OsgEarthNet.uav[13] utilizationCountManeuversMaintenance 120
scalar OsgEarthNet.uav[13] utilizationCountChargeState 60
scalar OsgEarthNet.uav[13] utilizationCountOverdrawnAfterMission 0
scalar OsgEarthNet.uav[13] utilizationCountIdleState 21
scalar OsgEarthNet.uav[13] utilizationFail 0
scalar OsgEarthNet.uav[13] simulationTime 259200
scalar OsgEarthNet.uav[14] utilizationSecMission 40067.661403881
scalar OsgEarthNet.uav[14] utilizationSecMaintenance 17216.55378865
scalar OsgEarthNet.uav[14] utilizationSecCharge 197570.34071878
scalar OsgEarthNet.uav[14] utilizationSecIdle 4345.4430886909
scalar OsgEarthNet.uav[14] utilizationEnergyMission 193466.22660065
scalar OsgEarthNet.uav[14] utilizationEnergyMaintenance 79976.223701477
scalar OsgEarthNet.uav[14] utilizationEnergyCharge 274424.16992188
scalar OsgEarthNet.uav[14] utilizationEnergyOverdrawMission 0
scalar OsgEarthNet.uav[14] utilizationEnergyOverdrawMaintenance 0
scalar OsgEarthNet.uav[14] utilizationCountMissions 60
scalar OsgEarthNet.uav[14] utilizationCountManeuversMission 1241
scalar OsgEarthNet.uav[14] utilizationCountManeuversMaintenance 120
scalar OsgEarthNet.uav[14] utilizationCountChargeState 60
scalar OsgEarthNet.uav[14] utilizationCountOverdrawnAfterMission 0
scalar OsgEarthNet.uav[14] utilizationCountIdleState 12
scalar OsgEarthNet.uav[14] utilizationFail 0
scalar OsgEarthNet.uav[14] simulationTime 259200
scalar OsgEarthNet.uav[15] utilizationSecMission 40230.269004643
scalar OsgEarthNet.uav[15] utilizationSecMaintenance 16803.597961051
scalar OsgEarthNet.uav[15] utilizationSecCharge 197689.78181569
scalar OsgEarthNet.uav[15] utilizationSecIdle 4476.3502186181
scalar OsgEarthNet.uav[15] utilizationEnergyMission 197347.35865402
scalar OsgEarthNet.uav[15] utilizationEnergyMaintenance 78056.036224365
scalar OsgEarthNet.uav[15] utilizationEnergyCharge 276709.40576172
scalar OsgEarthNet.uav[15] utilizationEnergyOverdrawMission 0
scalar OsgEarthNet.uav[15] utilizationEnergyOverdrawMaintenance 0
scalar OsgEarthNet.uav[15] utilizationCountMissions 60
scalar OsgEarthNet.uav[15] utilizationCountManeuversMission 1346
scalar OsgEarthNet.uav[15] utilizationCountManeuversMaintenance 120
scalar OsgEarthNet.uav[15] utilizationCountChargeState 60
scalar OsgEarthNet.uav[15] utilizationCountOverdrawnAfterMission 0
scalar OsgEarthNet.uav[15] utilizationCountIdleState 18
scalar OsgEarthNet.uav[15] utilizationFail 0
scalar OsgEarthNet.uav[15] simulationTime 259200
scalar OsgEarthNet.uav[16] utilizationSecMission 31612.355565681
scalar OsgEarthNet.uav[16] utilizationSecMaintenance 24414.87746898
scalar OsgEarthNet.uav[16] utilizationSecCharge 198870
scalar OsgEarthNet.uav[16] utilizationSecIdle 4302.765965339
scalar OsgEarthNet.uav[16] utilizationEnergyMission 156678.28498163
scalar OsgEarthNet.uav[16] utilizationEnergyMaintenance 116708.94115829
scalar OsgEarthNet.uav[16] utilizationEnergyCharge 270944.22412109
scalar OsgEarthNet.uav[16] utilizationEnergyOverdrawMission 0
scalar OsgEarthNet.uav[16] utilizationEnergyOverdrawMaintenance 0
scalar OsgEarthNet.uav[16] utilizationCountMissions 60
scalar OsgEarthNet.uav[16] utilizationCountManeuversMission 1243
scalar OsgEarthNet.uav[16] utilizationCountManeuversMaintenance 121
scalar OsgEarthNet.uav[16] utilizationCountChargeState 60
scalar OsgEarthNet.uav[16] utilizationCountOverdrawnAfterMission 0
scalar OsgEarthNet.uav[16] utilizationCountIdleState 10
scalar OsgEarthNet.uav[16] utilizationFail 0
scalar OsgEarthNet.uav[16] simulationTime 259200
scalar OsgEarthNet.uav[17] utilizationSecMission 33476.764219169
scalar OsgEarthNet.uav[17] utilizationSecMaintenance 17908.59620119
scalar OsgEarthNet.uav[17] utilizationSecCharge 192286.28497676
scalar OsgEarthNet.uav[17] utilizationSecIdle 15528.353602879
scalar OsgEarthNet.uav[17] utilizationEnergyMission 160532.35637283
scalar OsgEarthNet.uav[17] utilizationEnergyMaintenance 85834.407688141
scalar OsgEarthNet.uav[17] utilizationEnergyCharge 246214.09423828
scalar OsgEarthNet.uav[17] utilizationEnergyOverdrawMission 0
scalar OsgEarthNet.uav[17] utilizationEnergyOverdrawMaintenance 0
scalar OsgEarthNet.uav[17] utilizationCountMissions 58
scalar OsgEarthNet.uav[17] utilizationCountManeuversMission 971
scalar OsgEarthNet.uav[17] utilizationCountManeuversMaintenance 116
scalar OsgEarthNet.uav[17] utilizationCountChargeState 58
scalar OsgEarthNet.uav[17] utilizationCountOverdrawnAfterMission 0
scalar OsgEarthNet.uav[17] utilizationCountIdleState 47
scalar OsgEarthNet.uav[17] utilizationFail 0
scalar OsgEarthNet.uav[17] simulationTime 259200
scalar OsgEarthNet.uav[18] utilizationSecMission 41492.724673324
scalar OsgEarthNet.uav[18] utilizationSecMaintenance 16160.649282703
scalar OsgEarthNet.uav[18] utilizationSecCharge 197907.40543006
scalar OsgEarthNet.uav[18] utilizationSecIdle 3639.2196139157
scalar OsgEarthNet.uav[18] utilizationEnergyMission 200254.42670822
scalar OsgEarthNet.uav[18] utilizationEnergyMaintenance 73501.564743042
scalar OsgEarthNet.uav[18] utilizationEnergyCharge 276247.60839844
scalar OsgEarthNet.uav[18] utilizationEnergyOverdrawMission 0
scalar OsgEarthNet.uav[18] utilizationEnergyOverdrawMaintenance 0
scalar OsgEarthNet.uav[18] utilizationCountMissions 60
scalar OsgEarthNet.uav[18] utilizationCountManeuversMission 1228
scalar OsgEarthNet.uav[18] utilizationCountManeuversMaintenance 120
scalar OsgEarthNet.uav[18] utilizationCountChargeState 60
scalar OsgEarthNet.uav[18] utilizationCountOverdrawnAfterMission 0
scalar OsgEarthNet.uav[18] utilizationCountIdleState 15
scalar OsgEarthNet.uav[18] utilizationFail 0
scalar OsgEarthNet.uav[18] simulationTime 259200
scalar OsgEarthNet.uav[19] utilizationSecMission 32952.503051606
scalar OsgEarthNet.uav[19] utilizationSecMaintenance 22042.198699035
scalar OsgEarthNet.uav[19] utilizationSecCharge 196863.28924936
scalar OsgEarthNet.uav[19] utilizationSecIdle 7342.008
scalar OsgEarthNet.uav[19] utilizationEnergyMission 161652.55669403
scalar OsgEarthNet.uav[19] utilizationEnergyMaintenance 105535.30573273
scalar OsgEarthNet.uav[19] utilizationEnergyCharge 266816.00244141
scalar OsgEarthNet.uav[19] utilizationEnergyOverdrawMission 0
scalar OsgEarthNet.uav[19] utilizationEnergyOverdrawMaintenance 0
scalar OsgEarthNet.uav[19] utilizationCountMissions 59
scalar OsgEarthNet.uav[19] utilizationCountManeuversMission 1127
scalar OsgEarthNet.uav[19] utilizationCountManeuversMaintenance 118
scalar OsgEarthNet.uav[19] utilizationCountChargeState 59
scalar OsgEarthNet.uav[19] utilizationCountOverdrawnAfterMission 0
scalar OsgEarthNet.uav[19] utilizationCountIdleState 17
scalar OsgEarthNet.uav[19] utilizationFail 0
scalar OsgEarthNet.uav[19] simulationTime 259200
scalar OsgEarthNet.uav[20] utilizationSecMission 33258.617352084
scalar OsgEarthNet.uav[20] utilizationSecMaintenance 18213.810148646
scalar OsgEarthNet.uav[20] utilizationSecCharge 193075.57149927
scalar OsgEarthNet.uav[20] utilizationSecIdle 14652
scalar OsgEarthNet.uav[20] utilizationEnergyMission 160990.90078735
scalar OsgEarthNet.uav[20] utilizationEnergyMaintenance 86111.872116089
scalar OsgEarthNet.uav[20] utilizationEnergyCharge 246270.00219727
scalar OsgEarthNet.uav[20] utilizationEnergyOverdrawMission 0
scalar OsgEarthNet.uav[20] utilizationEnergyOverdrawMaintenance 0
scalar OsgEarthNet.uav[20] utilizationCountMissions 60
scalar OsgEarthNet.uav[20] utilizationCountManeuversMission 877
scalar OsgEarthNet.uav[20] utilizationCountManeuversMaintenance 120
scalar OsgEarthNet.uav[20] utilizationCountChargeState 60
scalar OsgEarthNet.uav[20] utilizationCountOverdrawnAfterMission 0
scalar OsgEarthNet.uav[20] utilizationCountIdleState 44
scalar OsgEarthNet.uav[20] utilizationFail 0
scalar OsgEarthNet.uav[20] simulationTime 259200
scalar OsgEarthNet.uav[21] utilizationSecMission 34064.595696659
scalar OsgEarthNet.uav[21] utilizationSecMaintenance 17771.600388589
scalar OsgEarthNet.uav[21] utilizationSecCharge 189680
scalar OsgEarthNet.uav[21] utilizationSecIdle 17683.802914752
scalar OsgEarthNet.uav[21] utilizationEnergyMission 162536.68973923
scalar OsgEarthNet.uav[21] utilizationEnergyMaintenance 84005.352145058
scalar OsgEarthNet.uav[21] utilizationEnergyCharge 241196.8659668
scalar OsgEarthNet.uav[21] utilizationEnergyOverdrawMission 0
scalar OsgEarthNet.uav[21] utilizationEnergyOverdrawMaintenance 0
scalar OsgEarthNet.uav[21] utilizationCountMissions 59
scalar OsgEarthNet.uav[21] utilizationCountManeuversMission 1018
scalar OsgEarthNet.uav[21] utilizationCountManeuversMaintenance 118
scalar OsgEarthNet.uav[21] utilizationCountChargeState 58
scalar OsgEarthNet.uav[21] utilizationCountOverdrawnAfterMission 0
scalar OsgEarthNet.uav[21] utilizationCountIdleState 50
scalar OsgEarthNet.uav[21] utilizationFail 0
scalar OsgEarthNet.uav[21] simulationTime 259200
scalar OsgEarthNet.uav[22] utilizationSecMission 40427.188730003
scalar OsgEarthNet.uav[22] utilizationSecMaintenance 17371.065985522
scalar OsgEarthNet.uav[22] utilizationSecCharge 198199.74428448
scalar OsgEarthNet.uav[22] utilizationSecIdle 3202
scalar OsgEarthNet.uav[22] utilizationEnergyMission 196560.21494293
scalar OsgEarthNet.uav[22] utilizationEnergyMaintenance 80662.659305573
scalar OsgEarthNet.uav[22] utilizationEnergyCharge 280154.58544922
scalar OsgEarthNet.uav[22] utilizationEnergyOverdrawMission 0
scalar OsgEarthNet.uav[22] utilizationEnergyOverdrawMaintenance 0
scalar OsgEarthNet.uav[22] utilizationCountMissions 61
scalar OsgEarthNet.uav[22] utilizationCountManeuversMission 1440
scalar OsgEarthNet.uav[22] utilizationCountManeuversMaintenance 122
scalar OsgEarthNet.uav[22] utilizationCountChargeState 61
scalar OsgEarthNet.uav[22] utilizationCountOverdrawnAfterMission 0
scalar OsgEarthNet.uav[22] utilizationCountIdleState 15
scalar OsgEarthNet.uav[22] utilizationFail 0
scalar OsgEarthNet.uav[22] simulationTime 259200
scalar OsgEarthNet.uav[23] utilizationSecMission 40593.358972579
scalar OsgEarthNet.uav[23] utilizationSecMaintenance 16912.463812235
scalar OsgEarthNet.uav[23] utilizationSecCharge 196860.21817582
scalar OsgEarthNet.uav[23] utilizationSecIdle 4833.9580393621
scalar OsgEarthNet.uav[23] utilizationEnergyMission 197016.68419647
scalar OsgEarthNet.uav[23] utilizationEnergyMaintenance 77706.785057068
scalar OsgEarthNet.uav[23] utilizationEnergyCharge 273598.08251953
scalar OsgEarthNet.uav[23] utilizationEnergyOverdrawMission 0
scalar OsgEarthNet.uav[23] utilizationEnergyOverdrawMaintenance 0
scalar OsgEarthNet.uav[23] utilizationCountMissions 60
scalar OsgEarthNet.uav[23] utilizationCountManeuversMission 1256
scalar OsgEarthNet.uav[23] utilizationCountManeuversMaintenance 120
scalar OsgEarthNet.uav[23] utilizationCountChargeState 60
scalar OsgEarthNet.uav[23] utilizationCountOverdrawnAfterMission 0
scalar OsgEarthNet.uav[23] utilizationCountIdleState 15
scalar OsgEarthNet.uav[23] utilizationFail 0
scalar OsgEarthNet.uav[23] simulationTime 259200
scalar OsgEarthNet.uav[24] utilizationSecMission 30952.63698774
scalar OsgEarthNet.uav[24] utilizationSecMaintenance 19487.830843014
scalar OsgEarthNet.uav[24] utilizationSecCharge 190967.52716925
scalar OsgEarthNet.uav[24] utilizationSecIdle 17792.004
scalar OsgEarthNet.uav[24] utilizationEnergyMission 149071.5725975
scalar OsgEarthNet.uav[24] utilizationEnergyMaintenance 92824.665657043
scalar OsgEarthNet.uav[24] utilizationEnergyCharge 240555.2487793
scalar OsgEarthNet.uav[24] utilizationEnergyOverdrawMission 0
scalar OsgEarthNet.uav[24] utilizationEnergyOverdrawMaintenance 0
scalar OsgEarthNet.uav[24] utilizationCountMissions 61
scalar OsgEarthNet.uav[24] utilizationCountManeuversMission 995
scalar OsgEarthNet.uav[24] utilizationCountManeuversMaintenance 122
scalar OsgEarthNet.uav[24] utilizationCountChargeState 61
scalar OsgEarthNet.uav[24] utilizationCountOverdrawnAfterMission 0
scalar OsgEarthNet.uav[24] utilizationCountIdleState 49
scalar OsgEarthNet.uav[24] utilizationFail 0
scalar OsgEarthNet.uav[24] simulationTime 259200
scalar OsgEarthNet.uav[25] utilizationSecMission 40210.591675788
scalar OsgEarthNet.uav[25] utilizationSecMaintenance 18057.406324212
scalar OsgEarthNet.uav[25] utilizationSecCharge 198690
scalar OsgEarthNet.uav[25] utilizationSecIdle 2242.001
scalar OsgEarthNet.uav[25] utilizationEnergyMission 198943.46422577
scalar OsgEarthNet.uav[25] utilizationEnergyMaintenance 83379.348568767
scalar OsgEarthNet.uav[25] utilizationEnergyCharge 278561.05615234
scalar OsgEarthNet.uav[25] utilizationEnergyOverdrawMission 0
scalar OsgEarthNet.uav[25] utilizationEnergyOverdrawMaintenance 0
scalar OsgEarthNet.uav[25] utilizationCountMissions 62
scalar OsgEarthNet.uav[25] utilizationCountManeuversMission 1422
scalar OsgEarthNet.uav[25] utilizationCountManeuversMaintenance 124
scalar OsgEarthNet.uav[25] utilizationCountChargeState 61
scalar OsgEarthNet.uav[25] utilizationCountOverdrawnAfterMission 0
scalar OsgEarthNet.uav[25] utilizationCountIdleState 14
scalar OsgEarthNet.uav[25] utilizationFail 0
scalar OsgEarthNet.uav[25] simulationTime 259200
scalar OsgEarthNet.uav[26] utilizationSecMission 35376.879119668
scalar OsgEarthNet.uav[26] utilizationSecMaintenance 20155.144080615
scalar OsgEarthNet.uav[26] utilizationSecCharge 196476.46213877
scalar OsgEarthNet.uav[26] utilizationSecIdle 7191.5136609497
scalar OsgEarthNet.uav[26] utilizationEnergyMission 171272.10561371
scalar OsgEarthNet.uav[26] utilizationEnergyMaintenance 95213.509384155
scalar OsgEarthNet.uav[26] utilizationEnergyCharge 265818.21313477
scalar OsgEarthNet.uav[26] utilizationEnergyOverdrawMission 0
scalar OsgEarthNet.uav[26] utilizationEnergyOverdrawMaintenance 0
scalar OsgEarthNet.uav[26] utilizationCountMissions 59
scalar OsgEarthNet.uav[26] utilizationCountManeuversMission 1066
scalar OsgEarthNet.uav[26] utilizationCountManeuversMaintenance 118
scalar OsgEarthNet.uav[26] utilizationCountChargeState 59
scalar OsgEarthNet.uav[26] utilizationCountOverdrawnAfterMission 0
scalar OsgEarthNet.uav[26] utilizationCountIdleState 26
scalar OsgEarthNet.uav[26] utilizationFail 0
scalar OsgEarthNet.uav[26] simulationTime 259200
scalar OsgEarthNet.uav[27] utilizationSecMission 33497.075176601
scalar OsgEarthNet.uav[27] utilizationSecMaintenance 17656.939703382
scalar OsgEarthNet.uav[27] utilizationSecCharge 191061.27842098
scalar OsgEarthNet.uav[27] utilizationSecIdle 16984.705699036
scalar OsgEarthNet.uav[27] utilizationEnergyMission 158298.01989365
scalar OsgEarthNet.uav[27] utilizationEnergyMaintenance 84485.234920502
scalar OsgEarthNet.uav[27] utilizationEnergyCharge 242120.38769531
scalar OsgEarthNet.uav[27] utilizationEnergyOverdrawMission 0
scalar OsgEarthNet.uav[27] utilizationEnergyOverdrawMaintenance 0
scalar OsgEarthNet.uav[27] utilizationCountMissions 60
scalar OsgEarthNet.uav[27] utilizationCountManeuversMission 860
scalar OsgEarthNet.uav[27] utilizationCountManeuversMaintenance 120
scalar OsgEarthNet.uav[27] utilizationCountChargeState 60
scalar OsgEarthNet.uav[27] utilizationCountOverdrawnAfterMission 0
scalar OsgEarthNet.uav[27] utilizationCountIdleState 46
scalar OsgEarthNet.uav[27] utilizationFail 0
scalar OsgEarthNet.uav[27] simulationTime 259200
scalar OsgEarthNet.uav[28] utilizationSecMission 40575.216336788
scalar OsgEarthNet.uav[28] utilizationSecMaintenance 17231.98685448
scalar OsgEarthNet.uav[28] utilizationSecCharge 197150.79380873
scalar OsgEarthNet.uav[28] utilizationSecIdle 4242.002
scalar OsgEarthNet.uav[28] utilizationEnergyMission 200793.84255219
scalar OsgEarthNet.uav[28] utilizationEnergyMaintenance 78588.942058563
scalar OsgEarthNet.uav[28] utilizationEnergyCharge 275867.49267578
scalar OsgEarthNet.uav[28] utilizationEnergyOverdrawMission 0
scalar OsgEarthNet.uav[28] utilizationEnergyOverdrawMaintenance 0
scalar OsgEarthNet.uav[28] utilizationCountMissions 61
scalar OsgEarthNet.uav[28] utilizationCountManeuversMission 1403
scalar OsgEarthNet.uav[28] utilizationCountManeuversMaintenance 122
scalar OsgEarthNet.uav[28] utilizationCountChargeState 61
scalar OsgEarthNet.uav[28] utilizationCountOverdrawnAfterMission 0
scalar OsgEarthNet.uav[28] utilizationCountIdleState 19
scalar OsgEarthNet.uav[28] utilizationFail 0
scalar OsgEarthNet.uav[28] simulationTime 259200
scalar OsgEarthNet.uav[29] utilizationSecMission 34327.198672959
scalar OsgEarthNet.uav[29] utilizationSecMaintenance 17301.014224518
scalar OsgEarthNet.uav[29] utilizationSecCharge 191130
scalar OsgEarthNet.uav[29] utilizationSecIdle 16441.786102523
scalar OsgEarthNet.uav[29] utilizationEnergyMission 163195.53507747
scalar OsgEarthNet.uav[29] utilizationEnergyMaintenance 81822.813205719
scalar OsgEarthNet.uav[29] utilizationEnergyCharge 244082.68823242
scalar OsgEarthNet.uav[29] utilizationEnergyOverdrawMission 0
scalar OsgEarthNet.uav[29] utilizationEnergyOverdrawMaintenance 0
scalar OsgEarthNet.uav[29] utilizationCountMissions 58
scalar OsgEarthNet.uav[29] utilizationCountManeuversMission 883
scalar OsgEarthNet.uav[29] utilizationCountManeuversMaintenance 117
scalar OsgEarthNet.uav[29] utilizationCountChargeState 58
scalar OsgEarthNet.uav[29] utilizationCountOverdrawnAfterMission 0
scalar OsgEarthNet.uav[29] utilizationCountIdleState 48
scalar OsgEarthNet.uav[29] utilizationFail 0
scalar OsgEarthNet.uav[29] simulationTime 259200
scalar OsgEarthNet.uav[30] utilizationSecMission 30542.215397083
scalar OsgEarthNet.uav[30] utilizationSecMaintenance 19135.779602917
scalar OsgEarthNet.uav[30] utilizationSecCharge 189530
scalar OsgEarthNet.uav[30] utilizationSecIdle 19992.004
scalar OsgEarthNet.uav[30] utilizationEnergyMission 147768.36053311
scalar OsgEarthNet.uav[30] utilizationEnergyMaintenance 91111.683547974
scalar OsgEarthNet.uav[30] utilizationEnergyCharge 235989.48583984
scalar OsgEarthNet.uav[30] utilizationEnergyOverdrawMission 0
scalar OsgEarthNet.uav[30] utilizationEnergyOverdrawMaintenance 0
scalar OsgEarthNet.uav[30] utilizationCountMissions 60
scalar OsgEarthNet.uav[30] utilizationCountManeuversMission 972
scalar OsgEarthNet.uav[30] utilizationCountManeuversMaintenance 121
scalar OsgEarthNet.uav[30] utilizationCountChargeState 60
scalar OsgEarthNet.uav[30] utilizationCountOverdrawnAfterMission 0
scalar OsgEarthNet.uav[30] utilizationCountIdleState 57
scalar OsgEarthNet.uav[30] utilizationFail 0
scalar OsgEarthNet.uav[30] simulationTime 259200
scalar OsgEarthNet.uav[31] utilizationSecMission 33697.70848185
scalar OsgEarthNet.uav[31] utilizationSecMaintenance 17691.326532477
scalar OsgEarthNet.uav[31] utilizationSecCharge 193640
scalar OsgEarthNet.uav[31] utilizationSecIdle 14170.963985674
scalar OsgEarthNet.uav[31] utilizationEnergyMission 161298.06198502
scalar OsgEarthNet.uav[31] utilizationEnergyMaintenance 84839.05274655
scalar OsgEarthNet.uav[31] utilizationEnergyCharge 246304.47509766
scalar OsgEarthNet.uav[31] utilizationEnergyOverdrawMission 0
scalar OsgEarthNet.uav[31] utilizationEnergyOverdrawMaintenance 0
scalar OsgEarthNet.uav[31] utilizationCountMissions 59
scalar OsgEarthNet.uav[31] utilizationCountManeuversMission 870
scalar OsgEarthNet.uav[31] utilizationCountManeuversMaintenance 119
scalar OsgEarthNet.uav[31] utilizationCountChargeState 59
scalar OsgEarthNet.uav[31] utilizationCountOverdrawnAfterMission 0
scalar OsgEarthNet.uav[31] utilizationCountIdleState 48
scalar OsgEarthNet.uav[31] utilizationFail 0
scalar OsgEarthNet.uav[31] simulationTime 259200
scalar OsgEarthNet.uav[32] utilizationSecMission 41133.828623581
scalar OsgEarthNet.uav[32] utilizationSecMaintenance 16844.167376419
scalar OsgEarthNet.uav[32] utilizationSecCharge 198560
scalar OsgEarthNet.uav[32] utilizationSecIdle 2662.003
scalar OsgEarthNet.uav[32] utilizationEnergyMission 197599.86205108
scalar OsgEarthNet.uav[32] utilizationEnergyMaintenance 78046.564315796
scalar OsgEarthNet.uav[32] utilizationEnergyCharge 276701.54541016
scalar OsgEarthNet.uav[32] utilizationEnergyOverdrawMission 0
scalar OsgEarthNet.uav[32] utilizationEnergyOverdrawMaintenance 0
scalar OsgEarthNet.uav[32] utilizationCountMissions 60
scalar OsgEarthNet.uav[32] utilizationCountManeuversMission 1308
scalar OsgEarthNet.uav[32] utilizationCountManeuversMaintenance 121
scalar OsgEarthNet.uav[32] utilizationCountChargeState 60
scalar OsgEarthNet.uav[32] utilizationCountOverdrawnAfterMission 0
scalar OsgEarthNet.uav[32] utilizationCountIdleState 10
scalar OsgEarthNet.uav[32] utilizationFail 0
scalar OsgEarthNet.uav[32] simulationTime 259200
scalar OsgEarthNet.uav[33] utilizationSecMission 34875.737889586
scalar OsgEarthNet.uav[33] utilizationSecMaintenance 20126.104308968
scalar OsgEarthNet.uav[33] utilizationSecCharge 196194.76468391
scalar OsgEarthNet.uav[33] utilizationSecIdle 8003.3921175336
scalar OsgEarthNet.uav[33] utilizationEnergyMission 167803.860466
scalar OsgEarthNet.uav[33] utilizationEnergyMaintenance 95321.995681762
scalar OsgEarthNet.uav[33] utilizationEnergyCharge 262904.10986328
scalar OsgEarthNet.uav[33] utilizationEnergyOverdrawMission 0
scalar OsgEarthNet.uav[33] utilizationEnergyOverdrawMaintenance 0
scalar OsgEarthNet.uav[33] utilizationCountMissions 59
scalar OsgEarthNet.uav[33] utilizationCountManeuversMission 1076
scalar OsgEarthNet.uav[33] utilizationCountManeuversMaintenance 118
scalar OsgEarthNet.uav[33] utilizationCountChargeState 59
scalar OsgEarthNet.uav[33] utilizationCountOverdrawnAfterMission 0
scalar OsgEarthNet.uav[33] utilizationCountIdleState 27
scalar OsgEarthNet.uav[33] utilizationFail 0
scalar OsgEarthNet.uav[33] simulationTime 259200
scalar OsgEarthNet.uav[34] utilizationSecMission 32643.739791663
scalar OsgEarthNet.uav[34] utilizationSecMaintenance 19294.259208337
scalar OsgEarthNet.uav[34] utilizationSecCharge 193860
scalar OsgEarthNet.uav[34] utilizationSecIdle 13402
scalar OsgEarthNet.uav[34] utilizationEnergyMission 158453.14093781
scalar OsgEarthNet.uav[34] utilizationEnergyMaintenance 91997.512154849
scalar OsgEarthNet.uav[34] utilizationEnergyCharge 245655.65527344
scalar OsgEarthNet.uav[34] utilizationEnergyOverdrawMission 0
scalar OsgEarthNet.uav[34] utilizationEnergyOverdrawMaintenance 0
scalar OsgEarthNet.uav[34] utilizationCountMissions 62
scalar OsgEarthNet.uav[34] utilizationCountManeuversMission 1007
scalar OsgEarthNet.uav[34] utilizationCountManeuversMaintenance 123
scalar OsgEarthNet.uav[34] utilizationCountChargeState 61
scalar OsgEarthNet.uav[34] utilizationCountOverdrawnAfterMission 0
scalar OsgEarthNet.uav[34] utilizationCountIdleState 49
scalar OsgEarthNet.uav[34] utilizationFail 0
scalar OsgEarthNet.uav[34] simulationTime 259200
scalar OsgEarthNet.uav[35] utilizationSecMission 41440.3165632
scalar OsgEarthNet.uav[35] utilizationSecMaintenance 16633.300785657
scalar OsgEarthNet.uav[35] utilizationSecCharge 196954.38065114
scalar OsgEarthNet.uav[35] utilizationSecIdle 4172.001
scalar OsgEarthNet.uav[35] utilizationEnergyMission 201717.94933701
scalar OsgEarthNet.uav[35] utilizationEnergyMaintenance 76063.737213135
scalar OsgEarthNet.uav[35] utilizationEnergyCharge 275880.70800781
scalar OsgEarthNet.uav[35] utilizationEnergyOverdrawMission 0
scalar OsgEarthNet.uav[35] utilizationEnergyOverdrawMaintenance 0
scalar OsgEarthNet.uav[35] utilizationCountMissions 60
scalar OsgEarthNet.uav[35] utilizationCountManeuversMission 1240
scalar OsgEarthNet.uav[35] utilizationCountManeuversMaintenance 120
scalar OsgEarthNet.uav[35] utilizationCountChargeState 60
scalar OsgEarthNet.uav[35] utilizationCountOverdrawnAfterMission 0
scalar OsgEarthNet.uav[35] utilizationCountIdleState 21
scalar OsgEarthNet.uav[35] utilizationFail 0
scalar OsgEarthNet.uav[35] simulationTime 259200
scalar OsgEarthNet.uav[36] utilizationSecMission 33301.619860275
scalar OsgEarthNet.uav[36] utilizationSecMaintenance 22380.162653053
scalar OsgEarthNet.uav[36] utilizationSecCharge 195614.19821694
scalar OsgEarthNet.uav[36] utilizationSecIdle 7904.0182697282
scalar OsgEarthNet.uav[36] utilizationEnergyMission 163585.11414719
scalar OsgEarthNet.uav[36] utilizationEnergyMaintenance 105778.43518448
scalar OsgEarthNet.uav[36] utilizationEnergyCharge 264521.29766846
scalar OsgEarthNet.uav[36] utilizationEnergyOverdrawMission 0
scalar OsgEarthNet.uav[36] utilizationEnergyOverdrawMaintenance 0
scalar OsgEarthNet.uav[36] utilizationCountMissions 60
scalar OsgEarthNet.uav[36] utilizationCountManeuversMission 1175
scalar OsgEarthNet.uav[36] utilizationCountManeuversMaintenance 120
scalar OsgEarthNet.uav[36] utilizationCountChargeState 60
scalar OsgEarthNet.uav[36] utilizationCountOverdrawnAfterMission 0
scalar OsgEarthNet.uav[36] utilizationCountIdleState 21
scalar OsgEarthNet.uav[36] utilizationFail 0
scalar OsgEarthNet.uav[36] simulationTime 259200
scalar OsgEarthNet.uav[37] utilizationSecMission 33740.403540428
scalar OsgEarthNet.uav[37] utilizationSecMaintenance 17804.554415674
scalar OsgEarthNet.uav[37] utilizationSecCharge 191029.24351625
scalar OsgEarthNet.uav[37] utilizationSecIdle 16625.79752765
scalar OsgEarthNet.uav[37] utilizationEnergyMission 160294.63807678
scalar OsgEarthNet.uav[37] utilizationEnergyMaintenance 82706.45954895
scalar OsgEarthNet.uav[37] utilizationEnergyCharge 243188.09057617
scalar OsgEarthNet.uav[37] utilizationEnergyOverdrawMission 0
scalar OsgEarthNet.uav[37] utilizationEnergyOverdrawMaintenance 0
scalar OsgEarthNet.uav[37] utilizationCountMissions 59
scalar OsgEarthNet.uav[37] utilizationCountManeuversMission 900
scalar OsgEarthNet.uav[37] utilizationCountManeuversMaintenance 118
scalar OsgEarthNet.uav[37] utilizationCountChargeState 59
scalar OsgEarthNet.uav[37] utilizationCountOverdrawnAfterMission 0
scalar OsgEarthNet.uav[37] utilizationCountIdleState 52
scalar OsgEarthNet.uav[37] utilizationFail 0
scalar OsgEarthNet.uav[37] simulationTime 259200
scalar OsgEarthNet.uav[38] utilizationSecMission 40051.111012599
scalar OsgEarthNet.uav[38] utilizationSecMaintenance 17465.656077266
scalar OsgEarthNet.uav[38] utilizationSecCharge 197011.22791013
scalar OsgEarthNet.uav[38] utilizationSecIdle 4672.004
scalar OsgEarthNet.uav[38] utilizationEnergyMission 196274.61449814
scalar OsgEarthNet.uav[38] utilizationEnergyMaintenance 81103.638957977
scalar OsgEarthNet.uav[38] utilizationEnergyCharge 276634.10913086
scalar OsgEarthNet.uav[38] utilizationEnergyOverdrawMission 0
scalar OsgEarthNet.uav[38] utilizationEnergyOverdrawMaintenance 0
scalar OsgEarthNet.uav[38] utilizationCountMissions 61
scalar OsgEarthNet.uav[38] utilizationCountManeuversMission 1375
scalar OsgEarthNet.uav[38] utilizationCountManeuversMaintenance 122
scalar OsgEarthNet.uav[38] utilizationCountChargeState 61
scalar OsgEarthNet.uav[38] utilizationCountOverdrawnAfterMission 0
scalar OsgEarthNet.uav[38] utilizationCountIdleState 14
scalar OsgEarthNet.uav[38] utilizationFail 0
scalar OsgEarthNet.uav[38] simulationTime 259200
scalar OsgEarthNet.uav[39] utilizationSecMission 34416.253967087
scalar OsgEarthNet.uav[39] utilizationSecMaintenance 19731.735032913
scalar OsgEarthNet.uav[39] utilizationSecCharge 194580
scalar OsgEarthNet.uav[39] utilizationSecIdle 10472.01
scalar OsgEarthNet.uav[39] utilizationEnergyMission 166513.86184692
scalar OsgEarthNet.uav[39] utilizationEnergyMaintenance 94167.938360959
scalar OsgEarthNet.uav[39] utilizationEnergyCharge 259844.42236328
scalar OsgEarthNet.uav[39] utilizationEnergyOverdrawMission 0
scalar OsgEarthNet.uav[39] utilizationEnergyOverdrawMaintenance 0
scalar OsgEarthNet.uav[39] utilizationCountMissions 58
scalar OsgEarthNet.uav[39] utilizationCountManeuversMission 1044
scalar OsgEarthNet.uav[39] utilizationCountManeuversMaintenance 117
scalar OsgEarthNet.uav[39] utilizationCountChargeState 58
scalar OsgEarthNet.uav[39] utilizationCountOverdrawnAfterMission 0
scalar OsgEarthNet.uav[39] utilizationCountIdleState 26
scalar OsgEarthNet.uav[39] utilizationFail 0
scalar OsgEarthNet.uav[39] simulationTime 259200
scalar OsgEarthNet.uav[40] utilizationSecMission 33448.856587006
scalar OsgEarthNet.uav[40] utilizationSecMaintenance 22503.915400984
scalar OsgEarthNet.uav[40] utilizationSecCharge 198765.22701201
scalar OsgEarthNet.uav[40] utilizationSecIdle 4482
scalar OsgEarthNet.uav[40] utilizationEnergyMission 163290.35079193
scalar OsgEarthNet.uav[40] utilizationEnergyMaintenance 106422.29328918
scalar OsgEarthNet.uav[40] utilizationEnergyCharge 270243.66748047
scalar OsgEarthNet.uav[40] utilizationEnergyOverdrawMission 0
scalar OsgEarthNet.uav[40] utilizationEnergyOverdrawMaintenance 0
scalar OsgEarthNet.uav[40] utilizationCountMissions 60
scalar OsgEarthNet.uav[40] utilizationCountManeuversMission 1175
scalar OsgEarthNet.uav[40] utilizationCountManeuversMaintenance 119
scalar OsgEarthNet.uav[40] utilizationCountChargeState 60
scalar OsgEarthNet.uav[40] utilizationCountOverdrawnAfterMission 0
scalar OsgEarthNet.uav[40] utilizationCountIdleState 18
scalar OsgEarthNet.uav[40] utilizationFail 0
scalar OsgEarthNet.uav[40] simulationTime 259200
scalar OsgEarthNet.uav[41] utilizationSecMission 35051.627225534
scalar OsgEarthNet.uav[41] utilizationSecMaintenance 17808.571553265
scalar OsgEarthNet.uav[41] utilizationSecCharge 193640
scalar OsgEarthNet.uav[41] utilizationSecIdle 12699.800221201
scalar OsgEarthNet.uav[41] utilizationEnergyMission 167213.29624949
scalar OsgEarthNet.uav[41] utilizationEnergyMaintenance 84141.960678101
scalar OsgEarthNet.uav[41] utilizationEnergyCharge 247977.06176758
scalar OsgEarthNet.uav[41] utilizationEnergyOverdrawMission 0
scalar OsgEarthNet.uav[41] utilizationEnergyOverdrawMaintenance 0
scalar OsgEarthNet.uav[41] utilizationCountMissions 59
scalar OsgEarthNet.uav[41] utilizationCountManeuversMission 857
scalar OsgEarthNet.uav[41] utilizationCountManeuversMaintenance 119
scalar OsgEarthNet.uav[41] utilizationCountChargeState 59
scalar OsgEarthNet.uav[41] utilizationCountOverdrawnAfterMission 0
scalar OsgEarthNet.uav[41] utilizationCountIdleState 47
scalar OsgEarthNet.uav[41] utilizationFail 0
scalar OsgEarthNet.uav[41] simulationTime 259200
scalar OsgEarthNet.uav[42] utilizationSecMission 40907.188854552
scalar OsgEarthNet.uav[42] utilizationSecMaintenance 17525.516703169
scalar OsgEarthNet.uav[42] utilizationSecCharge 197417.86809499
scalar OsgEarthNet.uav[42] utilizationSecIdle 3349.4253472904
scalar OsgEarthNet.uav[42] utilizationEnergyMission 196159.24530029
scalar OsgEarthNet.uav[42] utilizationEnergyMaintenance 81478.085689545
scalar OsgEarthNet.uav[42] utilizationEnergyCharge 276367.57788086
scalar OsgEarthNet.uav[42] utilizationEnergyOverdrawMission 0
scalar OsgEarthNet.uav[42] utilizationEnergyOverdrawMaintenance 0
scalar OsgEarthNet.uav[42] utilizationCountMissions 61
scalar OsgEarthNet.uav[42] utilizationCountManeuversMission 1245
scalar OsgEarthNet.uav[42] utilizationCountManeuversMaintenance 122
scalar OsgEarthNet.uav[42] utilizationCountChargeState 61
scalar OsgEarthNet.uav[42] utilizationCountOverdrawnAfterMission 0
scalar OsgEarthNet.uav[42] utilizationCountIdleState 17
scalar OsgEarthNet.uav[42] utilizationFail 0
scalar OsgEarthNet.uav[42] simulationTime 259200
scalar OsgEarthNet.uav[43] utilizationSecMission 34585.261700677
scalar OsgEarthNet.uav[43] utilizationSecMaintenance 20710.022666517
scalar OsgEarthNet.uav[43] utilizationSecCharge 197572.71263281
scalar OsgEarthNet.uav[43] utilizationSecIdle 6332.002
scalar OsgEarthNet.uav[43] utilizationEnergyMission 170049.98530197
scalar OsgEarthNet.uav[43] utilizationEnergyMaintenance 97883.802810669
scalar OsgEarthNet.uav[43] utilizationEnergyCharge 265384.51416016
scalar OsgEarthNet.uav[43] utilizationEnergyOverdrawMission 0
scalar OsgEarthNet.uav[43] utilizationEnergyOverdrawMaintenance 0
scalar OsgEarthNet.uav[43] utilizationCountMissions 59
scalar OsgEarthNet.uav[43] utilizationCountManeuversMission 1100
scalar OsgEarthNet.uav[43] utilizationCountManeuversMaintenance 118
scalar OsgEarthNet.uav[43] utilizationCountChargeState 59
scalar OsgEarthNet.uav[43] utilizationCountOverdrawnAfterMission 0
scalar OsgEarthNet.uav[43] utilizationCountIdleState 25
scalar OsgEarthNet.uav[43] utilizationFail 0
scalar OsgEarthNet.uav[43] simulationTime 259200
scalar OsgEarthNet.uav[44] utilizationSecMission 31997.212706848
scalar OsgEarthNet.uav[44] utilizationSecMaintenance 17959.097419537
scalar OsgEarthNet.uav[44] utilizationSecCharge 190751.68587362
scalar OsgEarthNet.uav[44] utilizationSecIdle 18492.003
scalar OsgEarthNet.uav[44] utilizationEnergyMission 153689.42804337
scalar OsgEarthNet.uav[44] utilizationEnergyMaintenance 85267.51556015
scalar OsgEarthNet.uav[44] utilizationEnergyCharge 238631.92163086
scalar OsgEarthNet.uav[44] utilizationEnergyOverdrawMission 0
scalar OsgEarthNet.uav[44] utilizationEnergyOverdrawMaintenance 0
scalar OsgEarthNet.uav[44] utilizationCountMissions 61
scalar OsgEarthNet.uav[44] utilizationCountManeuversMission 889
scalar OsgEarthNet.uav[44] utilizationCountManeuversMaintenance 122
scalar OsgEarthNet.uav[44] utilizationCountChargeState 61
scalar OsgEarthNet.uav[44] utilizationCountOverdrawnAfterMission 0
scalar OsgEarthNet.uav[44] utilizationCountIdleState 52
scalar OsgEarthNet.uav[44] utilizationFail 0
scalar OsgEarthNet.uav[44] simulationTime 259200
scalar OsgEarthNet.uav[45] utilizationSecMission 41920.547182831
scalar OsgEarthNet.uav[45] utilizationSecMaintenance 16440.953048502
scalar OsgEarthNet.uav[45] utilizationSecCharge 198456.49876867
scalar OsgEarthNet.uav[45] utilizationSecIdle 2382
scalar OsgEarthNet.uav[45] utilizationEnergyMission 202478.68695882
scalar OsgEarthNet.uav[45] utilizationEnergyMaintenance 75747.491512299
scalar OsgEarthNet.uav[45] utilizationEnergyCharge 276453.60528564
scalar OsgEarthNet.uav[45] utilizationEnergyOverdrawMission 0
scalar OsgEarthNet.uav[45] utilizationEnergyOverdrawMaintenance 0
scalar OsgEarthNet.uav[45] utilizationCountMissions 61
scalar OsgEarthNet.uav[45] utilizationCountManeuversMission 1330
scalar OsgEarthNet.uav[45] utilizationCountManeuversMaintenance 121
scalar OsgEarthNet.uav[45] utilizationCountChargeState 61
scalar OsgEarthNet.uav[45] utilizationCountOverdrawnAfterMission 0
scalar OsgEarthNet.uav[45] utilizationCountIdleState 16
scalar OsgEarthNet.uav[45] utilizationFail 0
scalar OsgEarthNet.uav[45] simulationTime 259200
scalar OsgEarthNet.uav[46] utilizationSecMission 35536.879119668
scalar OsgEarthNet.uav[46] utilizationSecMaintenance 20145.112760073
scalar OsgEarthNet.uav[46] utilizationSecCharge 195066.00112026
scalar OsgEarthNet.uav[46] utilizationSecIdle 8452.006
scalar OsgEarthNet.uav[46] utilizationEnergyMission 171383.94342804
scalar OsgEarthNet.uav[46] utilizationEnergyMaintenance 95358.641300201
scalar OsgEarthNet.uav[46] utilizationEnergyCharge 262662.95166016
scalar OsgEarthNet.uav[46] utilizationEnergyOverdrawMission 0
scalar OsgEarthNet.uav[46] utilizationEnergyOverdrawMaintenance 0
scalar OsgEarthNet.uav[46] utilizationCountMissions 59
scalar OsgEarthNet.uav[46] utilizationCountManeuversMission 1074
scalar OsgEarthNet.uav[46] utilizationCountManeuversMaintenance 118
scalar OsgEarthNet.uav[46] utilizationCountChargeState 59
scalar OsgEarthNet.uav[46] utilizationCountOverdrawnAfterMission 0
scalar OsgEarthNet.uav[46] utilizationCountIdleState 24
scalar OsgEarthNet.uav[46] utilizationFail 0
scalar OsgEarthNet.uav[46] simulationTime 259200
scalar OsgEarthNet.uav[47] utilizationSecMission 31261.13914745
scalar OsgEarthNet.uav[47] utilizationSecMaintenance 19939.085214659
scalar OsgEarthNet.uav[47] utilizationSecCharge 193065.16274837
scalar OsgEarthNet.uav[47] utilizationSecIdle 14934.611889516
scalar OsgEarthNet.uav[47] utilizationEnergyMission 154366.23626328
scalar OsgEarthNet.uav[47] utilizationEnergyMaintenance 94605.665588379
scalar OsgEarthNet.uav[47] utilizationEnergyCharge 244494.06591797
scalar OsgEarthNet.uav[47] utilizationEnergyOverdrawMission 0
scalar OsgEarthNet.uav[47] utilizationEnergyOverdrawMaintenance 0
scalar OsgEarthNet.uav[47] utilizationCountMissions 61
scalar OsgEarthNet.uav[47] utilizationCountManeuversMission 1049
scalar OsgEarthNet.uav[47] utilizationCountManeuversMaintenance 122
scalar OsgEarthNet.uav[47] utilizationCountChargeState 61
scalar OsgEarthNet.uav[47] utilizationCountOverdrawnAfterMission 0
scalar OsgEarthNet.uav[47] utilizationCountIdleState 52
scalar OsgEarthNet.uav[47] utilizationFail 0
scalar OsgEarthNet.uav[47] simulationTime 259200
scalar OsgEarthNet.uav[48] utilizationSecMission 41314.190250775
scalar OsgEarthNet.uav[48] utilizationSecMaintenance 16222.195150625
scalar OsgEarthNet.uav[48] utilizationSecCharge 195660.08826957
scalar OsgEarthNet.uav[48] utilizationSecIdle 6003.5253290289
scalar OsgEarthNet.uav[48] utilizationEnergyMission 199939.99023819
scalar OsgEarthNet.uav[48] utilizationEnergyMaintenance 75192.62505722
scalar OsgEarthNet.uav[48] utilizationEnergyCharge 272982.9074707
scalar OsgEarthNet.uav[48] utilizationEnergyOverdrawMission 0
scalar OsgEarthNet.uav[48] utilizationEnergyOverdrawMaintenance 0
scalar OsgEarthNet.uav[48] utilizationCountMissions 60
scalar OsgEarthNet.uav[48] utilizationCountManeuversMission 1348
scalar OsgEarthNet.uav[48] utilizationCountManeuversMaintenance 120
scalar OsgEarthNet.uav[48] utilizationCountChargeState 60
scalar OsgEarthNet.uav[48] utilizationCountOverdrawnAfterMission 0
scalar OsgEarthNet.uav[48] utilizationCountIdleState 16
scalar OsgEarthNet.uav[48] utilizationFail 0
scalar OsgEarthNet.uav[48] simulationTime 259200
scalar OsgEarthNet.uav[49] utilizationSecMission 36032.67292153
scalar OsgEarthNet.uav[49] utilizationSecMaintenance 19420.568991307
scalar OsgEarthNet.uav[49] utilizationSecCharge 196894.75408716
scalar OsgEarthNet.uav[49] utilizationSecIdle 6852.003
scalar OsgEarthNet.uav[49] utilizationEnergyMission 169918.43246841
scalar OsgEarthNet.uav[49] utilizationEnergyMaintenance 92402.363956451
scalar OsgEarthNet.uav[49] utilizationEnergyCharge 264098.71630859
scalar OsgEarthNet.uav[49] utilizationEnergyOverdrawMission 0
scalar OsgEarthNet.uav[49] utilizationEnergyOverdrawMaintenance 0
scalar OsgEarthNet.uav[49] utilizationCountMissions 59
scalar OsgEarthNet.uav[49] utilizationCountManeuversMission 1004
scalar OsgEarthNet.uav[49] utilizationCountManeuversMaintenance 118
scalar OsgEarthNet.uav[49] utilizationCountChargeState 59
scalar OsgEarthNet.uav[49] utilizationCountOverdrawnAfterMission 0
scalar OsgEarthNet.uav[49] utilizationCountIdleState 28
scalar OsgEarthNet.uav[49] utilizationFail 0
scalar OsgEarthNet.uav[49] simulationTime 259200
scalar OsgEarthNet.uav[50] utilizationSecMission 32479.744402534
scalar OsgEarthNet.uav[50] utilizationSecMaintenance 23072.86788265
scalar OsgEarthNet.uav[50] utilizationSecCharge 196095.37971482
scalar OsgEarthNet.uav[50] utilizationSecIdle 7552.007
scalar OsgEarthNet.uav[50] utilizationEnergyMission 161288.4928093
scalar OsgEarthNet.uav[50] utilizationEnergyMaintenance 109717.71330261
scalar OsgEarthNet.uav[50] utilizationEnergyCharge 266283.1887207
scalar OsgEarthNet.uav[50] utilizationEnergyOverdrawMission 0
scalar OsgEarthNet.uav[50] utilizationEnergyOverdrawMaintenance 0
scalar OsgEarthNet.uav[50] utilizationCountMissions 60
scalar OsgEarthNet.uav[50] utilizationCountManeuversMission 1212
scalar OsgEarthNet.uav[50] utilizationCountManeuversMaintenance 120
scalar OsgEarthNet.uav[50] utilizationCountChargeState 60
scalar OsgEarthNet.uav[50] utilizationCountOverdrawnAfterMission 0
scalar OsgEarthNet.uav[50] utilizationCountIdleState 19
scalar OsgEarthNet.uav[50] utilizationFail 0
scalar OsgEarthNet.uav[50] simulationTime 259200
scalar OsgEarthNet.uav[51] utilizationSecMission 31573.466074315
scalar OsgEarthNet.uav[51] utilizationSecMaintenance 19164.531418963
scalar OsgEarthNet.uav[51] utilizationSecCharge 194400
scalar OsgEarthNet.uav[51] utilizationSecIdle 14062.001506722
scalar OsgEarthNet.uav[51] utilizationEnergyMission 152780.73981245
scalar OsgEarthNet.uav[51] utilizationEnergyMaintenance 90073.040882111
scalar OsgEarthNet.uav[51] utilizationEnergyCharge 242705.7043457
scalar OsgEarthNet.uav[51] utilizationEnergyOverdrawMission 0
scalar OsgEarthNet.uav[51] utilizationEnergyOverdrawMaintenance 0
scalar OsgEarthNet.uav[51] utilizationCountMissions 62
scalar OsgEarthNet.uav[51] utilizationCountManeuversMission 876
scalar OsgEarthNet.uav[51] utilizationCountManeuversMaintenance 125
scalar OsgEarthNet.uav[51] utilizationCountChargeState 62
scalar OsgEarthNet.uav[51] utilizationCountOverdrawnAfterMission 0
scalar OsgEarthNet.uav[51] utilizationCountIdleState 47
scalar OsgEarthNet.uav[51] utilizationFail 0
scalar OsgEarthNet.uav[51] simulationTime 259200
scalar OsgEarthNet.uav[52] utilizationSecMission 39922.171311533
scalar OsgEarthNet.uav[52] utilizationSecMaintenance 17745.584885328
scalar OsgEarthNet.uav[52] utilizationSecCharge 196590.23880314
scalar OsgEarthNet.uav[52] utilizationSecIdle 4942.004
scalar OsgEarthNet.uav[52] utilizationEnergyMission 194655.82435989
scalar OsgEarthNet.uav[52] utilizationEnergyMaintenance 81969.44562912
scalar OsgEarthNet.uav[52] utilizationEnergyCharge 272717.9407959
scalar OsgEarthNet.uav[52] utilizationEnergyOverdrawMission 0
scalar OsgEarthNet.uav[52] utilizationEnergyOverdrawMaintenance 0
scalar OsgEarthNet.uav[52] utilizationCountMissions 61
scalar OsgEarthNet.uav[52] utilizationCountManeuversMission 1340
scalar OsgEarthNet.uav[52] utilizationCountManeuversMaintenance 122
scalar OsgEarthNet.uav[52] utilizationCountChargeState 61
scalar OsgEarthNet.uav[52] utilizationCountOverdrawnAfterMission 0
scalar OsgEarthNet.uav[52] utilizationCountIdleState 13
scalar OsgEarthNet.uav[52] utilizationFail 0
scalar OsgEarthNet.uav[52] simulationTime 259200
scalar OsgEarthNet.uav[53] utilizationSecMission 40789.057145449
scalar OsgEarthNet.uav[53] utilizationSecMaintenance 18136.972972781
scalar OsgEarthNet.uav[53] utilizationSecCharge 198531.96888177
scalar OsgEarthNet.uav[53] utilizationSecIdle 1742
scalar OsgEarthNet.uav[53] utilizationEnergyMission 201365.20978546
scalar OsgEarthNet.uav[53] utilizationEnergyMaintenance 84521.457084656
scalar OsgEarthNet.uav[53] utilizationEnergyCharge 278715.70037842
scalar OsgEarthNet.uav[53] utilizationEnergyOverdrawMission 0
scalar OsgEarthNet.uav[53] utilizationEnergyOverdrawMaintenance 0
scalar OsgEarthNet.uav[53] utilizationCountMissions 62
scalar OsgEarthNet.uav[53] utilizationCountManeuversMission 1468
scalar OsgEarthNet.uav[53] utilizationCountManeuversMaintenance 123
scalar OsgEarthNet.uav[53] utilizationCountChargeState 62
scalar OsgEarthNet.uav[53] utilizationCountOverdrawnAfterMission 0
scalar OsgEarthNet.uav[53] utilizationCountIdleState 12
scalar OsgEarthNet.uav[53] utilizationFail 0
scalar OsgEarthNet.uav[53] simulationTime 259200
scalar OsgEarthNet.uav[54] utilizationSecMission 33845.248962633
scalar OsgEarthNet.uav[54] utilizationSecMaintenance 18137.822665389
scalar OsgEarthNet.uav[54] utilizationSecCharge 193209.61129015
scalar OsgEarthNet.uav[54] utilizationSecIdle 14007.316081831
scalar OsgEarthNet.uav[54] utilizationEnergyMission 161679.20558548
scalar OsgEarthNet.uav[54] utilizationEnergyMaintenance 86934.334701538
scalar OsgEarthNet.uav[54] utilizationEnergyCharge 248062.15380859
scalar OsgEarthNet.uav[54] utilizationEnergyOverdrawMission 0
scalar OsgEarthNet.uav[54] utilizationEnergyOverdrawMaintenance 0
scalar OsgEarthNet.uav[54] utilizationCountMissions 59
scalar OsgEarthNet.uav[54] utilizationCountManeuversMission 928
scalar OsgEarthNet.uav[54] utilizationCountManeuversMaintenance 118
scalar OsgEarthNet.uav[54] utilizationCountChargeState 59
scalar OsgEarthNet.uav[54] utilizationCountOverdrawnAfterMission 0
scalar OsgEarthNet.uav[54] utilizationCountIdleState 47
scalar OsgEarthNet.uav[54] utilizationFail 0
scalar OsgEarthNet.uav[54] simulationTime 259200
scalar OsgEarthNet.uav[55] utilizationSecMission 41034.481638716
scalar OsgEarthNet.uav[55] utilizationSecMaintenance 17440.445841599
scalar OsgEarthNet.uav[55] utilizationSecCharge 198260.57357851
scalar OsgEarthNet.uav[55] utilizationSecIdle 2464.4979411756
scalar OsgEarthNet.uav[55] utilizationEnergyMission 198327.84833145
scalar OsgEarthNet.uav[55] utilizationEnergyMaintenance 80291.858375549
scalar OsgEarthNet.uav[55] utilizationEnergyCharge 275957.7800293
scalar OsgEarthNet.uav[55] utilizationEnergyOverdrawMission 0
scalar OsgEarthNet.uav[55] utilizationEnergyOverdrawMaintenance 0
scalar OsgEarthNet.uav[55] utilizationCountMissions 61
scalar OsgEarthNet.uav[55] utilizationCountManeuversMission 1274
scalar OsgEarthNet.uav[55] utilizationCountManeuversMaintenance 122
scalar OsgEarthNet.uav[55] utilizationCountChargeState 61
scalar OsgEarthNet.uav[55] utilizationCountOverdrawnAfterMission 0
scalar OsgEarthNet.uav[55] utilizationCountIdleState 18
scalar OsgEarthNet.uav[55] utilizationFail 0
scalar OsgEarthNet.uav[55] simulationTime 259200
scalar OsgEarthNet.uav[56] utilizationSecMission 34976.144892008
scalar OsgEarthNet.uav[56] utilizationSecMaintenance 20500.052472014
scalar OsgEarthNet.uav[56] utilizationSecCharge 196861.79663598
scalar OsgEarthNet.uav[56] utilizationSecIdle 6862.005
scalar OsgEarthNet.uav[56] utilizationEnergyMission 169890.15724564
scalar OsgEarthNet.uav[56] utilizationEnergyMaintenance 97299.238498687
scalar OsgEarthNet.uav[56] utilizationEnergyCharge 264598.07739258
scalar OsgEarthNet.uav[56] utilizationEnergyOverdrawMission 0
scalar OsgEarthNet.uav[56] utilizationEnergyOverdrawMaintenance 0
scalar OsgEarthNet.uav[56] utilizationCountMissions 59
scalar OsgEarthNet.uav[56] utilizationCountManeuversMission 1089
scalar OsgEarthNet.uav[56] utilizationCountManeuversMaintenance 118
scalar OsgEarthNet.uav[56] utilizationCountChargeState 59
scalar OsgEarthNet.uav[56] utilizationCountOverdrawnAfterMission 0
scalar OsgEarthNet.uav[56] utilizationCountIdleState 26
scalar OsgEarthNet.uav[56] utilizationFail 0
scalar OsgEarthNet.uav[56] simulationTime 259200
scalar OsgEarthNet.uav[57] utilizationSecMission 32446.192720821
scalar OsgEarthNet.uav[57] utilizationSecMaintenance 18434.367030191
scalar OsgEarthNet.uav[57] utilizationSecCharge 193047.43924899
scalar OsgEarthNet.uav[57] utilizationSecIdle 15272
scalar OsgEarthNet.uav[57] utilizationEnergyMission 155280.06826019
scalar OsgEarthNet.uav[57] utilizationEnergyMaintenance 88107.28094101
scalar OsgEarthNet.uav[57] utilizationEnergyCharge 242493.68408203
scalar OsgEarthNet.uav[57] utilizationEnergyOverdrawMission 0
scalar OsgEarthNet.uav[57] utilizationEnergyOverdrawMaintenance 0
scalar OsgEarthNet.uav[57] utilizationCountMissions 61
scalar OsgEarthNet.uav[57] utilizationCountManeuversMission 925
scalar OsgEarthNet.uav[57] utilizationCountManeuversMaintenance 122
scalar OsgEarthNet.uav[57] utilizationCountChargeState 61
scalar OsgEarthNet.uav[57] utilizationCountOverdrawnAfterMission 0
scalar OsgEarthNet.uav[57] utilizationCountIdleState 52
scalar OsgEarthNet.uav[57] utilizationFail 0
scalar OsgEarthNet.uav[57] simulationTime 259200
scalar OsgEarthNet.uav[58] utilizationSecMission 42727.212419442
scalar OsgEarthNet.uav[58] utilizationSecMaintenance 15960.34263424
scalar OsgEarthNet.uav[58] utilizationSecCharge 198650.44394632
scalar OsgEarthNet.uav[58] utilizationSecIdle 1862
scalar OsgEarthNet.uav[58] utilizationEnergyMission 206526.22481918
scalar OsgEarthNet.uav[58] utilizationEnergyMaintenance 72455.653858185
scalar OsgEarthNet.uav[58] utilizationEnergyCharge 276373.2355957
scalar OsgEarthNet.uav[58] utilizationEnergyOverdrawMission 0
scalar OsgEarthNet.uav[58] utilizationEnergyOverdrawMaintenance 0
scalar OsgEarthNet.uav[58] utilizationCountMissions 61
scalar OsgEarthNet.uav[58] utilizationCountManeuversMission 1334
scalar OsgEarthNet.uav[58] utilizationCountManeuversMaintenance 122
scalar OsgEarthNet.uav[58] utilizationCountChargeState 61
scalar OsgEarthNet.uav[58] utilizationCountOverdrawnAfterMission 0
scalar OsgEarthNet.uav[58] utilizationCountIdleState 16
scalar OsgEarthNet.uav[58] utilizationFail 0
scalar OsgEarthNet.uav[58] simulationTime 259200
scalar OsgEarthNet.uav[59] utilizationSecMission 32325.422620877
scalar OsgEarthNet.uav[59] utilizationSecMaintenance 19097.741319798
scalar OsgEarthNet.uav[59] utilizationSecCharge 193294.83405933
scalar OsgEarthNet.uav[59] utilizationSecIdle 14482.001
scalar OsgEarthNet.uav[59] utilizationEnergyMission 155189.3970108
scalar OsgEarthNet.uav[59] utilizationEnergyMaintenance 90651.446235657
scalar OsgEarthNet.uav[59] utilizationEnergyCharge 242440.52770996
scalar OsgEarthNet.uav[59] utilizationEnergyOverdrawMission 0
scalar OsgEarthNet.uav[59] utilizationEnergyOverdrawMaintenance 0
scalar OsgEarthNet.uav[59] utilizationCountMissions 62
scalar OsgEarthNet.uav[59] utilizationCountManeuversMission 902
scalar OsgEarthNet.uav[59] utilizationCountManeuversMaintenance 124
scalar OsgEarthNet.uav[59] utilizationCountChargeState 62
scalar OsgEarthNet.uav[59] utilizationCountOverdrawnAfterMission 0
scalar OsgEarthNet.uav[59] utilizationCountIdleState 46
scalar OsgEarthNet.uav[59] utilizationFail 0
scalar OsgEarthNet.uav[59] simulationTime 259200
scalar OsgEarthNet.uav[60] utilizationSecMission 31762.836568242
scalar OsgEarthNet.uav[60] utilizationSecMaintenance 18614.424884813
scalar OsgEarthNet.uav[60] utilizationSecCharge 188672.02167695
scalar OsgEarthNet.uav[60] utilizationSecIdle 20150.715869997
scalar OsgEarthNet.uav[60] utilizationEnergyMission 152308.39165115
scalar OsgEarthNet.uav[60] utilizationEnergyMaintenance 88985.973701477
scalar OsgEarthNet.uav[60] utilizationEnergyCharge 236981.32543945
scalar OsgEarthNet.uav[60] utilizationEnergyOverdrawMission 0
scalar OsgEarthNet.uav[60] utilizationEnergyOverdrawMaintenance 0
scalar OsgEarthNet.uav[60] utilizationCountMissions 61
scalar OsgEarthNet.uav[60] utilizationCountManeuversMission 926
scalar OsgEarthNet.uav[60] utilizationCountManeuversMaintenance 122
scalar OsgEarthNet.uav[60] utilizationCountChargeState 61
scalar OsgEarthNet.uav[60] utilizationCountOverdrawnAfterMission 0
scalar OsgEarthNet.uav[60] utilizationCountIdleState 47
scalar OsgEarthNet.uav[60] utilizationFail 0
scalar OsgEarthNet.uav[60] simulationTime 259200
scalar OsgEarthNet.uav[61] utilizationSecMission 32051.625475212
scalar OsgEarthNet.uav[61] utilizationSecMaintenance 19101.614464448
scalar OsgEarthNet.uav[61] utilizationSecCharge 192604.75706034
scalar OsgEarthNet.uav[61] utilizationSecIdle 15442.002
scalar OsgEarthNet.uav[61] utilizationEnergyMission 154470.60810471
scalar OsgEarthNet.uav[61] utilizationEnergyMaintenance 91003.602535248
scalar OsgEarthNet.uav[61] utilizationEnergyCharge 243162.74658203
scalar OsgEarthNet.uav[61] utilizationEnergyOverdrawMission 0
scalar OsgEarthNet.uav[61] utilizationEnergyOverdrawMaintenance 0
scalar OsgEarthNet.uav[61] utilizationCountMissions 61
scalar OsgEarthNet.uav[61] utilizationCountManeuversMission 955
scalar OsgEarthNet.uav[61] utilizationCountManeuversMaintenance 122
scalar OsgEarthNet.uav[61] utilizationCountChargeState 61
scalar OsgEarthNet.uav[61] utilizationCountOverdrawnAfterMission 0
scalar OsgEarthNet.uav[61] utilizationCountIdleState 50
scalar OsgEarthNet.uav[61] utilizationFail 0
scalar OsgEarthNet.uav[61] simulationTime 259200
scalar OsgEarthNet.uav[62] utilizationSecMission 42086.524670181
scalar OsgEarthNet.uav[62] utilizationSecMaintenance 15846.066964694
scalar OsgEarthNet.uav[62] utilizationSecCharge 198665.40736513
scalar OsgEarthNet.uav[62] utilizationSecIdle 2602
scalar OsgEarthNet.uav[62] utilizationEnergyMission 203294.73748016
scalar OsgEarthNet.uav[62] utilizationEnergyMaintenance 72556.190628052
scalar OsgEarthNet.uav[62] utilizationEnergyCharge 276314.07177734
scalar OsgEarthNet.uav[62] utilizationEnergyOverdrawMission 0
scalar OsgEarthNet.uav[62] utilizationEnergyOverdrawMaintenance 0
scalar OsgEarthNet.uav[62] utilizationCountMissions 60
scalar OsgEarthNet.uav[62] utilizationCountManeuversMission 1254
scalar OsgEarthNet.uav[62] utilizationCountManeuversMaintenance 119
scalar OsgEarthNet.uav[62] utilizationCountChargeState 60
scalar OsgEarthNet.uav[62] utilizationCountOverdrawnAfterMission 0
scalar OsgEarthNet.uav[62] utilizationCountIdleState 19
scalar OsgEarthNet.uav[62] utilizationFail 0
scalar OsgEarthNet.uav[62] simulationTime 259200
scalar OsgEarthNet.uav[63] utilizationSecMission 40604.739241314
scalar OsgEarthNet.uav[63] utilizationSecMaintenance 16838.668484095
scalar OsgEarthNet.uav[63] utilizationSecCharge 195920
scalar OsgEarthNet.uav[63] utilizationSecIdle 5836.5912745918
scalar OsgEarthNet.uav[63] utilizationEnergyMission 197365.37562943
scalar OsgEarthNet.uav[63] utilizationEnergyMaintenance 77796.048294067
scalar OsgEarthNet.uav[63] utilizationEnergyCharge 274109.87402344
scalar OsgEarthNet.uav[63] utilizationEnergyOverdrawMission 0
scalar OsgEarthNet.uav[63] utilizationEnergyOverdrawMaintenance 0
scalar OsgEarthNet.uav[63] utilizationCountMissions 60
scalar OsgEarthNet.uav[63] utilizationCountManeuversMission 1273
scalar OsgEarthNet.uav[63] utilizationCountManeuversMaintenance 120
scalar OsgEarthNet.uav[63] utilizationCountChargeState 60
scalar OsgEarthNet.uav[63] utilizationCountOverdrawnAfterMission 0
scalar OsgEarthNet.uav[63] utilizationCountIdleState 13
scalar OsgEarthNet.uav[63] utilizationFail 0
scalar OsgEarthNet.uav[63] simulationTime 259200
scalar OsgEarthNet.cs[0] usedPower 3999383.6078859
scalar OsgEarthNet.cs[0] chargedPower 3999383.6078859
scalar OsgEarthNet.cs[0] chargedMobileNodes 317
scalar OsgEarthNet.cs[0] reservations 893
scalar OsgEarthNet.cs[1] usedPower 5724578.5050656
scalar OsgEarthNet.cs[1] chargedPower 5724578.5050656
scalar OsgEarthNet.cs[1] chargedMobileNodes 1144
scalar OsgEarthNet.cs[1] reservations 1418
scalar OsgEarthNet.cs[2] usedPower 6986247.0202564
scalar OsgEarthNet.cs[2] chargedPower 6986247.0202564
scalar OsgEarthNet.cs[2] chargedMobileNodes 376
scalar OsgEarthNet.cs[2] reservations 1534

