version 2
run Szenario_Hotel_Gabelbach-76-20180722-03:16:20-4868
attr configname Szenario_Hotel_Gabelbach
attr datetime 20180722-03:16:20
attr experiment Szenario_Hotel_Gabelbach
attr inifile omnetpp.ini
attr iterationvars "$replM=2, $biWeight=0.35, $replSearchM=1, $numUAVs=300"
attr iterationvarsf replM=2,biWeight=0.35,replSearchM=1,numUAVs=300-
attr measurement "$replM=2, $biWeight=0.35, $replSearchM=1, $numUAVs=300"
attr network OsgEarthNet
attr processid 4868
attr repetition 4
attr replication #4
attr resultdir results
attr runnumber 76
attr seedset 76
itervar biWeight 0.35
itervar numUAVs 300
itervar replM 2
itervar replSearchM 1
param *.osgEarthScene.scene "\"Szenario_Hotel_Gabelbach.earth\""
param *.playgroundLatitude 50.6830269
param *.playgroundLongitude 10.8538055
param *.playgroundWidth 3500m
param *.playgroundHeight 3500m
param *.cs[0].posX 3537m
param *.cs[0].posY 965m
param *.cs[0].posZ 538m
param *.cs[1].posX 312m
param *.cs[1].posY 1262m
param *.cs[1].posZ 539m
param *.cs[2].posX 2185m
param *.cs[2].posY 3026m
param *.cs[2].posZ 777m
param *.cs[3].posX 10m
param *.cs[3].posY 2200m
param *.cs[3].posZ 560m
param *.cs[4].posX 750m
param *.cs[4].posY 200m
param *.cs[4].posZ 540m
param *.cs[5].posX 2450m
param *.cs[5].posY 180m
param *.cs[5].posZ 524m
param *.cs[6].posX 3140m
param *.cs[6].posY 1790m
param *.cs[6].posZ 606m
param *.numCSs 3
param *.uav[*].replacementMethod 2
param *.uav[*].weightedSumWeight 0.35
param *.missionControl.replacementSearchMethod 1
param *.numUAVs 300
param *.*.timeStep 10s
param *.uav[*].commandPreviewCommandCount 20
param *.missionControl.missionFiles "\"missions\\\\Szenario_WB_Hotel_Gabelbach_Mission_Hotel.waypoints,missions\\\\Szenario_WB_Hotel_Gabelbach_Mission_Kickelhahn.waypoints,missions\\\\Szenario_WB_Hotel_Gabelbach_Mission_Ilmenau_Sportplatz.waypoints,missions\\\\Szenario_WB_Hotel_Gabelbach_Mission_Manebach_Mitte.waypoints,missions\\\\Szenario_WB_Hotel_Gabelbach_Mission_Manebach_Sued.waypoints,missions\\\\Szenario_WB_Hotel_Gabelbach_Hover_HoheSchlaufe.waypoints,missions\\\\Szenario_WB_Hotel_Gabelbach_Hover_Kickelhahn.waypoints,missions\\\\Szenario_WB_Hotel_Gabelbach_Hover_Gabelbachskopf.waypoints,missions\\\\Szenario_WB_Hotel_Gabelbach_Hover_Dachskopf.waypoints\""
param *.uav[0].startX 3537m
param *.uav[0].startY 965m
param *.uav[0].startZ 539m
param *.uav[1].startX 312m
param *.uav[1].startY 1262m
param *.uav[1].startZ 540m
param *.uav[2].startX 2185m
param *.uav[2].startY 3026m
param *.uav[2].startZ 778m
param *.uav[3].startX 3537m
param *.uav[3].startY 965m
param *.uav[3].startZ 539m
param *.uav[4].startX 312m
param *.uav[4].startY 1262m
param *.uav[4].startZ 540m
param *.uav[5].startX 2185m
param *.uav[5].startY 3026m
param *.uav[5].startZ 778m
param *.uav[6].startX 3537m
param *.uav[6].startY 965m
param *.uav[6].startZ 539m
param *.uav[7].startX 312m
param *.uav[7].startY 1262m
param *.uav[7].startZ 540m
param *.uav[8].startX 2185m
param *.uav[8].startY 3026m
param *.uav[8].startZ 778m
param *.uav[9].startX 3537m
param *.uav[9].startY 965m
param *.uav[9].startZ 539m
param *.uav[10].startX 3537m
param *.uav[10].startY 965m
param *.uav[10].startZ 539m
param *.uav[11].startX 312m
param *.uav[11].startY 1262m
param *.uav[11].startZ 540m
param *.uav[12].startX 2185m
param *.uav[12].startY 3026m
param *.uav[12].startZ 778m
param *.uav[13].startX 3537m
param *.uav[13].startY 965m
param *.uav[13].startZ 539m
param *.uav[14].startX 312m
param *.uav[14].startY 1262m
param *.uav[14].startZ 540m
param *.uav[15].startX 2185m
param *.uav[15].startY 3026m
param *.uav[15].startZ 778m
param *.uav[16].startX 3537m
param *.uav[16].startY 965m
param *.uav[16].startZ 539m
param *.uav[17].startX 312m
param *.uav[17].startY 1262m
param *.uav[17].startZ 540m
param *.uav[18].startX 2185m
param *.uav[18].startY 3026m
param *.uav[18].startZ 778m
param *.uav[19].startX 3537m
param *.uav[19].startY 965m
param *.uav[19].startZ 539m
param *.uav[20].startX 3537m
param *.uav[20].startY 965m
param *.uav[20].startZ 539m
param *.uav[21].startX 312m
param *.uav[21].startY 1262m
param *.uav[21].startZ 540m
param *.uav[22].startX 2185m
param *.uav[22].startY 3026m
param *.uav[22].startZ 778m
param *.uav[23].startX 3537m
param *.uav[23].startY 965m
param *.uav[23].startZ 539m
param *.uav[24].startX 312m
param *.uav[24].startY 1262m
param *.uav[24].startZ 540m
param *.uav[25].startX 2185m
param *.uav[25].startY 3026m
param *.uav[25].startZ 778m
param *.uav[26].startX 3537m
param *.uav[26].startY 965m
param *.uav[26].startZ 539m
param *.uav[27].startX 312m
param *.uav[27].startY 1262m
param *.uav[27].startZ 540m
param *.uav[28].startX 2185m
param *.uav[28].startY 3026m
param *.uav[28].startZ 778m
param *.uav[29].startX 3537m
param *.uav[29].startY 965m
param *.uav[29].startZ 539m
param *.uav[30].startX 3537m
param *.uav[30].startY 965m
param *.uav[30].startZ 539m
param *.uav[31].startX 312m
param *.uav[31].startY 1262m
param *.uav[31].startZ 540m
param *.uav[32].startX 2185m
param *.uav[32].startY 3026m
param *.uav[32].startZ 778m
param *.uav[33].startX 3537m
param *.uav[33].startY 965m
param *.uav[33].startZ 539m
param *.uav[34].startX 312m
param *.uav[34].startY 1262m
param *.uav[34].startZ 540m
param *.uav[35].startX 2185m
param *.uav[35].startY 3026m
param *.uav[35].startZ 778m
param *.uav[36].startX 3537m
param *.uav[36].startY 965m
param *.uav[36].startZ 539m
param *.uav[37].startX 312m
param *.uav[37].startY 1262m
param *.uav[37].startZ 540m
param *.uav[38].startX 2185m
param *.uav[38].startY 3026m
param *.uav[38].startZ 778m
param *.uav[39].startX 3537m
param *.uav[39].startY 965m
param *.uav[39].startZ 539m
param *.uav[40].startX 3537m
param *.uav[40].startY 965m
param *.uav[40].startZ 539m
param *.uav[41].startX 312m
param *.uav[41].startY 1262m
param *.uav[41].startZ 540m
param *.uav[42].startX 2185m
param *.uav[42].startY 3026m
param *.uav[42].startZ 778m
param *.uav[43].startX 3537m
param *.uav[43].startY 965m
param *.uav[43].startZ 539m
param *.uav[44].startX 312m
param *.uav[44].startY 1262m
param *.uav[44].startZ 540m
param *.uav[45].startX 2185m
param *.uav[45].startY 3026m
param *.uav[45].startZ 778m
param *.uav[46].startX 3537m
param *.uav[46].startY 965m
param *.uav[46].startZ 539m
param *.uav[47].startX 312m
param *.uav[47].startY 1262m
param *.uav[47].startZ 540m
param *.uav[48].startX 2185m
param *.uav[48].startY 3026m
param *.uav[48].startZ 778m
param *.uav[49].startX 3537m
param *.uav[49].startY 965m
param *.uav[49].startZ 539m
param *.uav[50].startX 3537m
param *.uav[50].startY 965m
param *.uav[50].startZ 539m
param *.uav[51].startX 312m
param *.uav[51].startY 1262m
param *.uav[51].startZ 540m
param *.uav[52].startX 2185m
param *.uav[52].startY 3026m
param *.uav[52].startZ 778m
param *.uav[53].startX 3537m
param *.uav[53].startY 965m
param *.uav[53].startZ 539m
param *.uav[54].startX 312m
param *.uav[54].startY 1262m
param *.uav[54].startZ 540m
param *.uav[55].startX 2185m
param *.uav[55].startY 3026m
param *.uav[55].startZ 778m
param *.uav[56].startX 3537m
param *.uav[56].startY 965m
param *.uav[56].startZ 539m
param *.uav[57].startX 312m
param *.uav[57].startY 1262m
param *.uav[57].startZ 540m
param *.uav[58].startX 2185m
param *.uav[58].startY 3026m
param *.uav[58].startZ 778m
param *.uav[59].startX 3537m
param *.uav[59].startY 965m
param *.uav[59].startZ 539m
param *.uav[60].startX 3537m
param *.uav[60].startY 965m
param *.uav[60].startZ 539m
param *.uav[61].startX 312m
param *.uav[61].startY 1262m
param *.uav[61].startZ 540m
param *.uav[62].startX 2185m
param *.uav[62].startY 3026m
param *.uav[62].startZ 778m
param *.uav[63].startX 3537m
param *.uav[63].startY 965m
param *.uav[63].startZ 539m
param *.uav[64].startX 312m
param *.uav[64].startY 1262m
param *.uav[64].startZ 540m
param *.uav[65].startX 2185m
param *.uav[65].startY 3026m
param *.uav[65].startZ 778m
param *.uav[66].startX 3537m
param *.uav[66].startY 965m
param *.uav[66].startZ 539m
param *.uav[67].startX 312m
param *.uav[67].startY 1262m
param *.uav[67].startZ 540m
param *.uav[68].startX 2185m
param *.uav[68].startY 3026m
param *.uav[68].startZ 778m
param *.uav[69].startX 3537m
param *.uav[69].startY 965m
param *.uav[69].startZ 539m
param *.uav[70].startX 3537m
param *.uav[70].startY 965m
param *.uav[70].startZ 539m
param *.uav[71].startX 312m
param *.uav[71].startY 1262m
param *.uav[71].startZ 540m
param *.uav[72].startX 2185m
param *.uav[72].startY 3026m
param *.uav[72].startZ 778m
param *.uav[73].startX 3537m
param *.uav[73].startY 965m
param *.uav[73].startZ 539m
param *.uav[74].startX 312m
param *.uav[74].startY 1262m
param *.uav[74].startZ 540m
param *.uav[75].startX 2185m
param *.uav[75].startY 3026m
param *.uav[75].startZ 778m
param *.uav[76].startX 3537m
param *.uav[76].startY 965m
param *.uav[76].startZ 539m
param *.uav[77].startX 312m
param *.uav[77].startY 1262m
param *.uav[77].startZ 540m
param *.uav[78].startX 2185m
param *.uav[78].startY 3026m
param *.uav[78].startZ 778m
param *.uav[79].startX 3537m
param *.uav[79].startY 965m
param *.uav[79].startZ 539m
param *.uav[80].startX 3537m
param *.uav[80].startY 965m
param *.uav[80].startZ 539m
param *.uav[81].startX 312m
param *.uav[81].startY 1262m
param *.uav[81].startZ 540m
param *.uav[82].startX 2185m
param *.uav[82].startY 3026m
param *.uav[82].startZ 778m
param *.uav[83].startX 3537m
param *.uav[83].startY 965m
param *.uav[83].startZ 539m
param *.uav[84].startX 312m
param *.uav[84].startY 1262m
param *.uav[84].startZ 540m
param *.uav[85].startX 2185m
param *.uav[85].startY 3026m
param *.uav[85].startZ 778m
param *.uav[86].startX 3537m
param *.uav[86].startY 965m
param *.uav[86].startZ 539m
param *.uav[87].startX 312m
param *.uav[87].startY 1262m
param *.uav[87].startZ 540m
param *.uav[88].startX 2185m
param *.uav[88].startY 3026m
param *.uav[88].startZ 778m
param *.uav[89].startX 3537m
param *.uav[89].startY 965m
param *.uav[89].startZ 539m
param *.uav[90].startX 3537m
param *.uav[90].startY 965m
param *.uav[90].startZ 539m
param *.uav[91].startX 312m
param *.uav[91].startY 1262m
param *.uav[91].startZ 540m
param *.uav[92].startX 2185m
param *.uav[92].startY 3026m
param *.uav[92].startZ 778m
param *.uav[93].startX 3537m
param *.uav[93].startY 965m
param *.uav[93].startZ 539m
param *.uav[94].startX 312m
param *.uav[94].startY 1262m
param *.uav[94].startZ 540m
param *.uav[95].startX 2185m
param *.uav[95].startY 3026m
param *.uav[95].startZ 778m
param *.uav[96].startX 3537m
param *.uav[96].startY 965m
param *.uav[96].startZ 539m
param *.uav[97].startX 312m
param *.uav[97].startY 1262m
param *.uav[97].startZ 540m
param *.uav[98].startX 2185m
param *.uav[98].startY 3026m
param *.uav[98].startZ 778m
param *.uav[99].startX 3537m
param *.uav[99].startY 965m
param *.uav[99].startZ 539m
param *.osgEarthScene.scene "\"boston.earth\""
param *.playgroundLatitude 42.3558
param *.playgroundLongitude -71.0677
param *.playgroundWidth 400m
param *.playgroundHeight 200m
param *.channelController.connectionColor "\"#0000FF40\""
param *.channelController.showConnections false
param *.uav[*].modelURL "\"quadrocopter.small.obj.15.scale.0,0,90.rot\""
param *.uav[*].labelColor "\"#FF7C00CC\""
param *.uav[*].label2Color "\"#FF7C00EE\""
param *.uav[*].batteryCapacity 5200mAh
param *.uav[*].batteryRemaining uav[index].batteryCapacity
param *.uav[*].predictionQuantile 0.95
param *.uav[*].replacementMethod 2
param *.uav[*].weightedSumWeight 0.5
param *.cs[*].modelURL "\"chargingstation_v1.osgt.2.scale.0,0,0.rot.0,0,-15e-1.trans\""
param *.cs[*].spotsWaiting 999
param *.cs[*].spotsCharging 999
param *.cs[*].chargeEffectivenessPercentage 100
param *.cs[*].nonLinearPhaseStartPercentage 85
param *.cs[*].chargeCurrent 6.0A
param *.cs[*].prioritizeFastCharge true
param *.missionControl.replacementSearchMethod 0
param *.*.timeStep 9s

scalar OsgEarthNet.uav[0] utilizationSecMission 480
scalar OsgEarthNet.uav[0] utilizationSecMaintenance 447.1303002674
scalar OsgEarthNet.uav[0] utilizationSecCharge 3510
scalar OsgEarthNet.uav[0] utilizationSecIdle 254762.86869973
scalar OsgEarthNet.uav[0] utilizationEnergyMission 2488.7028999329
scalar OsgEarthNet.uav[0] utilizationEnergyMaintenance 2250.8039665222
scalar OsgEarthNet.uav[0] utilizationEnergyCharge 4532.6704101562
scalar OsgEarthNet.uav[0] utilizationEnergyOverdrawMission 0
scalar OsgEarthNet.uav[0] utilizationEnergyOverdrawMaintenance 0
scalar OsgEarthNet.uav[0] utilizationCountMissions 1
scalar OsgEarthNet.uav[0] utilizationCountManeuversMission 24
scalar OsgEarthNet.uav[0] utilizationCountManeuversMaintenance 2
scalar OsgEarthNet.uav[0] utilizationCountChargeState 1
scalar OsgEarthNet.uav[0] utilizationCountOverdrawnAfterMission 0
scalar OsgEarthNet.uav[0] utilizationCountIdleState 2
scalar OsgEarthNet.uav[0] utilizationFail 0
scalar OsgEarthNet.uav[0] simulationTime 259200
scalar OsgEarthNet.uav[1] utilizationSecMission 1365.8956630072
scalar OsgEarthNet.uav[1] utilizationSecMaintenance 586.87436041922
scalar OsgEarthNet.uav[1] utilizationSecCharge 7070
scalar OsgEarthNet.uav[1] utilizationSecIdle 250177.22897657
scalar OsgEarthNet.uav[1] utilizationEnergyMission 6171.6945495605
scalar OsgEarthNet.uav[1] utilizationEnergyMaintenance 2915.9794654846
scalar OsgEarthNet.uav[1] utilizationEnergyCharge 9087.671875
scalar OsgEarthNet.uav[1] utilizationEnergyOverdrawMission 0
scalar OsgEarthNet.uav[1] utilizationEnergyOverdrawMaintenance 0
scalar OsgEarthNet.uav[1] utilizationCountMissions 2
scalar OsgEarthNet.uav[1] utilizationCountManeuversMission 24
scalar OsgEarthNet.uav[1] utilizationCountManeuversMaintenance 4
scalar OsgEarthNet.uav[1] utilizationCountChargeState 2
scalar OsgEarthNet.uav[1] utilizationCountOverdrawnAfterMission 0
scalar OsgEarthNet.uav[1] utilizationCountIdleState 3
scalar OsgEarthNet.uav[1] utilizationFail 0
scalar OsgEarthNet.uav[1] simulationTime 259200
scalar OsgEarthNet.uav[2] utilizationSecMission 41792.87212241
scalar OsgEarthNet.uav[2] utilizationSecMaintenance 17147.68477544
scalar OsgEarthNet.uav[2] utilizationSecCharge 197877.43910215
scalar OsgEarthNet.uav[2] utilizationSecIdle 2382.003
scalar OsgEarthNet.uav[2] utilizationEnergyMission 198696.32040024
scalar OsgEarthNet.uav[2] utilizationEnergyMaintenance 80044.301418304
scalar OsgEarthNet.uav[2] utilizationEnergyCharge 277948.97753906
scalar OsgEarthNet.uav[2] utilizationEnergyOverdrawMission 0
scalar OsgEarthNet.uav[2] utilizationEnergyOverdrawMaintenance 0
scalar OsgEarthNet.uav[2] utilizationCountMissions 60
scalar OsgEarthNet.uav[2] utilizationCountManeuversMission 1057
scalar OsgEarthNet.uav[2] utilizationCountManeuversMaintenance 120
scalar OsgEarthNet.uav[2] utilizationCountChargeState 60
scalar OsgEarthNet.uav[2] utilizationCountOverdrawnAfterMission 0
scalar OsgEarthNet.uav[2] utilizationCountIdleState 11
scalar OsgEarthNet.uav[2] utilizationFail 0
scalar OsgEarthNet.uav[2] simulationTime 259200
scalar OsgEarthNet.uav[3] utilizationSecMission 500
scalar OsgEarthNet.uav[3] utilizationSecMaintenance 447.1303002674
scalar OsgEarthNet.uav[3] utilizationSecCharge 3540
scalar OsgEarthNet.uav[3] utilizationSecIdle 254712.86869973
scalar OsgEarthNet.uav[3] utilizationEnergyMission 2666.2112464905
scalar OsgEarthNet.uav[3] utilizationEnergyMaintenance 2121.4937858581
scalar OsgEarthNet.uav[3] utilizationEnergyCharge 4501.1870117188
scalar OsgEarthNet.uav[3] utilizationEnergyOverdrawMission 0
scalar OsgEarthNet.uav[3] utilizationEnergyOverdrawMaintenance 0
scalar OsgEarthNet.uav[3] utilizationCountMissions 1
scalar OsgEarthNet.uav[3] utilizationCountManeuversMission 25
scalar OsgEarthNet.uav[3] utilizationCountManeuversMaintenance 2
scalar OsgEarthNet.uav[3] utilizationCountChargeState 1
scalar OsgEarthNet.uav[3] utilizationCountOverdrawnAfterMission 0
scalar OsgEarthNet.uav[3] utilizationCountIdleState 2
scalar OsgEarthNet.uav[3] utilizationFail 0
scalar OsgEarthNet.uav[3] simulationTime 259200
scalar OsgEarthNet.uav[4] utilizationSecMission 426.80453324185
scalar OsgEarthNet.uav[4] utilizationSecMaintenance 575.01749895246
scalar OsgEarthNet.uav[4] utilizationSecCharge 4760
scalar OsgEarthNet.uav[4] utilizationSecIdle 253438.17696781
scalar OsgEarthNet.uav[4] utilizationEnergyMission 2170.9763183594
scalar OsgEarthNet.uav[4] utilizationEnergyMaintenance 2735.0903663635
scalar OsgEarthNet.uav[4] utilizationEnergyCharge 4906.0686035156
scalar OsgEarthNet.uav[4] utilizationEnergyOverdrawMission 0
scalar OsgEarthNet.uav[4] utilizationEnergyOverdrawMaintenance 0
scalar OsgEarthNet.uav[4] utilizationCountMissions 2
scalar OsgEarthNet.uav[4] utilizationCountManeuversMission 6
scalar OsgEarthNet.uav[4] utilizationCountManeuversMaintenance 4
scalar OsgEarthNet.uav[4] utilizationCountChargeState 2
scalar OsgEarthNet.uav[4] utilizationCountOverdrawnAfterMission 0
scalar OsgEarthNet.uav[4] utilizationCountIdleState 3
scalar OsgEarthNet.uav[4] utilizationFail 0
scalar OsgEarthNet.uav[4] simulationTime 259200
scalar OsgEarthNet.uav[5] utilizationSecMission 41183.063297714
scalar OsgEarthNet.uav[5] utilizationSecMaintenance 18143.059466164
scalar OsgEarthNet.uav[5] utilizationSecCharge 196518.4205795
scalar OsgEarthNet.uav[5] utilizationSecIdle 3355.4556566199
scalar OsgEarthNet.uav[5] utilizationEnergyMission 198469.71964645
scalar OsgEarthNet.uav[5] utilizationEnergyMaintenance 82629.051002502
scalar OsgEarthNet.uav[5] utilizationEnergyCharge 279422.25048828
scalar OsgEarthNet.uav[5] utilizationEnergyOverdrawMission 0
scalar OsgEarthNet.uav[5] utilizationEnergyOverdrawMaintenance 0
scalar OsgEarthNet.uav[5] utilizationCountMissions 61
scalar OsgEarthNet.uav[5] utilizationCountManeuversMission 1258
scalar OsgEarthNet.uav[5] utilizationCountManeuversMaintenance 122
scalar OsgEarthNet.uav[5] utilizationCountChargeState 61
scalar OsgEarthNet.uav[5] utilizationCountOverdrawnAfterMission 0
scalar OsgEarthNet.uav[5] utilizationCountIdleState 8
scalar OsgEarthNet.uav[5] utilizationFail 0
scalar OsgEarthNet.uav[5] simulationTime 259200
scalar OsgEarthNet.uav[6] utilizationSecMission 870.88319133083
scalar OsgEarthNet.uav[6] utilizationSecMaintenance 257.19142630771
scalar OsgEarthNet.uav[6] utilizationSecCharge 3790
scalar OsgEarthNet.uav[6] utilizationSecIdle 254281.92438236
scalar OsgEarthNet.uav[6] utilizationEnergyMission 3860.7739639282
scalar OsgEarthNet.uav[6] utilizationEnergyMaintenance 1194.8010787964
scalar OsgEarthNet.uav[6] utilizationEnergyCharge 4979.689453125
scalar OsgEarthNet.uav[6] utilizationEnergyOverdrawMission 0
scalar OsgEarthNet.uav[6] utilizationEnergyOverdrawMaintenance 0
scalar OsgEarthNet.uav[6] utilizationCountMissions 1
scalar OsgEarthNet.uav[6] utilizationCountManeuversMission 13
scalar OsgEarthNet.uav[6] utilizationCountManeuversMaintenance 2
scalar OsgEarthNet.uav[6] utilizationCountChargeState 1
scalar OsgEarthNet.uav[6] utilizationCountOverdrawnAfterMission 0
scalar OsgEarthNet.uav[6] utilizationCountIdleState 2
scalar OsgEarthNet.uav[6] utilizationFail 0
scalar OsgEarthNet.uav[6] simulationTime 259200
scalar OsgEarthNet.uav[7] utilizationSecMission 18415.787577769
scalar OsgEarthNet.uav[7] utilizationSecMaintenance 11883.26499883
scalar OsgEarthNet.uav[7] utilizationSecCharge 116220
scalar OsgEarthNet.uav[7] utilizationSecIdle 112680.9464234
scalar OsgEarthNet.uav[7] utilizationEnergyMission 89858.357215881
scalar OsgEarthNet.uav[7] utilizationEnergyMaintenance 56738.819461822
scalar OsgEarthNet.uav[7] utilizationEnergyCharge 146104.58276367
scalar OsgEarthNet.uav[7] utilizationEnergyOverdrawMission 0
scalar OsgEarthNet.uav[7] utilizationEnergyOverdrawMaintenance 0
scalar OsgEarthNet.uav[7] utilizationCountMissions 35
scalar OsgEarthNet.uav[7] utilizationCountManeuversMission 609
scalar OsgEarthNet.uav[7] utilizationCountManeuversMaintenance 70
scalar OsgEarthNet.uav[7] utilizationCountChargeState 35
scalar OsgEarthNet.uav[7] utilizationCountOverdrawnAfterMission 0
scalar OsgEarthNet.uav[7] utilizationCountIdleState 36
scalar OsgEarthNet.uav[7] utilizationFail 0
scalar OsgEarthNet.uav[7] simulationTime 259200
scalar OsgEarthNet.uav[8] utilizationSecMission 40728.073177609
scalar OsgEarthNet.uav[8] utilizationSecMaintenance 17855.85214597
scalar OsgEarthNet.uav[8] utilizationSecCharge 197406.23686238
scalar OsgEarthNet.uav[8] utilizationSecIdle 3209.83681404
scalar OsgEarthNet.uav[8] utilizationEnergyMission 198274.97109604
scalar OsgEarthNet.uav[8] utilizationEnergyMaintenance 83226.942287445
scalar OsgEarthNet.uav[8] utilizationEnergyCharge 282037.16748047
scalar OsgEarthNet.uav[8] utilizationEnergyOverdrawMission 0
scalar OsgEarthNet.uav[8] utilizationEnergyOverdrawMaintenance 0
scalar OsgEarthNet.uav[8] utilizationCountMissions 61
scalar OsgEarthNet.uav[8] utilizationCountManeuversMission 1314
scalar OsgEarthNet.uav[8] utilizationCountManeuversMaintenance 122
scalar OsgEarthNet.uav[8] utilizationCountChargeState 61
scalar OsgEarthNet.uav[8] utilizationCountOverdrawnAfterMission 0
scalar OsgEarthNet.uav[8] utilizationCountIdleState 4
scalar OsgEarthNet.uav[8] utilizationFail 0
scalar OsgEarthNet.uav[8] simulationTime 259200
scalar OsgEarthNet.uav[9] utilizationSecMission 760.62515258028
scalar OsgEarthNet.uav[9] utilizationSecMaintenance 280.27216773088
scalar OsgEarthNet.uav[9] utilizationSecCharge 3750
scalar OsgEarthNet.uav[9] utilizationSecIdle 254409.10167969
scalar OsgEarthNet.uav[9] utilizationEnergyMission 3621.3505096436
scalar OsgEarthNet.uav[9] utilizationEnergyMaintenance 1282.8715324402
scalar OsgEarthNet.uav[9] utilizationEnergyCharge 4904.220703125
scalar OsgEarthNet.uav[9] utilizationEnergyOverdrawMission 0
scalar OsgEarthNet.uav[9] utilizationEnergyOverdrawMaintenance 0
scalar OsgEarthNet.uav[9] utilizationCountMissions 1
scalar OsgEarthNet.uav[9] utilizationCountManeuversMission 12
scalar OsgEarthNet.uav[9] utilizationCountManeuversMaintenance 2
scalar OsgEarthNet.uav[9] utilizationCountChargeState 1
scalar OsgEarthNet.uav[9] utilizationCountOverdrawnAfterMission 0
scalar OsgEarthNet.uav[9] utilizationCountIdleState 2
scalar OsgEarthNet.uav[9] utilizationFail 0
scalar OsgEarthNet.uav[9] simulationTime 259200
scalar OsgEarthNet.uav[10] utilizationSecMission 480
scalar OsgEarthNet.uav[10] utilizationSecMaintenance 447.1303002674
scalar OsgEarthNet.uav[10] utilizationSecCharge 3450
scalar OsgEarthNet.uav[10] utilizationSecIdle 254822.86869973
scalar OsgEarthNet.uav[10] utilizationEnergyMission 2372.8645095825
scalar OsgEarthNet.uav[10] utilizationEnergyMaintenance 2097.4104728699
scalar OsgEarthNet.uav[10] utilizationEnergyCharge 4362.9477539062
scalar OsgEarthNet.uav[10] utilizationEnergyOverdrawMission 0
scalar OsgEarthNet.uav[10] utilizationEnergyOverdrawMaintenance 0
scalar OsgEarthNet.uav[10] utilizationCountMissions 1
scalar OsgEarthNet.uav[10] utilizationCountManeuversMission 24
scalar OsgEarthNet.uav[10] utilizationCountManeuversMaintenance 2
scalar OsgEarthNet.uav[10] utilizationCountChargeState 1
scalar OsgEarthNet.uav[10] utilizationCountOverdrawnAfterMission 0
scalar OsgEarthNet.uav[10] utilizationCountIdleState 2
scalar OsgEarthNet.uav[10] utilizationFail 0
scalar OsgEarthNet.uav[10] simulationTime 259200
scalar OsgEarthNet.uav[11] utilizationSecMission 7069.6155996771
scalar OsgEarthNet.uav[11] utilizationSecMaintenance 4868.3764003229
scalar OsgEarthNet.uav[11] utilizationSecCharge 44330
scalar OsgEarthNet.uav[11] utilizationSecIdle 202932.007
scalar OsgEarthNet.uav[11] utilizationEnergyMission 34480.90447444
scalar OsgEarthNet.uav[11] utilizationEnergyMaintenance 22847.126613617
scalar OsgEarthNet.uav[11] utilizationEnergyCharge 56071.635009766
scalar OsgEarthNet.uav[11] utilizationEnergyOverdrawMission 0
scalar OsgEarthNet.uav[11] utilizationEnergyOverdrawMaintenance 0
scalar OsgEarthNet.uav[11] utilizationCountMissions 13
scalar OsgEarthNet.uav[11] utilizationCountManeuversMission 280
scalar OsgEarthNet.uav[11] utilizationCountManeuversMaintenance 27
scalar OsgEarthNet.uav[11] utilizationCountChargeState 13
scalar OsgEarthNet.uav[11] utilizationCountOverdrawnAfterMission 0
scalar OsgEarthNet.uav[11] utilizationCountIdleState 14
scalar OsgEarthNet.uav[11] utilizationFail 0
scalar OsgEarthNet.uav[11] simulationTime 259200
scalar OsgEarthNet.uav[12] utilizationSecMission 41907.375127747
scalar OsgEarthNet.uav[12] utilizationSecMaintenance 17456.236138051
scalar OsgEarthNet.uav[12] utilizationSecCharge 197894.3857342
scalar OsgEarthNet.uav[12] utilizationSecIdle 1942.002
scalar OsgEarthNet.uav[12] utilizationEnergyMission 201491.79480362
scalar OsgEarthNet.uav[12] utilizationEnergyMaintenance 81045.432048798
scalar OsgEarthNet.uav[12] utilizationEnergyCharge 278746.41894531
scalar OsgEarthNet.uav[12] utilizationEnergyOverdrawMission 0
scalar OsgEarthNet.uav[12] utilizationEnergyOverdrawMaintenance 0
scalar OsgEarthNet.uav[12] utilizationCountMissions 61
scalar OsgEarthNet.uav[12] utilizationCountManeuversMission 1155
scalar OsgEarthNet.uav[12] utilizationCountManeuversMaintenance 122
scalar OsgEarthNet.uav[12] utilizationCountChargeState 61
scalar OsgEarthNet.uav[12] utilizationCountOverdrawnAfterMission 0
scalar OsgEarthNet.uav[12] utilizationCountIdleState 12
scalar OsgEarthNet.uav[12] utilizationFail 0
scalar OsgEarthNet.uav[12] simulationTime 259200
scalar OsgEarthNet.uav[13] utilizationSecMission 500
scalar OsgEarthNet.uav[13] utilizationSecMaintenance 447.1303002674
scalar OsgEarthNet.uav[13] utilizationSecCharge 3600
scalar OsgEarthNet.uav[13] utilizationSecIdle 254652.86869973
scalar OsgEarthNet.uav[13] utilizationEnergyMission 2579.1547698975
scalar OsgEarthNet.uav[13] utilizationEnergyMaintenance 2162.1806144714
scalar OsgEarthNet.uav[13] utilizationEnergyCharge 4630.796875
scalar OsgEarthNet.uav[13] utilizationEnergyOverdrawMission 0
scalar OsgEarthNet.uav[13] utilizationEnergyOverdrawMaintenance 0
scalar OsgEarthNet.uav[13] utilizationCountMissions 1
scalar OsgEarthNet.uav[13] utilizationCountManeuversMission 25
scalar OsgEarthNet.uav[13] utilizationCountManeuversMaintenance 2
scalar OsgEarthNet.uav[13] utilizationCountChargeState 1
scalar OsgEarthNet.uav[13] utilizationCountOverdrawnAfterMission 0
scalar OsgEarthNet.uav[13] utilizationCountIdleState 2
scalar OsgEarthNet.uav[13] utilizationFail 0
scalar OsgEarthNet.uav[13] simulationTime 259200
scalar OsgEarthNet.uav[14] utilizationSecMission 7458.1005887472
scalar OsgEarthNet.uav[14] utilizationSecMaintenance 5019.3007547108
scalar OsgEarthNet.uav[14] utilizationSecCharge 49610
scalar OsgEarthNet.uav[14] utilizationSecIdle 197112.59765654
scalar OsgEarthNet.uav[14] utilizationEnergyMission 35905.685447693
scalar OsgEarthNet.uav[14] utilizationEnergyMaintenance 24118.990001678
scalar OsgEarthNet.uav[14] utilizationEnergyCharge 60150.833251953
scalar OsgEarthNet.uav[14] utilizationEnergyOverdrawMission 0
scalar OsgEarthNet.uav[14] utilizationEnergyOverdrawMaintenance 0
scalar OsgEarthNet.uav[14] utilizationCountMissions 16
scalar OsgEarthNet.uav[14] utilizationCountManeuversMission 194
scalar OsgEarthNet.uav[14] utilizationCountManeuversMaintenance 32
scalar OsgEarthNet.uav[14] utilizationCountChargeState 16
scalar OsgEarthNet.uav[14] utilizationCountOverdrawnAfterMission 0
scalar OsgEarthNet.uav[14] utilizationCountIdleState 17
scalar OsgEarthNet.uav[14] utilizationFail 0
scalar OsgEarthNet.uav[14] simulationTime 259200
scalar OsgEarthNet.uav[15] utilizationSecMission 40586.822824453
scalar OsgEarthNet.uav[15] utilizationSecMaintenance 18076.951882756
scalar OsgEarthNet.uav[15] utilizationSecCharge 196886.59321213
scalar OsgEarthNet.uav[15] utilizationSecIdle 3649.6310806652
scalar OsgEarthNet.uav[15] utilizationEnergyMission 194965.16344452
scalar OsgEarthNet.uav[15] utilizationEnergyMaintenance 84152.701412201
scalar OsgEarthNet.uav[15] utilizationEnergyCharge 280123.3137207
scalar OsgEarthNet.uav[15] utilizationEnergyOverdrawMission 0
scalar OsgEarthNet.uav[15] utilizationEnergyOverdrawMaintenance 0
scalar OsgEarthNet.uav[15] utilizationCountMissions 61
scalar OsgEarthNet.uav[15] utilizationCountManeuversMission 1285
scalar OsgEarthNet.uav[15] utilizationCountManeuversMaintenance 122
scalar OsgEarthNet.uav[15] utilizationCountChargeState 61
scalar OsgEarthNet.uav[15] utilizationCountOverdrawnAfterMission 0
scalar OsgEarthNet.uav[15] utilizationCountIdleState 11
scalar OsgEarthNet.uav[15] utilizationFail 0
scalar OsgEarthNet.uav[15] simulationTime 259200
scalar OsgEarthNet.uav[16] utilizationSecMission 1521.2503051606
scalar OsgEarthNet.uav[16] utilizationSecMaintenance 396.10231423291
scalar OsgEarthNet.uav[16] utilizationSecCharge 6990
scalar OsgEarthNet.uav[16] utilizationSecIdle 250292.64638061
scalar OsgEarthNet.uav[16] utilizationEnergyMission 6855.3841705322
scalar OsgEarthNet.uav[16] utilizationEnergyMaintenance 1935.7613258362
scalar OsgEarthNet.uav[16] utilizationEnergyCharge 8928.6870117188
scalar OsgEarthNet.uav[16] utilizationEnergyOverdrawMission 0
scalar OsgEarthNet.uav[16] utilizationEnergyOverdrawMaintenance 0
scalar OsgEarthNet.uav[16] utilizationCountMissions 2
scalar OsgEarthNet.uav[16] utilizationCountManeuversMission 24
scalar OsgEarthNet.uav[16] utilizationCountManeuversMaintenance 4
scalar OsgEarthNet.uav[16] utilizationCountChargeState 2
scalar OsgEarthNet.uav[16] utilizationCountOverdrawnAfterMission 0
scalar OsgEarthNet.uav[16] utilizationCountIdleState 3
scalar OsgEarthNet.uav[16] utilizationFail 0
scalar OsgEarthNet.uav[16] simulationTime 259200
scalar OsgEarthNet.uav[17] utilizationSecMission 7439.7982152151
scalar OsgEarthNet.uav[17] utilizationSecMaintenance 4885.2608180944
scalar OsgEarthNet.uav[17] utilizationSecCharge 44304.825883026
scalar OsgEarthNet.uav[17] utilizationSecIdle 202570.11408366
scalar OsgEarthNet.uav[17] utilizationEnergyMission 36060.574958801
scalar OsgEarthNet.uav[17] utilizationEnergyMaintenance 22944.94978714
scalar OsgEarthNet.uav[17] utilizationEnergyCharge 56385.1640625
scalar OsgEarthNet.uav[17] utilizationEnergyOverdrawMission 0
scalar OsgEarthNet.uav[17] utilizationEnergyOverdrawMaintenance 0
scalar OsgEarthNet.uav[17] utilizationCountMissions 14
scalar OsgEarthNet.uav[17] utilizationCountManeuversMission 247
scalar OsgEarthNet.uav[17] utilizationCountManeuversMaintenance 28
scalar OsgEarthNet.uav[17] utilizationCountChargeState 14
scalar OsgEarthNet.uav[17] utilizationCountOverdrawnAfterMission 0
scalar OsgEarthNet.uav[17] utilizationCountIdleState 14
scalar OsgEarthNet.uav[17] utilizationFail 0
scalar OsgEarthNet.uav[17] simulationTime 259200
scalar OsgEarthNet.uav[18] utilizationSecMission 40412.686699152
scalar OsgEarthNet.uav[18] utilizationSecMaintenance 18091.538648531
scalar OsgEarthNet.uav[18] utilizationSecCharge 197213.76765232
scalar OsgEarthNet.uav[18] utilizationSecIdle 3482.006
scalar OsgEarthNet.uav[18] utilizationEnergyMission 196631.63251114
scalar OsgEarthNet.uav[18] utilizationEnergyMaintenance 84150.0716362
scalar OsgEarthNet.uav[18] utilizationEnergyCharge 279007.40551758
scalar OsgEarthNet.uav[18] utilizationEnergyOverdrawMission 0
scalar OsgEarthNet.uav[18] utilizationEnergyOverdrawMaintenance 0
scalar OsgEarthNet.uav[18] utilizationCountMissions 61
scalar OsgEarthNet.uav[18] utilizationCountManeuversMission 1239
scalar OsgEarthNet.uav[18] utilizationCountManeuversMaintenance 122
scalar OsgEarthNet.uav[18] utilizationCountChargeState 61
scalar OsgEarthNet.uav[18] utilizationCountOverdrawnAfterMission 0
scalar OsgEarthNet.uav[18] utilizationCountIdleState 8
scalar OsgEarthNet.uav[18] utilizationFail 0
scalar OsgEarthNet.uav[18] simulationTime 259200
scalar OsgEarthNet.uav[19] utilizationSecMission 13745.626373223
scalar OsgEarthNet.uav[19] utilizationSecMaintenance 8711.9523332973
scalar OsgEarthNet.uav[19] utilizationSecCharge 83670
scalar OsgEarthNet.uav[19] utilizationSecIdle 153072.42029348
scalar OsgEarthNet.uav[19] utilizationEnergyMission 65213.397857666
scalar OsgEarthNet.uav[19] utilizationEnergyMaintenance 41321.256286621
scalar OsgEarthNet.uav[19] utilizationEnergyCharge 107492.04394531
scalar OsgEarthNet.uav[19] utilizationEnergyOverdrawMission 0
scalar OsgEarthNet.uav[19] utilizationEnergyOverdrawMaintenance 0
scalar OsgEarthNet.uav[19] utilizationCountMissions 24
scalar OsgEarthNet.uav[19] utilizationCountManeuversMission 453
scalar OsgEarthNet.uav[19] utilizationCountManeuversMaintenance 48
scalar OsgEarthNet.uav[19] utilizationCountChargeState 24
scalar OsgEarthNet.uav[19] utilizationCountOverdrawnAfterMission 0
scalar OsgEarthNet.uav[19] utilizationCountIdleState 25
scalar OsgEarthNet.uav[19] utilizationFail 0
scalar OsgEarthNet.uav[19] simulationTime 259200
scalar OsgEarthNet.uav[20] utilizationSecMission 8803.1257629014
scalar OsgEarthNet.uav[20] utilizationSecMaintenance 6062.1132633841
scalar OsgEarthNet.uav[20] utilizationSecCharge 54592.737973715
scalar OsgEarthNet.uav[20] utilizationSecIdle 189742.022
scalar OsgEarthNet.uav[20] utilizationEnergyMission 42859.743907928
scalar OsgEarthNet.uav[20] utilizationEnergyMaintenance 28442.84753418
scalar OsgEarthNet.uav[20] utilizationEnergyCharge 71219.838134766
scalar OsgEarthNet.uav[20] utilizationEnergyOverdrawMission 0
scalar OsgEarthNet.uav[20] utilizationEnergyOverdrawMaintenance 0
scalar OsgEarthNet.uav[20] utilizationCountMissions 16
scalar OsgEarthNet.uav[20] utilizationCountManeuversMission 310
scalar OsgEarthNet.uav[20] utilizationCountManeuversMaintenance 32
scalar OsgEarthNet.uav[20] utilizationCountChargeState 16
scalar OsgEarthNet.uav[20] utilizationCountOverdrawnAfterMission 0
scalar OsgEarthNet.uav[20] utilizationCountIdleState 16
scalar OsgEarthNet.uav[20] utilizationFail 0
scalar OsgEarthNet.uav[20] simulationTime 259200
scalar OsgEarthNet.uav[21] utilizationSecMission 19473.7486165
scalar OsgEarthNet.uav[21] utilizationSecMaintenance 13375.286397827
scalar OsgEarthNet.uav[21] utilizationSecCharge 124610
scalar OsgEarthNet.uav[21] utilizationSecIdle 101740.96398567
scalar OsgEarthNet.uav[21] utilizationEnergyMission 95471.28162384
scalar OsgEarthNet.uav[21] utilizationEnergyMaintenance 63454.475447819
scalar OsgEarthNet.uav[21] utilizationEnergyCharge 156052.11083984
scalar OsgEarthNet.uav[21] utilizationEnergyOverdrawMission 0
scalar OsgEarthNet.uav[21] utilizationEnergyOverdrawMaintenance 0
scalar OsgEarthNet.uav[21] utilizationCountMissions 39
scalar OsgEarthNet.uav[21] utilizationCountManeuversMission 713
scalar OsgEarthNet.uav[21] utilizationCountManeuversMaintenance 78
scalar OsgEarthNet.uav[21] utilizationCountChargeState 38
scalar OsgEarthNet.uav[21] utilizationCountOverdrawnAfterMission 0
scalar OsgEarthNet.uav[21] utilizationCountIdleState 39
scalar OsgEarthNet.uav[21] utilizationFail 0
scalar OsgEarthNet.uav[21] simulationTime 259200
scalar OsgEarthNet.uav[22] utilizationSecMission 41333.592928899
scalar OsgEarthNet.uav[22] utilizationSecMaintenance 18314.406071101
scalar OsgEarthNet.uav[22] utilizationSecCharge 199190
scalar OsgEarthNet.uav[22] utilizationSecIdle 362
scalar OsgEarthNet.uav[22] utilizationEnergyMission 202165.13059471
scalar OsgEarthNet.uav[22] utilizationEnergyMaintenance 84842.256668091
scalar OsgEarthNet.uav[22] utilizationEnergyCharge 282558.44360352
scalar OsgEarthNet.uav[22] utilizationEnergyOverdrawMission 0
scalar OsgEarthNet.uav[22] utilizationEnergyOverdrawMaintenance 0
scalar OsgEarthNet.uav[22] utilizationCountMissions 62
scalar OsgEarthNet.uav[22] utilizationCountManeuversMission 1384
scalar OsgEarthNet.uav[22] utilizationCountManeuversMaintenance 125
scalar OsgEarthNet.uav[22] utilizationCountChargeState 62
scalar OsgEarthNet.uav[22] utilizationCountOverdrawnAfterMission 0
scalar OsgEarthNet.uav[22] utilizationCountIdleState 6
scalar OsgEarthNet.uav[22] utilizationFail 0
scalar OsgEarthNet.uav[22] simulationTime 259200
scalar OsgEarthNet.uav[23] utilizationSecMission 12954.743181892
scalar OsgEarthNet.uav[23] utilizationSecMaintenance 8484.5221214921
scalar OsgEarthNet.uav[23] utilizationSecCharge 80420
scalar OsgEarthNet.uav[23] utilizationSecIdle 157340.73369662
scalar OsgEarthNet.uav[23] utilizationEnergyMission 64747.818462372
scalar OsgEarthNet.uav[23] utilizationEnergyMaintenance 40552.209911346
scalar OsgEarthNet.uav[23] utilizationEnergyCharge 103555.32714844
scalar OsgEarthNet.uav[23] utilizationEnergyOverdrawMission 0
scalar OsgEarthNet.uav[23] utilizationEnergyOverdrawMaintenance 0
scalar OsgEarthNet.uav[23] utilizationCountMissions 23
scalar OsgEarthNet.uav[23] utilizationCountManeuversMission 444
scalar OsgEarthNet.uav[23] utilizationCountManeuversMaintenance 46
scalar OsgEarthNet.uav[23] utilizationCountChargeState 23
scalar OsgEarthNet.uav[23] utilizationCountOverdrawnAfterMission 0
scalar OsgEarthNet.uav[23] utilizationCountIdleState 24
scalar OsgEarthNet.uav[23] utilizationFail 0
scalar OsgEarthNet.uav[23] simulationTime 259200
scalar OsgEarthNet.uav[24] utilizationSecMission 16891.129926739
scalar OsgEarthNet.uav[24] utilizationSecMaintenance 11315.018739967
scalar OsgEarthNet.uav[24] utilizationSecCharge 106901.84882657
scalar OsgEarthNet.uav[24] utilizationSecIdle 124092.00150672
scalar OsgEarthNet.uav[24] utilizationEnergyMission 81901.314239502
scalar OsgEarthNet.uav[24] utilizationEnergyMaintenance 53948.984207153
scalar OsgEarthNet.uav[24] utilizationEnergyCharge 132654.72729492
scalar OsgEarthNet.uav[24] utilizationEnergyOverdrawMission 0
scalar OsgEarthNet.uav[24] utilizationEnergyOverdrawMaintenance 0
scalar OsgEarthNet.uav[24] utilizationCountMissions 34
scalar OsgEarthNet.uav[24] utilizationCountManeuversMission 530
scalar OsgEarthNet.uav[24] utilizationCountManeuversMaintenance 68
scalar OsgEarthNet.uav[24] utilizationCountChargeState 34
scalar OsgEarthNet.uav[24] utilizationCountOverdrawnAfterMission 0
scalar OsgEarthNet.uav[24] utilizationCountIdleState 34
scalar OsgEarthNet.uav[24] utilizationFail 0
scalar OsgEarthNet.uav[24] simulationTime 259200
scalar OsgEarthNet.uav[25] utilizationSecMission 41409.794959352
scalar OsgEarthNet.uav[25] utilizationSecMaintenance 17163.964147192
scalar OsgEarthNet.uav[25] utilizationSecCharge 196122.77884746
scalar OsgEarthNet.uav[25] utilizationSecIdle 4503.4610459923
scalar OsgEarthNet.uav[25] utilizationEnergyMission 197475.3877449
scalar OsgEarthNet.uav[25] utilizationEnergyMaintenance 78933.938640595
scalar OsgEarthNet.uav[25] utilizationEnergyCharge 275984.70996094
scalar OsgEarthNet.uav[25] utilizationEnergyOverdrawMission 0
scalar OsgEarthNet.uav[25] utilizationEnergyOverdrawMaintenance 0
scalar OsgEarthNet.uav[25] utilizationCountMissions 60
scalar OsgEarthNet.uav[25] utilizationCountManeuversMission 1121
scalar OsgEarthNet.uav[25] utilizationCountManeuversMaintenance 120
scalar OsgEarthNet.uav[25] utilizationCountChargeState 60
scalar OsgEarthNet.uav[25] utilizationCountOverdrawnAfterMission 0
scalar OsgEarthNet.uav[25] utilizationCountIdleState 11
scalar OsgEarthNet.uav[25] utilizationFail 0
scalar OsgEarthNet.uav[25] simulationTime 259200
scalar OsgEarthNet.uav[26] utilizationSecMission 10043.750915482
scalar OsgEarthNet.uav[26] utilizationSecMaintenance 6702.7312003701
scalar OsgEarthNet.uav[26] utilizationSecCharge 63740
scalar OsgEarthNet.uav[26] utilizationSecIdle 178713.51688415
scalar OsgEarthNet.uav[26] utilizationEnergyMission 49430.773921967
scalar OsgEarthNet.uav[26] utilizationEnergyMaintenance 32318.983207703
scalar OsgEarthNet.uav[26] utilizationEnergyCharge 82107.538574219
scalar OsgEarthNet.uav[26] utilizationEnergyOverdrawMission 0
scalar OsgEarthNet.uav[26] utilizationEnergyOverdrawMaintenance 0
scalar OsgEarthNet.uav[26] utilizationCountMissions 18
scalar OsgEarthNet.uav[26] utilizationCountManeuversMission 346
scalar OsgEarthNet.uav[26] utilizationCountManeuversMaintenance 36
scalar OsgEarthNet.uav[26] utilizationCountChargeState 18
scalar OsgEarthNet.uav[26] utilizationCountOverdrawnAfterMission 0
scalar OsgEarthNet.uav[26] utilizationCountIdleState 19
scalar OsgEarthNet.uav[26] utilizationFail 0
scalar OsgEarthNet.uav[26] simulationTime 259200
scalar OsgEarthNet.uav[27] utilizationSecMission 15248.348224002
scalar OsgEarthNet.uav[27] utilizationSecMaintenance 10878.968630167
scalar OsgEarthNet.uav[27] utilizationSecCharge 101460
scalar OsgEarthNet.uav[27] utilizationSecIdle 131612.68214583
scalar OsgEarthNet.uav[27] utilizationEnergyMission 76260.626880646
scalar OsgEarthNet.uav[27] utilizationEnergyMaintenance 51909.379524231
scalar OsgEarthNet.uav[27] utilizationEnergyCharge 128347.93823242
scalar OsgEarthNet.uav[27] utilizationEnergyOverdrawMission 0
scalar OsgEarthNet.uav[27] utilizationEnergyOverdrawMaintenance 0
scalar OsgEarthNet.uav[27] utilizationCountMissions 30
scalar OsgEarthNet.uav[27] utilizationCountManeuversMission 621
scalar OsgEarthNet.uav[27] utilizationCountManeuversMaintenance 60
scalar OsgEarthNet.uav[27] utilizationCountChargeState 30
scalar OsgEarthNet.uav[27] utilizationCountOverdrawnAfterMission 0
scalar OsgEarthNet.uav[27] utilizationCountIdleState 31
scalar OsgEarthNet.uav[27] utilizationFail 0
scalar OsgEarthNet.uav[27] simulationTime 259200
scalar OsgEarthNet.uav[28] utilizationSecMission 40946.76013012
scalar OsgEarthNet.uav[28] utilizationSecMaintenance 17566.452700296
scalar OsgEarthNet.uav[28] utilizationSecCharge 196060.76290379
scalar OsgEarthNet.uav[28] utilizationSecIdle 4626.0232657979
scalar OsgEarthNet.uav[28] utilizationEnergyMission 199205.0306282
scalar OsgEarthNet.uav[28] utilizationEnergyMaintenance 80981.998786926
scalar OsgEarthNet.uav[28] utilizationEnergyCharge 278233.34277344
scalar OsgEarthNet.uav[28] utilizationEnergyOverdrawMission 0
scalar OsgEarthNet.uav[28] utilizationEnergyOverdrawMaintenance 0
scalar OsgEarthNet.uav[28] utilizationCountMissions 61
scalar OsgEarthNet.uav[28] utilizationCountManeuversMission 1350
scalar OsgEarthNet.uav[28] utilizationCountManeuversMaintenance 122
scalar OsgEarthNet.uav[28] utilizationCountChargeState 61
scalar OsgEarthNet.uav[28] utilizationCountOverdrawnAfterMission 0
scalar OsgEarthNet.uav[28] utilizationCountIdleState 10
scalar OsgEarthNet.uav[28] utilizationFail 0
scalar OsgEarthNet.uav[28] simulationTime 259200
scalar OsgEarthNet.uav[29] utilizationSecMission 11478.385022294
scalar OsgEarthNet.uav[29] utilizationSecMaintenance 4344.526417796
scalar OsgEarthNet.uav[29] utilizationSecCharge 57250
scalar OsgEarthNet.uav[29] utilizationSecIdle 186127.08755991
scalar OsgEarthNet.uav[29] utilizationEnergyMission 53697.805072784
scalar OsgEarthNet.uav[29] utilizationEnergyMaintenance 20534.892120361
scalar OsgEarthNet.uav[29] utilizationEnergyCharge 73863.028320312
scalar OsgEarthNet.uav[29] utilizationEnergyOverdrawMission 0
scalar OsgEarthNet.uav[29] utilizationEnergyOverdrawMaintenance 0
scalar OsgEarthNet.uav[29] utilizationCountMissions 16
scalar OsgEarthNet.uav[29] utilizationCountManeuversMission 231
scalar OsgEarthNet.uav[29] utilizationCountManeuversMaintenance 32
scalar OsgEarthNet.uav[29] utilizationCountChargeState 16
scalar OsgEarthNet.uav[29] utilizationCountOverdrawnAfterMission 0
scalar OsgEarthNet.uav[29] utilizationCountIdleState 17
scalar OsgEarthNet.uav[29] utilizationFail 0
scalar OsgEarthNet.uav[29] simulationTime 259200
scalar OsgEarthNet.uav[30] utilizationSecMission 11605.001220642
scalar OsgEarthNet.uav[30] utilizationSecMaintenance 7012.2318166117
scalar OsgEarthNet.uav[30] utilizationSecCharge 70370
scalar OsgEarthNet.uav[30] utilizationSecIdle 170212.76596275
scalar OsgEarthNet.uav[30] utilizationEnergyMission 55814.945587158
scalar OsgEarthNet.uav[30] utilizationEnergyMaintenance 33527.569960847
scalar OsgEarthNet.uav[30] utilizationEnergyCharge 90207.926757812
scalar OsgEarthNet.uav[30] utilizationEnergyOverdrawMission 0
scalar OsgEarthNet.uav[30] utilizationEnergyOverdrawMaintenance 0
scalar OsgEarthNet.uav[30] utilizationCountMissions 20
scalar OsgEarthNet.uav[30] utilizationCountManeuversMission 372
scalar OsgEarthNet.uav[30] utilizationCountManeuversMaintenance 41
scalar OsgEarthNet.uav[30] utilizationCountChargeState 20
scalar OsgEarthNet.uav[30] utilizationCountOverdrawnAfterMission 0
scalar OsgEarthNet.uav[30] utilizationCountIdleState 21
scalar OsgEarthNet.uav[30] utilizationFail 0
scalar OsgEarthNet.uav[30] simulationTime 259200
scalar OsgEarthNet.uav[31] utilizationSecMission 18292.839746265
scalar OsgEarthNet.uav[31] utilizationSecMaintenance 11990.031183553
scalar OsgEarthNet.uav[31] utilizationSecCharge 117220
scalar OsgEarthNet.uav[31] utilizationSecIdle 111697.12807018
scalar OsgEarthNet.uav[31] utilizationEnergyMission 89525.327758789
scalar OsgEarthNet.uav[31] utilizationEnergyMaintenance 57169.847782135
scalar OsgEarthNet.uav[31] utilizationEnergyCharge 147964.82617188
scalar OsgEarthNet.uav[31] utilizationEnergyOverdrawMission 0
scalar OsgEarthNet.uav[31] utilizationEnergyOverdrawMaintenance 0
scalar OsgEarthNet.uav[31] utilizationCountMissions 35
scalar OsgEarthNet.uav[31] utilizationCountManeuversMission 625
scalar OsgEarthNet.uav[31] utilizationCountManeuversMaintenance 70
scalar OsgEarthNet.uav[31] utilizationCountChargeState 35
scalar OsgEarthNet.uav[31] utilizationCountOverdrawnAfterMission 0
scalar OsgEarthNet.uav[31] utilizationCountIdleState 36
scalar OsgEarthNet.uav[31] utilizationFail 0
scalar OsgEarthNet.uav[31] simulationTime 259200
scalar OsgEarthNet.uav[32] utilizationSecMission 41455.725624188
scalar OsgEarthNet.uav[32] utilizationSecMaintenance 17662.268375812
scalar OsgEarthNet.uav[32] utilizationSecCharge 195400
scalar OsgEarthNet.uav[32] utilizationSecIdle 4682.005
scalar OsgEarthNet.uav[32] utilizationEnergyMission 199255.13144971
scalar OsgEarthNet.uav[32] utilizationEnergyMaintenance 81055.298427582
scalar OsgEarthNet.uav[32] utilizationEnergyCharge 279265.99072266
scalar OsgEarthNet.uav[32] utilizationEnergyOverdrawMission 0
scalar OsgEarthNet.uav[32] utilizationEnergyOverdrawMaintenance 0
scalar OsgEarthNet.uav[32] utilizationCountMissions 61
scalar OsgEarthNet.uav[32] utilizationCountManeuversMission 1302
scalar OsgEarthNet.uav[32] utilizationCountManeuversMaintenance 123
scalar OsgEarthNet.uav[32] utilizationCountChargeState 61
scalar OsgEarthNet.uav[32] utilizationCountOverdrawnAfterMission 0
scalar OsgEarthNet.uav[32] utilizationCountIdleState 11
scalar OsgEarthNet.uav[32] utilizationFail 0
scalar OsgEarthNet.uav[32] simulationTime 259200
scalar OsgEarthNet.uav[33] utilizationSecMission 24332.153237852
scalar OsgEarthNet.uav[33] utilizationSecMaintenance 13818.62162372
scalar OsgEarthNet.uav[33] utilizationSecCharge 139630
scalar OsgEarthNet.uav[33] utilizationSecIdle 81419.224138428
scalar OsgEarthNet.uav[33] utilizationEnergyMission 119310.52942657
scalar OsgEarthNet.uav[33] utilizationEnergyMaintenance 65097.556797028
scalar OsgEarthNet.uav[33] utilizationEnergyCharge 184764.40429688
scalar OsgEarthNet.uav[33] utilizationEnergyOverdrawMission 0
scalar OsgEarthNet.uav[33] utilizationEnergyOverdrawMaintenance 0
scalar OsgEarthNet.uav[33] utilizationCountMissions 43
scalar OsgEarthNet.uav[33] utilizationCountManeuversMission 773
scalar OsgEarthNet.uav[33] utilizationCountManeuversMaintenance 85
scalar OsgEarthNet.uav[33] utilizationCountChargeState 43
scalar OsgEarthNet.uav[33] utilizationCountOverdrawnAfterMission 0
scalar OsgEarthNet.uav[33] utilizationCountIdleState 26
scalar OsgEarthNet.uav[33] utilizationFail 0
scalar OsgEarthNet.uav[33] simulationTime 259200
scalar OsgEarthNet.uav[34] utilizationSecMission 17497.812118101
scalar OsgEarthNet.uav[34] utilizationSecMaintenance 12706.564700002
scalar OsgEarthNet.uav[34] utilizationSecCharge 117783.6101819
scalar OsgEarthNet.uav[34] utilizationSecIdle 111212.012
scalar OsgEarthNet.uav[34] utilizationEnergyMission 85124.713352203
scalar OsgEarthNet.uav[34] utilizationEnergyMaintenance 59762.903205872
scalar OsgEarthNet.uav[34] utilizationEnergyCharge 145175.11352539
scalar OsgEarthNet.uav[34] utilizationEnergyOverdrawMission 0
scalar OsgEarthNet.uav[34] utilizationEnergyOverdrawMaintenance 0
scalar OsgEarthNet.uav[34] utilizationCountMissions 38
scalar OsgEarthNet.uav[34] utilizationCountManeuversMission 598
scalar OsgEarthNet.uav[34] utilizationCountManeuversMaintenance 76
scalar OsgEarthNet.uav[34] utilizationCountChargeState 38
scalar OsgEarthNet.uav[34] utilizationCountOverdrawnAfterMission 0
scalar OsgEarthNet.uav[34] utilizationCountIdleState 38
scalar OsgEarthNet.uav[34] utilizationFail 0
scalar OsgEarthNet.uav[34] simulationTime 259200
scalar OsgEarthNet.uav[35] utilizationSecMission 41152.748927182
scalar OsgEarthNet.uav[35] utilizationSecMaintenance 18005.605000819
scalar OsgEarthNet.uav[35] utilizationSecCharge 198160
scalar OsgEarthNet.uav[35] utilizationSecIdle 1881.645071999
scalar OsgEarthNet.uav[35] utilizationEnergyMission 198343.9575119
scalar OsgEarthNet.uav[35] utilizationEnergyMaintenance 82666.989070892
scalar OsgEarthNet.uav[35] utilizationEnergyCharge 281063.15185547
scalar OsgEarthNet.uav[35] utilizationEnergyOverdrawMission 0
scalar OsgEarthNet.uav[35] utilizationEnergyOverdrawMaintenance 0
scalar OsgEarthNet.uav[35] utilizationCountMissions 61
scalar OsgEarthNet.uav[35] utilizationCountManeuversMission 1302
scalar OsgEarthNet.uav[35] utilizationCountManeuversMaintenance 122
scalar OsgEarthNet.uav[35] utilizationCountChargeState 61
scalar OsgEarthNet.uav[35] utilizationCountOverdrawnAfterMission 0
scalar OsgEarthNet.uav[35] utilizationCountIdleState 7
scalar OsgEarthNet.uav[35] utilizationFail 0
scalar OsgEarthNet.uav[35] simulationTime 259200
scalar OsgEarthNet.uav[36] utilizationSecMission 11034.118029311
scalar OsgEarthNet.uav[36] utilizationSecMaintenance 6841.6420882953
scalar OsgEarthNet.uav[36] utilizationSecCharge 66370
scalar OsgEarthNet.uav[36] utilizationSecIdle 174954.23888239
scalar OsgEarthNet.uav[36] utilizationEnergyMission 52956.367061615
scalar OsgEarthNet.uav[36] utilizationEnergyMaintenance 32509.810398102
scalar OsgEarthNet.uav[36] utilizationEnergyCharge 85453.729980469
scalar OsgEarthNet.uav[36] utilizationEnergyOverdrawMission 0
scalar OsgEarthNet.uav[36] utilizationEnergyOverdrawMaintenance 0
scalar OsgEarthNet.uav[36] utilizationCountMissions 19
scalar OsgEarthNet.uav[36] utilizationCountManeuversMission 374
scalar OsgEarthNet.uav[36] utilizationCountManeuversMaintenance 38
scalar OsgEarthNet.uav[36] utilizationCountChargeState 19
scalar OsgEarthNet.uav[36] utilizationCountOverdrawnAfterMission 0
scalar OsgEarthNet.uav[36] utilizationCountIdleState 20
scalar OsgEarthNet.uav[36] utilizationFail 0
scalar OsgEarthNet.uav[36] simulationTime 259200
scalar OsgEarthNet.uav[37] utilizationSecMission 17798.324596746
scalar OsgEarthNet.uav[37] utilizationSecMaintenance 12492.678375122
scalar OsgEarthNet.uav[37] utilizationSecCharge 119480
scalar OsgEarthNet.uav[37] utilizationSecIdle 109428.99602813
scalar OsgEarthNet.uav[37] utilizationEnergyMission 85878.79442215
scalar OsgEarthNet.uav[37] utilizationEnergyMaintenance 59303.881519318
scalar OsgEarthNet.uav[37] utilizationEnergyCharge 144654.81225586
scalar OsgEarthNet.uav[37] utilizationEnergyOverdrawMission 0
scalar OsgEarthNet.uav[37] utilizationEnergyOverdrawMaintenance 0
scalar OsgEarthNet.uav[37] utilizationCountMissions 39
scalar OsgEarthNet.uav[37] utilizationCountManeuversMission 511
scalar OsgEarthNet.uav[37] utilizationCountManeuversMaintenance 78
scalar OsgEarthNet.uav[37] utilizationCountChargeState 39
scalar OsgEarthNet.uav[37] utilizationCountOverdrawnAfterMission 0
scalar OsgEarthNet.uav[37] utilizationCountIdleState 40
scalar OsgEarthNet.uav[37] utilizationFail 0
scalar OsgEarthNet.uav[37] simulationTime 259200
scalar OsgEarthNet.uav[38] utilizationSecMission 40190.08235793
scalar OsgEarthNet.uav[38] utilizationSecMaintenance 18760.323731388
scalar OsgEarthNet.uav[38] utilizationSecCharge 199065.09496951
scalar OsgEarthNet.uav[38] utilizationSecIdle 1184.4979411756
scalar OsgEarthNet.uav[38] utilizationEnergyMission 197971.7333107
scalar OsgEarthNet.uav[38] utilizationEnergyMaintenance 85500.690429688
scalar OsgEarthNet.uav[38] utilizationEnergyCharge 281297.04699707
scalar OsgEarthNet.uav[38] utilizationEnergyOverdrawMission 0
scalar OsgEarthNet.uav[38] utilizationEnergyOverdrawMaintenance 0
scalar OsgEarthNet.uav[38] utilizationCountMissions 62
scalar OsgEarthNet.uav[38] utilizationCountManeuversMission 1397
scalar OsgEarthNet.uav[38] utilizationCountManeuversMaintenance 124
scalar OsgEarthNet.uav[38] utilizationCountChargeState 62
scalar OsgEarthNet.uav[38] utilizationCountOverdrawnAfterMission 0
scalar OsgEarthNet.uav[38] utilizationCountIdleState 7
scalar OsgEarthNet.uav[38] utilizationFail 0
scalar OsgEarthNet.uav[38] simulationTime 259200
scalar OsgEarthNet.uav[39] utilizationSecMission 9243.7509154817
scalar OsgEarthNet.uav[39] utilizationSecMaintenance 5982.6023906088
scalar OsgEarthNet.uav[39] utilizationSecCharge 56980
scalar OsgEarthNet.uav[39] utilizationSecIdle 186993.64569391
scalar OsgEarthNet.uav[39] utilizationEnergyMission 45547.925075531
scalar OsgEarthNet.uav[39] utilizationEnergyMaintenance 28202.376190185
scalar OsgEarthNet.uav[39] utilizationEnergyCharge 73628.460449219
scalar OsgEarthNet.uav[39] utilizationEnergyOverdrawMission 0
scalar OsgEarthNet.uav[39] utilizationEnergyOverdrawMaintenance 0
scalar OsgEarthNet.uav[39] utilizationCountMissions 16
scalar OsgEarthNet.uav[39] utilizationCountManeuversMission 306
scalar OsgEarthNet.uav[39] utilizationCountManeuversMaintenance 32
scalar OsgEarthNet.uav[39] utilizationCountChargeState 16
scalar OsgEarthNet.uav[39] utilizationCountOverdrawnAfterMission 0
scalar OsgEarthNet.uav[39] utilizationCountIdleState 17
scalar OsgEarthNet.uav[39] utilizationFail 0
scalar OsgEarthNet.uav[39] simulationTime 259200
scalar OsgEarthNet.uav[40] utilizationSecMission 8642.5006103211
scalar OsgEarthNet.uav[40] utilizationSecMaintenance 6326.3901006398
scalar OsgEarthNet.uav[40] utilizationSecCharge 56290
scalar OsgEarthNet.uav[40] utilizationSecIdle 187941.10828904
scalar OsgEarthNet.uav[40] utilizationEnergyMission 41787.982276917
scalar OsgEarthNet.uav[40] utilizationEnergyMaintenance 29960.692302704
scalar OsgEarthNet.uav[40] utilizationEnergyCharge 72312.233398438
scalar OsgEarthNet.uav[40] utilizationEnergyOverdrawMission 0
scalar OsgEarthNet.uav[40] utilizationEnergyOverdrawMaintenance 0
scalar OsgEarthNet.uav[40] utilizationCountMissions 16
scalar OsgEarthNet.uav[40] utilizationCountManeuversMission 328
scalar OsgEarthNet.uav[40] utilizationCountManeuversMaintenance 32
scalar OsgEarthNet.uav[40] utilizationCountChargeState 16
scalar OsgEarthNet.uav[40] utilizationCountOverdrawnAfterMission 0
scalar OsgEarthNet.uav[40] utilizationCountIdleState 17
scalar OsgEarthNet.uav[40] utilizationFail 0
scalar OsgEarthNet.uav[40] simulationTime 259200
scalar OsgEarthNet.uav[41] utilizationSecMission 18931.642405384
scalar OsgEarthNet.uav[41] utilizationSecMaintenance 12195.079207622
scalar OsgEarthNet.uav[41] utilizationSecCharge 119723.25711285
scalar OsgEarthNet.uav[41] utilizationSecIdle 108350.02027414
scalar OsgEarthNet.uav[41] utilizationEnergyMission 90768.989807129
scalar OsgEarthNet.uav[41] utilizationEnergyMaintenance 57707.981006622
scalar OsgEarthNet.uav[41] utilizationEnergyCharge 148140.96459961
scalar OsgEarthNet.uav[41] utilizationEnergyOverdrawMission 0
scalar OsgEarthNet.uav[41] utilizationEnergyOverdrawMaintenance 0
scalar OsgEarthNet.uav[41] utilizationCountMissions 38
scalar OsgEarthNet.uav[41] utilizationCountManeuversMission 530
scalar OsgEarthNet.uav[41] utilizationCountManeuversMaintenance 76
scalar OsgEarthNet.uav[41] utilizationCountChargeState 38
scalar OsgEarthNet.uav[41] utilizationCountOverdrawnAfterMission 0
scalar OsgEarthNet.uav[41] utilizationCountIdleState 38
scalar OsgEarthNet.uav[41] utilizationFail 0
scalar OsgEarthNet.uav[41] simulationTime 259200
scalar OsgEarthNet.uav[42] utilizationSecMission 41948.17540565
scalar OsgEarthNet.uav[42] utilizationSecMaintenance 17601.503458089
scalar OsgEarthNet.uav[42] utilizationSecCharge 197198.64708688
scalar OsgEarthNet.uav[42] utilizationSecIdle 2451.673049383
scalar OsgEarthNet.uav[42] utilizationEnergyMission 199956.68160629
scalar OsgEarthNet.uav[42] utilizationEnergyMaintenance 80397.518928528
scalar OsgEarthNet.uav[42] utilizationEnergyCharge 280430.02709961
scalar OsgEarthNet.uav[42] utilizationEnergyOverdrawMission 0
scalar OsgEarthNet.uav[42] utilizationEnergyOverdrawMaintenance 0
scalar OsgEarthNet.uav[42] utilizationCountMissions 61
scalar OsgEarthNet.uav[42] utilizationCountManeuversMission 1095
scalar OsgEarthNet.uav[42] utilizationCountManeuversMaintenance 122
scalar OsgEarthNet.uav[42] utilizationCountChargeState 61
scalar OsgEarthNet.uav[42] utilizationCountOverdrawnAfterMission 0
scalar OsgEarthNet.uav[42] utilizationCountIdleState 7
scalar OsgEarthNet.uav[42] utilizationFail 0
scalar OsgEarthNet.uav[42] simulationTime 259200
scalar OsgEarthNet.uav[43] utilizationSecMission 11323.125762901
scalar OsgEarthNet.uav[43] utilizationSecMaintenance 8386.6392196014
scalar OsgEarthNet.uav[43] utilizationSecCharge 74580
scalar OsgEarthNet.uav[43] utilizationSecIdle 164910.2340175
scalar OsgEarthNet.uav[43] utilizationEnergyMission 55554.815685272
scalar OsgEarthNet.uav[43] utilizationEnergyMaintenance 39957.264705658
scalar OsgEarthNet.uav[43] utilizationEnergyCharge 96301.794433594
scalar OsgEarthNet.uav[43] utilizationEnergyOverdrawMission 0
scalar OsgEarthNet.uav[43] utilizationEnergyOverdrawMaintenance 0
scalar OsgEarthNet.uav[43] utilizationCountMissions 21
scalar OsgEarthNet.uav[43] utilizationCountManeuversMission 436
scalar OsgEarthNet.uav[43] utilizationCountManeuversMaintenance 42
scalar OsgEarthNet.uav[43] utilizationCountChargeState 21
scalar OsgEarthNet.uav[43] utilizationCountOverdrawnAfterMission 0
scalar OsgEarthNet.uav[43] utilizationCountIdleState 22
scalar OsgEarthNet.uav[43] utilizationFail 0
scalar OsgEarthNet.uav[43] simulationTime 259200
scalar OsgEarthNet.uav[44] utilizationSecMission 17095.994377632
scalar OsgEarthNet.uav[44] utilizationSecMaintenance 11149.107749563
scalar OsgEarthNet.uav[44] utilizationSecCharge 109970
scalar OsgEarthNet.uav[44] utilizationSecIdle 120984.89687281
scalar OsgEarthNet.uav[44] utilizationEnergyMission 82666.114276886
scalar OsgEarthNet.uav[44] utilizationEnergyMaintenance 53088.397819519
scalar OsgEarthNet.uav[44] utilizationEnergyCharge 136290.10449219
scalar OsgEarthNet.uav[44] utilizationEnergyOverdrawMission 0
scalar OsgEarthNet.uav[44] utilizationEnergyOverdrawMaintenance 0
scalar OsgEarthNet.uav[44] utilizationCountMissions 34
scalar OsgEarthNet.uav[44] utilizationCountManeuversMission 520
scalar OsgEarthNet.uav[44] utilizationCountManeuversMaintenance 68
scalar OsgEarthNet.uav[44] utilizationCountChargeState 34
scalar OsgEarthNet.uav[44] utilizationCountOverdrawnAfterMission 0
scalar OsgEarthNet.uav[44] utilizationCountIdleState 35
scalar OsgEarthNet.uav[44] utilizationFail 0
scalar OsgEarthNet.uav[44] simulationTime 259200
scalar OsgEarthNet.uav[45] utilizationSecMission 42272.725239226
scalar OsgEarthNet.uav[45] utilizationSecMaintenance 17625.273760774
scalar OsgEarthNet.uav[45] utilizationSecCharge 197900
scalar OsgEarthNet.uav[45] utilizationSecIdle 1402
scalar OsgEarthNet.uav[45] utilizationEnergyMission 203338.22984695
scalar OsgEarthNet.uav[45] utilizationEnergyMaintenance 81028.24680574
scalar OsgEarthNet.uav[45] utilizationEnergyCharge 280384.75292969
scalar OsgEarthNet.uav[45] utilizationEnergyOverdrawMission 0
scalar OsgEarthNet.uav[45] utilizationEnergyOverdrawMaintenance 0
scalar OsgEarthNet.uav[45] utilizationCountMissions 62
scalar OsgEarthNet.uav[45] utilizationCountManeuversMission 1255
scalar OsgEarthNet.uav[45] utilizationCountManeuversMaintenance 124
scalar OsgEarthNet.uav[45] utilizationCountChargeState 61
scalar OsgEarthNet.uav[45] utilizationCountOverdrawnAfterMission 0
scalar OsgEarthNet.uav[45] utilizationCountIdleState 12
scalar OsgEarthNet.uav[45] utilizationFail 0
scalar OsgEarthNet.uav[45] simulationTime 259200
scalar OsgEarthNet.uav[46] utilizationSecMission 16287.364991328
scalar OsgEarthNet.uav[46] utilizationSecMaintenance 9271.1917800228
scalar OsgEarthNet.uav[46] utilizationSecCharge 91925.492985619
scalar OsgEarthNet.uav[46] utilizationSecIdle 141715.94924303
scalar OsgEarthNet.uav[46] utilizationEnergyMission 78016.894775391
scalar OsgEarthNet.uav[46] utilizationEnergyMaintenance 44013.905258179
scalar OsgEarthNet.uav[46] utilizationEnergyCharge 118485.4317627
scalar OsgEarthNet.uav[46] utilizationEnergyOverdrawMission 0
scalar OsgEarthNet.uav[46] utilizationEnergyOverdrawMaintenance 0
scalar OsgEarthNet.uav[46] utilizationCountMissions 27
scalar OsgEarthNet.uav[46] utilizationCountManeuversMission 480
scalar OsgEarthNet.uav[46] utilizationCountManeuversMaintenance 54
scalar OsgEarthNet.uav[46] utilizationCountChargeState 27
scalar OsgEarthNet.uav[46] utilizationCountOverdrawnAfterMission 0
scalar OsgEarthNet.uav[46] utilizationCountIdleState 27
scalar OsgEarthNet.uav[46] utilizationFail 0
scalar OsgEarthNet.uav[46] simulationTime 259200
scalar OsgEarthNet.uav[47] utilizationSecMission 17677.605318238
scalar OsgEarthNet.uav[47] utilizationSecMaintenance 12649.746245305
scalar OsgEarthNet.uav[47] utilizationSecCharge 117540.63943646
scalar OsgEarthNet.uav[47] utilizationSecIdle 111332.008
scalar OsgEarthNet.uav[47] utilizationEnergyMission 86641.050086975
scalar OsgEarthNet.uav[47] utilizationEnergyMaintenance 60213.799068451
scalar OsgEarthNet.uav[47] utilizationEnergyCharge 146315.89648438
scalar OsgEarthNet.uav[47] utilizationEnergyOverdrawMission 0
scalar OsgEarthNet.uav[47] utilizationEnergyOverdrawMaintenance 0
scalar OsgEarthNet.uav[47] utilizationCountMissions 37
scalar OsgEarthNet.uav[47] utilizationCountManeuversMission 630
scalar OsgEarthNet.uav[47] utilizationCountManeuversMaintenance 74
scalar OsgEarthNet.uav[47] utilizationCountChargeState 37
scalar OsgEarthNet.uav[47] utilizationCountOverdrawnAfterMission 0
scalar OsgEarthNet.uav[47] utilizationCountIdleState 37
scalar OsgEarthNet.uav[47] utilizationFail 0
scalar OsgEarthNet.uav[47] simulationTime 259200
scalar OsgEarthNet.uav[48] utilizationSecMission 41394.6185418
scalar OsgEarthNet.uav[48] utilizationSecMaintenance 18390.638775196
scalar OsgEarthNet.uav[48] utilizationSecCharge 198802.741683
scalar OsgEarthNet.uav[48] utilizationSecIdle 612
scalar OsgEarthNet.uav[48] utilizationEnergyMission 200221.28276165
scalar OsgEarthNet.uav[48] utilizationEnergyMaintenance 85712.895698547
scalar OsgEarthNet.uav[48] utilizationEnergyCharge 281726.52270508
scalar OsgEarthNet.uav[48] utilizationEnergyOverdrawMission 0
scalar OsgEarthNet.uav[48] utilizationEnergyOverdrawMaintenance 0
scalar OsgEarthNet.uav[48] utilizationCountMissions 62
scalar OsgEarthNet.uav[48] utilizationCountManeuversMission 1233
scalar OsgEarthNet.uav[48] utilizationCountManeuversMaintenance 123
scalar OsgEarthNet.uav[48] utilizationCountChargeState 62
scalar OsgEarthNet.uav[48] utilizationCountOverdrawnAfterMission 0
scalar OsgEarthNet.uav[48] utilizationCountIdleState 8
scalar OsgEarthNet.uav[48] utilizationFail 0
scalar OsgEarthNet.uav[48] simulationTime 259200
scalar OsgEarthNet.uav[49] utilizationSecMission 14745.626373223
scalar OsgEarthNet.uav[49] utilizationSecMaintenance 9606.8157869966
scalar OsgEarthNet.uav[49] utilizationSecCharge 90135.553839781
scalar OsgEarthNet.uav[49] utilizationSecIdle 144712.003
scalar OsgEarthNet.uav[49] utilizationEnergyMission 71521.904754639
scalar OsgEarthNet.uav[49] utilizationEnergyMaintenance 45839.799400329
scalar OsgEarthNet.uav[49] utilizationEnergyCharge 117256.47998047
scalar OsgEarthNet.uav[49] utilizationEnergyOverdrawMission 0
scalar OsgEarthNet.uav[49] utilizationEnergyOverdrawMaintenance 0
scalar OsgEarthNet.uav[49] utilizationCountMissions 26
scalar OsgEarthNet.uav[49] utilizationCountManeuversMission 503
scalar OsgEarthNet.uav[49] utilizationCountManeuversMaintenance 52
scalar OsgEarthNet.uav[49] utilizationCountChargeState 26
scalar OsgEarthNet.uav[49] utilizationCountOverdrawnAfterMission 0
scalar OsgEarthNet.uav[49] utilizationCountIdleState 26
scalar OsgEarthNet.uav[49] utilizationFail 0
scalar OsgEarthNet.uav[49] simulationTime 259200
scalar OsgEarthNet.uav[50] utilizationSecMission 18105.242511159
scalar OsgEarthNet.uav[50] utilizationSecMaintenance 11022.766943821
scalar OsgEarthNet.uav[50] utilizationSecCharge 108569.98954502
scalar OsgEarthNet.uav[50] utilizationSecIdle 121502
scalar OsgEarthNet.uav[50] utilizationEnergyMission 87089.550865173
scalar OsgEarthNet.uav[50] utilizationEnergyMaintenance 52378.585926056
scalar OsgEarthNet.uav[50] utilizationEnergyCharge 140157.67236328
scalar OsgEarthNet.uav[50] utilizationEnergyOverdrawMission 0
scalar OsgEarthNet.uav[50] utilizationEnergyOverdrawMaintenance 0
scalar OsgEarthNet.uav[50] utilizationCountMissions 31
scalar OsgEarthNet.uav[50] utilizationCountManeuversMission 586
scalar OsgEarthNet.uav[50] utilizationCountManeuversMaintenance 61
scalar OsgEarthNet.uav[50] utilizationCountChargeState 31
scalar OsgEarthNet.uav[50] utilizationCountOverdrawnAfterMission 0
scalar OsgEarthNet.uav[50] utilizationCountIdleState 31
scalar OsgEarthNet.uav[50] utilizationFail 0
scalar OsgEarthNet.uav[50] simulationTime 259200
scalar OsgEarthNet.uav[51] utilizationSecMission 20808.694573881
scalar OsgEarthNet.uav[51] utilizationSecMaintenance 13883.406432995
scalar OsgEarthNet.uav[51] utilizationSecCharge 133414.13600562
scalar OsgEarthNet.uav[51] utilizationSecIdle 91093.761987508
scalar OsgEarthNet.uav[51] utilizationEnergyMission 100784.04126358
scalar OsgEarthNet.uav[51] utilizationEnergyMaintenance 66000.143314362
scalar OsgEarthNet.uav[51] utilizationEnergyCharge 166238.46069336
scalar OsgEarthNet.uav[51] utilizationEnergyOverdrawMission 0
scalar OsgEarthNet.uav[51] utilizationEnergyOverdrawMaintenance 0
scalar OsgEarthNet.uav[51] utilizationCountMissions 42
scalar OsgEarthNet.uav[51] utilizationCountManeuversMission 646
scalar OsgEarthNet.uav[51] utilizationCountManeuversMaintenance 84
scalar OsgEarthNet.uav[51] utilizationCountChargeState 42
scalar OsgEarthNet.uav[51] utilizationCountOverdrawnAfterMission 0
scalar OsgEarthNet.uav[51] utilizationCountIdleState 42
scalar OsgEarthNet.uav[51] utilizationFail 0
scalar OsgEarthNet.uav[51] simulationTime 259200
scalar OsgEarthNet.uav[52] utilizationSecMission 41557.43565833
scalar OsgEarthNet.uav[52] utilizationSecMaintenance 16972.767155488
scalar OsgEarthNet.uav[52] utilizationSecCharge 198088.34322425
scalar OsgEarthNet.uav[52] utilizationSecIdle 2581.4529619338
scalar OsgEarthNet.uav[52] utilizationEnergyMission 200318.9264679
scalar OsgEarthNet.uav[52] utilizationEnergyMaintenance 77418.734977722
scalar OsgEarthNet.uav[52] utilizationEnergyCharge 279543.32226562
scalar OsgEarthNet.uav[52] utilizationEnergyOverdrawMission 0
scalar OsgEarthNet.uav[52] utilizationEnergyOverdrawMaintenance 0
scalar OsgEarthNet.uav[52] utilizationCountMissions 61
scalar OsgEarthNet.uav[52] utilizationCountManeuversMission 1258
scalar OsgEarthNet.uav[52] utilizationCountManeuversMaintenance 122
scalar OsgEarthNet.uav[52] utilizationCountChargeState 61
scalar OsgEarthNet.uav[52] utilizationCountOverdrawnAfterMission 0
scalar OsgEarthNet.uav[52] utilizationCountIdleState 10
scalar OsgEarthNet.uav[52] utilizationFail 0
scalar OsgEarthNet.uav[52] simulationTime 259200
scalar OsgEarthNet.uav[53] utilizationSecMission 20698.494097373
scalar OsgEarthNet.uav[53] utilizationSecMaintenance 13017.732115623
scalar OsgEarthNet.uav[53] utilizationSecCharge 125971.771787
scalar OsgEarthNet.uav[53] utilizationSecIdle 99512.001
scalar OsgEarthNet.uav[53] utilizationEnergyMission 99563.33007431
scalar OsgEarthNet.uav[53] utilizationEnergyMaintenance 62524.821243286
scalar OsgEarthNet.uav[53] utilizationEnergyCharge 163253.86035156
scalar OsgEarthNet.uav[53] utilizationEnergyOverdrawMission 0
scalar OsgEarthNet.uav[53] utilizationEnergyOverdrawMaintenance 0
scalar OsgEarthNet.uav[53] utilizationCountMissions 36
scalar OsgEarthNet.uav[53] utilizationCountManeuversMission 675
scalar OsgEarthNet.uav[53] utilizationCountManeuversMaintenance 72
scalar OsgEarthNet.uav[53] utilizationCountChargeState 36
scalar OsgEarthNet.uav[53] utilizationCountOverdrawnAfterMission 0
scalar OsgEarthNet.uav[53] utilizationCountIdleState 36
scalar OsgEarthNet.uav[53] utilizationFail 0
scalar OsgEarthNet.uav[53] simulationTime 259200
scalar OsgEarthNet.uav[54] utilizationSecMission 22478.446938626
scalar OsgEarthNet.uav[54] utilizationSecMaintenance 15133.20242529
scalar OsgEarthNet.uav[54] utilizationSecCharge 144643.73774657
scalar OsgEarthNet.uav[54] utilizationSecIdle 76944.611889516
scalar OsgEarthNet.uav[54] utilizationEnergyMission 108925.87960434
scalar OsgEarthNet.uav[54] utilizationEnergyMaintenance 72040.554523468
scalar OsgEarthNet.uav[54] utilizationEnergyCharge 179327.55554199
scalar OsgEarthNet.uav[54] utilizationEnergyOverdrawMission 0
scalar OsgEarthNet.uav[54] utilizationEnergyOverdrawMaintenance 0
scalar OsgEarthNet.uav[54] utilizationCountMissions 46
scalar OsgEarthNet.uav[54] utilizationCountManeuversMission 692
scalar OsgEarthNet.uav[54] utilizationCountManeuversMaintenance 92
scalar OsgEarthNet.uav[54] utilizationCountChargeState 46
scalar OsgEarthNet.uav[54] utilizationCountOverdrawnAfterMission 0
scalar OsgEarthNet.uav[54] utilizationCountIdleState 46
scalar OsgEarthNet.uav[54] utilizationFail 0
scalar OsgEarthNet.uav[54] simulationTime 259200
scalar OsgEarthNet.uav[55] utilizationSecMission 40003.936976471
scalar OsgEarthNet.uav[55] utilizationSecMaintenance 18705.074623372
scalar OsgEarthNet.uav[55] utilizationSecCharge 197908.98340016
scalar OsgEarthNet.uav[55] utilizationSecIdle 2582.004
scalar OsgEarthNet.uav[55] utilizationEnergyMission 190405.38892746
scalar OsgEarthNet.uav[55] utilizationEnergyMaintenance 86783.833961487
scalar OsgEarthNet.uav[55] utilizationEnergyCharge 279710.19165039
scalar OsgEarthNet.uav[55] utilizationEnergyOverdrawMission 0
scalar OsgEarthNet.uav[55] utilizationEnergyOverdrawMaintenance 0
scalar OsgEarthNet.uav[55] utilizationCountMissions 61
scalar OsgEarthNet.uav[55] utilizationCountManeuversMission 1130
scalar OsgEarthNet.uav[55] utilizationCountManeuversMaintenance 122
scalar OsgEarthNet.uav[55] utilizationCountChargeState 61
scalar OsgEarthNet.uav[55] utilizationCountOverdrawnAfterMission 0
scalar OsgEarthNet.uav[55] utilizationCountIdleState 8
scalar OsgEarthNet.uav[55] utilizationFail 0
scalar OsgEarthNet.uav[55] simulationTime 259200
scalar OsgEarthNet.uav[56] utilizationSecMission 18045.626373223
scalar OsgEarthNet.uav[56] utilizationSecMaintenance 12913.59258109
scalar OsgEarthNet.uav[56] utilizationSecCharge 114387.07986038
scalar OsgEarthNet.uav[56] utilizationSecIdle 113853.70018531
scalar OsgEarthNet.uav[56] utilizationEnergyMission 89417.35137558
scalar OsgEarthNet.uav[56] utilizationEnergyMaintenance 61052.722393036
scalar OsgEarthNet.uav[56] utilizationEnergyCharge 148033.21166992
scalar OsgEarthNet.uav[56] utilizationEnergyOverdrawMission 0
scalar OsgEarthNet.uav[56] utilizationEnergyOverdrawMaintenance 0
scalar OsgEarthNet.uav[56] utilizationCountMissions 33
scalar OsgEarthNet.uav[56] utilizationCountManeuversMission 668
scalar OsgEarthNet.uav[56] utilizationCountManeuversMaintenance 66
scalar OsgEarthNet.uav[56] utilizationCountChargeState 33
scalar OsgEarthNet.uav[56] utilizationCountOverdrawnAfterMission 0
scalar OsgEarthNet.uav[56] utilizationCountIdleState 33
scalar OsgEarthNet.uav[56] utilizationFail 0
scalar OsgEarthNet.uav[56] simulationTime 259200
scalar OsgEarthNet.uav[57] utilizationSecMission 19737.605318238
scalar OsgEarthNet.uav[57] utilizationSecMaintenance 13859.380001361
scalar OsgEarthNet.uav[57] utilizationSecCharge 127401.0086804
scalar OsgEarthNet.uav[57] utilizationSecIdle 98202.005
scalar OsgEarthNet.uav[57] utilizationEnergyMission 97860.694133759
scalar OsgEarthNet.uav[57] utilizationEnergyMaintenance 65530.477539062
scalar OsgEarthNet.uav[57] utilizationEnergyCharge 158883.04873657
scalar OsgEarthNet.uav[57] utilizationEnergyOverdrawMission 0
scalar OsgEarthNet.uav[57] utilizationEnergyOverdrawMaintenance 0
scalar OsgEarthNet.uav[57] utilizationCountMissions 40
scalar OsgEarthNet.uav[57] utilizationCountManeuversMission 733
scalar OsgEarthNet.uav[57] utilizationCountManeuversMaintenance 80
scalar OsgEarthNet.uav[57] utilizationCountChargeState 40
scalar OsgEarthNet.uav[57] utilizationCountOverdrawnAfterMission 0
scalar OsgEarthNet.uav[57] utilizationCountIdleState 40
scalar OsgEarthNet.uav[57] utilizationFail 0
scalar OsgEarthNet.uav[57] simulationTime 259200
scalar OsgEarthNet.uav[58] utilizationSecMission 40272.082517656
scalar OsgEarthNet.uav[58] utilizationSecMaintenance 18745.911482344
scalar OsgEarthNet.uav[58] utilizationSecCharge 197160
scalar OsgEarthNet.uav[58] utilizationSecIdle 3022.005
scalar OsgEarthNet.uav[58] utilizationEnergyMission 196819.96876702
scalar OsgEarthNet.uav[58] utilizationEnergyMaintenance 86228.58033371
scalar OsgEarthNet.uav[58] utilizationEnergyCharge 278200.40478516
scalar OsgEarthNet.uav[58] utilizationEnergyOverdrawMission 0
scalar OsgEarthNet.uav[58] utilizationEnergyOverdrawMaintenance 0
scalar OsgEarthNet.uav[58] utilizationCountMissions 61
scalar OsgEarthNet.uav[58] utilizationCountManeuversMission 1302
scalar OsgEarthNet.uav[58] utilizationCountManeuversMaintenance 123
scalar OsgEarthNet.uav[58] utilizationCountChargeState 61
scalar OsgEarthNet.uav[58] utilizationCountOverdrawnAfterMission 0
scalar OsgEarthNet.uav[58] utilizationCountIdleState 8
scalar OsgEarthNet.uav[58] utilizationFail 0
scalar OsgEarthNet.uav[58] simulationTime 259200
scalar OsgEarthNet.uav[59] utilizationSecMission 18847.501830963
scalar OsgEarthNet.uav[59] utilizationSecMaintenance 12063.468646773
scalar OsgEarthNet.uav[59] utilizationSecCharge 113257.01452226
scalar OsgEarthNet.uav[59] utilizationSecIdle 115032.014
scalar OsgEarthNet.uav[59] utilizationEnergyMission 92053.283481598
scalar OsgEarthNet.uav[59] utilizationEnergyMaintenance 57668.524303436
scalar OsgEarthNet.uav[59] utilizationEnergyCharge 146304.04467773
scalar OsgEarthNet.uav[59] utilizationEnergyOverdrawMission 0
scalar OsgEarthNet.uav[59] utilizationEnergyOverdrawMaintenance 0
scalar OsgEarthNet.uav[59] utilizationCountMissions 33
scalar OsgEarthNet.uav[59] utilizationCountManeuversMission 630
scalar OsgEarthNet.uav[59] utilizationCountManeuversMaintenance 66
scalar OsgEarthNet.uav[59] utilizationCountChargeState 33
scalar OsgEarthNet.uav[59] utilizationCountOverdrawnAfterMission 0
scalar OsgEarthNet.uav[59] utilizationCountIdleState 33
scalar OsgEarthNet.uav[59] utilizationFail 0
scalar OsgEarthNet.uav[59] simulationTime 259200
scalar OsgEarthNet.uav[60] utilizationSecMission 20119.119249954
scalar OsgEarthNet.uav[60] utilizationSecMaintenance 11821.275885449
scalar OsgEarthNet.uav[60] utilizationSecCharge 119560
scalar OsgEarthNet.uav[60] utilizationSecIdle 107699.6038646
scalar OsgEarthNet.uav[60] utilizationEnergyMission 98805.297992706
scalar OsgEarthNet.uav[60] utilizationEnergyMaintenance 56193.066352844
scalar OsgEarthNet.uav[60] utilizationEnergyCharge 153959.68994141
scalar OsgEarthNet.uav[60] utilizationEnergyOverdrawMission 0
scalar OsgEarthNet.uav[60] utilizationEnergyOverdrawMaintenance 0
scalar OsgEarthNet.uav[60] utilizationCountMissions 34
scalar OsgEarthNet.uav[60] utilizationCountManeuversMission 620
scalar OsgEarthNet.uav[60] utilizationCountManeuversMaintenance 68
scalar OsgEarthNet.uav[60] utilizationCountChargeState 34
scalar OsgEarthNet.uav[60] utilizationCountOverdrawnAfterMission 0
scalar OsgEarthNet.uav[60] utilizationCountIdleState 35
scalar OsgEarthNet.uav[60] utilizationFail 0
scalar OsgEarthNet.uav[60] simulationTime 259200
scalar OsgEarthNet.uav[61] utilizationSecMission 35907.253267993
scalar OsgEarthNet.uav[61] utilizationSecMaintenance 16160.735732007
scalar OsgEarthNet.uav[61] utilizationSecCharge 180850
scalar OsgEarthNet.uav[61] utilizationSecIdle 26282.01
scalar OsgEarthNet.uav[61] utilizationEnergyMission 171867.83204004
scalar OsgEarthNet.uav[61] utilizationEnergyMaintenance 73709.9049263
scalar OsgEarthNet.uav[61] utilizationEnergyCharge 246090.86962891
scalar OsgEarthNet.uav[61] utilizationEnergyOverdrawMission 0
scalar OsgEarthNet.uav[61] utilizationEnergyOverdrawMaintenance 0
scalar OsgEarthNet.uav[61] utilizationCountMissions 55
scalar OsgEarthNet.uav[61] utilizationCountManeuversMission 1019
scalar OsgEarthNet.uav[61] utilizationCountManeuversMaintenance 111
scalar OsgEarthNet.uav[61] utilizationCountChargeState 55
scalar OsgEarthNet.uav[61] utilizationCountOverdrawnAfterMission 0
scalar OsgEarthNet.uav[61] utilizationCountIdleState 21
scalar OsgEarthNet.uav[61] utilizationFail 0
scalar OsgEarthNet.uav[61] simulationTime 259200
scalar OsgEarthNet.uav[62] utilizationSecMission 41227.050276471
scalar OsgEarthNet.uav[62] utilizationSecMaintenance 17738.575713191
scalar OsgEarthNet.uav[62] utilizationSecCharge 196602.37001034
scalar OsgEarthNet.uav[62] utilizationSecIdle 3632.003
scalar OsgEarthNet.uav[62] utilizationEnergyMission 197829.300457
scalar OsgEarthNet.uav[62] utilizationEnergyMaintenance 81815.613838196
scalar OsgEarthNet.uav[62] utilizationEnergyCharge 276839.85388184
scalar OsgEarthNet.uav[62] utilizationEnergyOverdrawMission 0
scalar OsgEarthNet.uav[62] utilizationEnergyOverdrawMaintenance 0
scalar OsgEarthNet.uav[62] utilizationCountMissions 61
scalar OsgEarthNet.uav[62] utilizationCountManeuversMission 1203
scalar OsgEarthNet.uav[62] utilizationCountManeuversMaintenance 122
scalar OsgEarthNet.uav[62] utilizationCountChargeState 61
scalar OsgEarthNet.uav[62] utilizationCountOverdrawnAfterMission 0
scalar OsgEarthNet.uav[62] utilizationCountIdleState 15
scalar OsgEarthNet.uav[62] utilizationFail 0
scalar OsgEarthNet.uav[62] simulationTime 259200
scalar OsgEarthNet.uav[63] utilizationSecMission 14823.750915482
scalar OsgEarthNet.uav[63] utilizationSecMaintenance 11177.048468867
scalar OsgEarthNet.uav[63] utilizationSecCharge 98810
scalar OsgEarthNet.uav[63] utilizationSecIdle 134389.19961565
scalar OsgEarthNet.uav[63] utilizationEnergyMission 75149.795879364
scalar OsgEarthNet.uav[63] utilizationEnergyMaintenance 53373.744155884
scalar OsgEarthNet.uav[63] utilizationEnergyCharge 127733.10400391
scalar OsgEarthNet.uav[63] utilizationEnergyOverdrawMission 0
scalar OsgEarthNet.uav[63] utilizationEnergyOverdrawMaintenance 0
scalar OsgEarthNet.uav[63] utilizationCountMissions 28
scalar OsgEarthNet.uav[63] utilizationCountManeuversMission 585
scalar OsgEarthNet.uav[63] utilizationCountManeuversMaintenance 56
scalar OsgEarthNet.uav[63] utilizationCountChargeState 28
scalar OsgEarthNet.uav[63] utilizationCountOverdrawnAfterMission 0
scalar OsgEarthNet.uav[63] utilizationCountIdleState 29
scalar OsgEarthNet.uav[63] utilizationFail 0
scalar OsgEarthNet.uav[63] simulationTime 259200
scalar OsgEarthNet.uav[64] utilizationSecMission 24147.976442485
scalar OsgEarthNet.uav[64] utilizationSecMaintenance 15843.576847937
scalar OsgEarthNet.uav[64] utilizationSecCharge 153696.44570958
scalar OsgEarthNet.uav[64] utilizationSecIdle 65512
scalar OsgEarthNet.uav[64] utilizationEnergyMission 116554.10541153
scalar OsgEarthNet.uav[64] utilizationEnergyMaintenance 75077.388458252
scalar OsgEarthNet.uav[64] utilizationEnergyCharge 191134.43676758
scalar OsgEarthNet.uav[64] utilizationEnergyOverdrawMission 0
scalar OsgEarthNet.uav[64] utilizationEnergyOverdrawMaintenance 0
scalar OsgEarthNet.uav[64] utilizationCountMissions 48
scalar OsgEarthNet.uav[64] utilizationCountManeuversMission 758
scalar OsgEarthNet.uav[64] utilizationCountManeuversMaintenance 95
scalar OsgEarthNet.uav[64] utilizationCountChargeState 48
scalar OsgEarthNet.uav[64] utilizationCountOverdrawnAfterMission 0
scalar OsgEarthNet.uav[64] utilizationCountIdleState 48
scalar OsgEarthNet.uav[64] utilizationFail 0
scalar OsgEarthNet.uav[64] simulationTime 259200
scalar OsgEarthNet.uav[65] utilizationSecMission 43033.525613621
scalar OsgEarthNet.uav[65] utilizationSecMaintenance 16327.253772463
scalar OsgEarthNet.uav[65] utilizationSecCharge 197870
scalar OsgEarthNet.uav[65] utilizationSecIdle 1969.2196139157
scalar OsgEarthNet.uav[65] utilizationEnergyMission 206626.32248306
[...]
scalar OsgEarthNet.uav[280] utilizationSecIdle 259199.999
scalar OsgEarthNet.uav[280] utilizationEnergyMission 0
scalar OsgEarthNet.uav[280] utilizationEnergyMaintenance 0
scalar OsgEarthNet.uav[280] utilizationEnergyCharge 0
scalar OsgEarthNet.uav[280] utilizationEnergyOverdrawMission 0
scalar OsgEarthNet.uav[280] utilizationEnergyOverdrawMaintenance 0
scalar OsgEarthNet.uav[280] utilizationCountMissions 0
scalar OsgEarthNet.uav[280] utilizationCountManeuversMission 0
scalar OsgEarthNet.uav[280] utilizationCountManeuversMaintenance 0
scalar OsgEarthNet.uav[280] utilizationCountChargeState 0
scalar OsgEarthNet.uav[280] utilizationCountOverdrawnAfterMission 0
scalar OsgEarthNet.uav[280] utilizationCountIdleState 1
scalar OsgEarthNet.uav[280] utilizationFail 0
scalar OsgEarthNet.uav[280] simulationTime 259200
scalar OsgEarthNet.uav[281] utilizationSecMission 0
scalar OsgEarthNet.uav[281] utilizationSecMaintenance 0
scalar OsgEarthNet.uav[281] utilizationSecCharge 0
scalar OsgEarthNet.uav[281] utilizationSecIdle 259199.999
scalar OsgEarthNet.uav[281] utilizationEnergyMission 0
scalar OsgEarthNet.uav[281] utilizationEnergyMaintenance 0
scalar OsgEarthNet.uav[281] utilizationEnergyCharge 0
scalar OsgEarthNet.uav[281] utilizationEnergyOverdrawMission 0
scalar OsgEarthNet.uav[281] utilizationEnergyOverdrawMaintenance 0
scalar OsgEarthNet.uav[281] utilizationCountMissions 0
scalar OsgEarthNet.uav[281] utilizationCountManeuversMission 0
scalar OsgEarthNet.uav[281] utilizationCountManeuversMaintenance 0
scalar OsgEarthNet.uav[281] utilizationCountChargeState 0
scalar OsgEarthNet.uav[281] utilizationCountOverdrawnAfterMission 0
scalar OsgEarthNet.uav[281] utilizationCountIdleState 1
scalar OsgEarthNet.uav[281] utilizationFail 0
scalar OsgEarthNet.uav[281] simulationTime 259200
scalar OsgEarthNet.uav[282] utilizationSecMission 0
scalar OsgEarthNet.uav[282] utilizationSecMaintenance 0
scalar OsgEarthNet.uav[282] utilizationSecCharge 0
scalar OsgEarthNet.uav[282] utilizationSecIdle 259199.999
scalar OsgEarthNet.uav[282] utilizationEnergyMission 0
scalar OsgEarthNet.uav[282] utilizationEnergyMaintenance 0
scalar OsgEarthNet.uav[282] utilizationEnergyCharge 0
scalar OsgEarthNet.uav[282] utilizationEnergyOverdrawMission 0
scalar OsgEarthNet.uav[282] utilizationEnergyOverdrawMaintenance 0
scalar OsgEarthNet.uav[282] utilizationCountMissions 0
scalar OsgEarthNet.uav[282] utilizationCountManeuversMission 0
scalar OsgEarthNet.uav[282] utilizationCountManeuversMaintenance 0
scalar OsgEarthNet.uav[282] utilizationCountChargeState 0
scalar OsgEarthNet.uav[282] utilizationCountOverdrawnAfterMission 0
scalar OsgEarthNet.uav[282] utilizationCountIdleState 1
scalar OsgEarthNet.uav[282] utilizationFail 0
scalar OsgEarthNet.uav[282] simulationTime 259200
scalar OsgEarthNet.uav[283] utilizationSecMission 0
scalar OsgEarthNet.uav[283] utilizationSecMaintenance 0
scalar OsgEarthNet.uav[283] utilizationSecCharge 0
scalar OsgEarthNet.uav[283] utilizationSecIdle 259199.999
scalar OsgEarthNet.uav[283] utilizationEnergyMission 0
scalar OsgEarthNet.uav[283] utilizationEnergyMaintenance 0
scalar OsgEarthNet.uav[283] utilizationEnergyCharge 0
scalar OsgEarthNet.uav[283] utilizationEnergyOverdrawMission 0
scalar OsgEarthNet.uav[283] utilizationEnergyOverdrawMaintenance 0
scalar OsgEarthNet.uav[283] utilizationCountMissions 0
scalar OsgEarthNet.uav[283] utilizationCountManeuversMission 0
scalar OsgEarthNet.uav[283] utilizationCountManeuversMaintenance 0
scalar OsgEarthNet.uav[283] utilizationCountChargeState 0
scalar OsgEarthNet.uav[283] utilizationCountOverdrawnAfterMission 0
scalar OsgEarthNet.uav[283] utilizationCountIdleState 1
scalar OsgEarthNet.uav[283] utilizationFail 0
scalar OsgEarthNet.uav[283] simulationTime 259200
scalar OsgEarthNet.uav[284] utilizationSecMission 0
scalar OsgEarthNet.uav[284] utilizationSecMaintenance 0
scalar OsgEarthNet.uav[284] utilizationSecCharge 0
scalar OsgEarthNet.uav[284] utilizationSecIdle 259199.999
scalar OsgEarthNet.uav[284] utilizationEnergyMission 0
scalar OsgEarthNet.uav[284] utilizationEnergyMaintenance 0
scalar OsgEarthNet.uav[284] utilizationEnergyCharge 0
scalar OsgEarthNet.uav[284] utilizationEnergyOverdrawMission 0
scalar OsgEarthNet.uav[284] utilizationEnergyOverdrawMaintenance 0
scalar OsgEarthNet.uav[284] utilizationCountMissions 0
scalar OsgEarthNet.uav[284] utilizationCountManeuversMission 0
scalar OsgEarthNet.uav[284] utilizationCountManeuversMaintenance 0
scalar OsgEarthNet.uav[284] utilizationCountChargeState 0
scalar OsgEarthNet.uav[284] utilizationCountOverdrawnAfterMission 0
scalar OsgEarthNet.uav[284] utilizationCountIdleState 1
scalar OsgEarthNet.uav[284] utilizationFail 0
scalar OsgEarthNet.uav[284] simulationTime 259200
scalar OsgEarthNet.uav[285] utilizationSecMission 0
scalar OsgEarthNet.uav[285] utilizationSecMaintenance 0
scalar OsgEarthNet.uav[285] utilizationSecCharge 0
scalar OsgEarthNet.uav[285] utilizationSecIdle 259199.999
scalar OsgEarthNet.uav[285] utilizationEnergyMission 0
scalar OsgEarthNet.uav[285] utilizationEnergyMaintenance 0
scalar OsgEarthNet.uav[285] utilizationEnergyCharge 0
scalar OsgEarthNet.uav[285] utilizationEnergyOverdrawMission 0
scalar OsgEarthNet.uav[285] utilizationEnergyOverdrawMaintenance 0
scalar OsgEarthNet.uav[285] utilizationCountMissions 0
scalar OsgEarthNet.uav[285] utilizationCountManeuversMission 0
scalar OsgEarthNet.uav[285] utilizationCountManeuversMaintenance 0
scalar OsgEarthNet.uav[285] utilizationCountChargeState 0
scalar OsgEarthNet.uav[285] utilizationCountOverdrawnAfterMission 0
scalar OsgEarthNet.uav[285] utilizationCountIdleState 1
scalar OsgEarthNet.uav[285] utilizationFail 0
scalar OsgEarthNet.uav[285] simulationTime 259200
scalar OsgEarthNet.uav[286] utilizationSecMission 0
scalar OsgEarthNet.uav[286] utilizationSecMaintenance 0
scalar OsgEarthNet.uav[286] utilizationSecCharge 0
scalar OsgEarthNet.uav[286] utilizationSecIdle 259199.999
scalar OsgEarthNet.uav[286] utilizationEnergyMission 0
scalar OsgEarthNet.uav[286] utilizationEnergyMaintenance 0
scalar OsgEarthNet.uav[286] utilizationEnergyCharge 0
scalar OsgEarthNet.uav[286] utilizationEnergyOverdrawMission 0
scalar OsgEarthNet.uav[286] utilizationEnergyOverdrawMaintenance 0
scalar OsgEarthNet.uav[286] utilizationCountMissions 0
scalar OsgEarthNet.uav[286] utilizationCountManeuversMission 0
scalar OsgEarthNet.uav[286] utilizationCountManeuversMaintenance 0
scalar OsgEarthNet.uav[286] utilizationCountChargeState 0
scalar OsgEarthNet.uav[286] utilizationCountOverdrawnAfterMission 0
scalar OsgEarthNet.uav[286] utilizationCountIdleState 1
scalar OsgEarthNet.uav[286] utilizationFail 0
scalar OsgEarthNet.uav[286] simulationTime 259200
scalar OsgEarthNet.uav[287] utilizationSecMission 0
scalar OsgEarthNet.uav[287] utilizationSecMaintenance 0
scalar OsgEarthNet.uav[287] utilizationSecCharge 0
scalar OsgEarthNet.uav[287] utilizationSecIdle 259199.999
scalar OsgEarthNet.uav[287] utilizationEnergyMission 0
scalar OsgEarthNet.uav[287] utilizationEnergyMaintenance 0
scalar OsgEarthNet.uav[287] utilizationEnergyCharge 0
scalar OsgEarthNet.uav[287] utilizationEnergyOverdrawMission 0
scalar OsgEarthNet.uav[287] utilizationEnergyOverdrawMaintenance 0
scalar OsgEarthNet.uav[287] utilizationCountMissions 0
scalar OsgEarthNet.uav[287] utilizationCountManeuversMission 0
scalar OsgEarthNet.uav[287] utilizationCountManeuversMaintenance 0
scalar OsgEarthNet.uav[287] utilizationCountChargeState 0
scalar OsgEarthNet.uav[287] utilizationCountOverdrawnAfterMission 0
scalar OsgEarthNet.uav[287] utilizationCountIdleState 1
scalar OsgEarthNet.uav[287] utilizationFail 0
scalar OsgEarthNet.uav[287] simulationTime 259200
scalar OsgEarthNet.uav[288] utilizationSecMission 0
scalar OsgEarthNet.uav[288] utilizationSecMaintenance 0
scalar OsgEarthNet.uav[288] utilizationSecCharge 0
scalar OsgEarthNet.uav[288] utilizationSecIdle 259199.999
scalar OsgEarthNet.uav[288] utilizationEnergyMission 0
scalar OsgEarthNet.uav[288] utilizationEnergyMaintenance 0
scalar OsgEarthNet.uav[288] utilizationEnergyCharge 0
scalar OsgEarthNet.uav[288] utilizationEnergyOverdrawMission 0
scalar OsgEarthNet.uav[288] utilizationEnergyOverdrawMaintenance 0
scalar OsgEarthNet.uav[288] utilizationCountMissions 0
scalar OsgEarthNet.uav[288] utilizationCountManeuversMission 0
scalar OsgEarthNet.uav[288] utilizationCountManeuversMaintenance 0
scalar OsgEarthNet.uav[288] utilizationCountChargeState 0
scalar OsgEarthNet.uav[288] utilizationCountOverdrawnAfterMission 0
scalar OsgEarthNet.uav[288] utilizationCountIdleState 1
scalar OsgEarthNet.uav[288] utilizationFail 0
scalar OsgEarthNet.uav[288] simulationTime 259200
scalar OsgEarthNet.uav[289] utilizationSecMission 0
scalar OsgEarthNet.uav[289] utilizationSecMaintenance 0
scalar OsgEarthNet.uav[289] utilizationSecCharge 0
scalar OsgEarthNet.uav[289] utilizationSecIdle 259199.999
scalar OsgEarthNet.uav[289] utilizationEnergyMission 0
scalar OsgEarthNet.uav[289] utilizationEnergyMaintenance 0
scalar OsgEarthNet.uav[289] utilizationEnergyCharge 0
scalar OsgEarthNet.uav[289] utilizationEnergyOverdrawMission 0
scalar OsgEarthNet.uav[289] utilizationEnergyOverdrawMaintenance 0
scalar OsgEarthNet.uav[289] utilizationCountMissions 0
scalar OsgEarthNet.uav[289] utilizationCountManeuversMission 0
scalar OsgEarthNet.uav[289] utilizationCountManeuversMaintenance 0
scalar OsgEarthNet.uav[289] utilizationCountChargeState 0
scalar OsgEarthNet.uav[289] utilizationCountOverdrawnAfterMission 0
scalar OsgEarthNet.uav[289] utilizationCountIdleState 1
scalar OsgEarthNet.uav[289] utilizationFail 0
scalar OsgEarthNet.uav[289] simulationTime 259200
scalar OsgEarthNet.uav[290] utilizationSecMission 0
scalar OsgEarthNet.uav[290] utilizationSecMaintenance 0
scalar OsgEarthNet.uav[290] utilizationSecCharge 0
scalar OsgEarthNet.uav[290] utilizationSecIdle 259199.999
scalar OsgEarthNet.uav[290] utilizationEnergyMission 0
scalar OsgEarthNet.uav[290] utilizationEnergyMaintenance 0
scalar OsgEarthNet.uav[290] utilizationEnergyCharge 0
scalar OsgEarthNet.uav[290] utilizationEnergyOverdrawMission 0
scalar OsgEarthNet.uav[290] utilizationEnergyOverdrawMaintenance 0
scalar OsgEarthNet.uav[290] utilizationCountMissions 0
scalar OsgEarthNet.uav[290] utilizationCountManeuversMission 0
scalar OsgEarthNet.uav[290] utilizationCountManeuversMaintenance 0
scalar OsgEarthNet.uav[290] utilizationCountChargeState 0
scalar OsgEarthNet.uav[290] utilizationCountOverdrawnAfterMission 0
scalar OsgEarthNet.uav[290] utilizationCountIdleState 1
scalar OsgEarthNet.uav[290] utilizationFail 0
scalar OsgEarthNet.uav[290] simulationTime 259200
scalar OsgEarthNet.uav[291] utilizationSecMission 0
scalar OsgEarthNet.uav[291] utilizationSecMaintenance 0
scalar OsgEarthNet.uav[291] utilizationSecCharge 0
scalar OsgEarthNet.uav[291] utilizationSecIdle 259199.999
scalar OsgEarthNet.uav[291] utilizationEnergyMission 0
scalar OsgEarthNet.uav[291] utilizationEnergyMaintenance 0
scalar OsgEarthNet.uav[291] utilizationEnergyCharge 0
scalar OsgEarthNet.uav[291] utilizationEnergyOverdrawMission 0
scalar OsgEarthNet.uav[291] utilizationEnergyOverdrawMaintenance 0
scalar OsgEarthNet.uav[291] utilizationCountMissions 0
scalar OsgEarthNet.uav[291] utilizationCountManeuversMission 0
scalar OsgEarthNet.uav[291] utilizationCountManeuversMaintenance 0
scalar OsgEarthNet.uav[291] utilizationCountChargeState 0
scalar OsgEarthNet.uav[291] utilizationCountOverdrawnAfterMission 0
scalar OsgEarthNet.uav[291] utilizationCountIdleState 1
scalar OsgEarthNet.uav[291] utilizationFail 0
scalar OsgEarthNet.uav[291] simulationTime 259200
scalar OsgEarthNet.uav[292] utilizationSecMission 0
scalar OsgEarthNet.uav[292] utilizationSecMaintenance 0
scalar OsgEarthNet.uav[292] utilizationSecCharge 0
scalar OsgEarthNet.uav[292] utilizationSecIdle 259199.999
scalar OsgEarthNet.uav[292] utilizationEnergyMission 0
scalar OsgEarthNet.uav[292] utilizationEnergyMaintenance 0
scalar OsgEarthNet.uav[292] utilizationEnergyCharge 0
scalar OsgEarthNet.uav[292] utilizationEnergyOverdrawMission 0
scalar OsgEarthNet.uav[292] utilizationEnergyOverdrawMaintenance 0
scalar OsgEarthNet.uav[292] utilizationCountMissions 0
scalar OsgEarthNet.uav[292] utilizationCountManeuversMission 0
scalar OsgEarthNet.uav[292] utilizationCountManeuversMaintenance 0
scalar OsgEarthNet.uav[292] utilizationCountChargeState 0
scalar OsgEarthNet.uav[292] utilizationCountOverdrawnAfterMission 0
scalar OsgEarthNet.uav[292] utilizationCountIdleState 1
scalar OsgEarthNet.uav[292] utilizationFail 0
scalar OsgEarthNet.uav[292] simulationTime 259200
scalar OsgEarthNet.uav[293] utilizationSecMission 0
scalar OsgEarthNet.uav[293] utilizationSecMaintenance 0
scalar OsgEarthNet.uav[293] utilizationSecCharge 0
scalar OsgEarthNet.uav[293] utilizationSecIdle 259199.999
scalar OsgEarthNet.uav[293] utilizationEnergyMission 0
scalar OsgEarthNet.uav[293] utilizationEnergyMaintenance 0
scalar OsgEarthNet.uav[293] utilizationEnergyCharge 0
scalar OsgEarthNet.uav[293] utilizationEnergyOverdrawMission 0
scalar OsgEarthNet.uav[293] utilizationEnergyOverdrawMaintenance 0
scalar OsgEarthNet.uav[293] utilizationCountMissions 0
scalar OsgEarthNet.uav[293] utilizationCountManeuversMission 0
scalar OsgEarthNet.uav[293] utilizationCountManeuversMaintenance 0
scalar OsgEarthNet.uav[293] utilizationCountChargeState 0
scalar OsgEarthNet.uav[293] utilizationCountOverdrawnAfterMission 0
scalar OsgEarthNet.uav[293] utilizationCountIdleState 1
scalar OsgEarthNet.uav[293] utilizationFail 0
scalar OsgEarthNet.uav[293] simulationTime 259200
scalar OsgEarthNet.uav[294] utilizationSecMission 0
scalar OsgEarthNet.uav[294] utilizationSecMaintenance 0
scalar OsgEarthNet.uav[294] utilizationSecCharge 0
scalar OsgEarthNet.uav[294] utilizationSecIdle 259199.999
scalar OsgEarthNet.uav[294] utilizationEnergyMission 0
scalar OsgEarthNet.uav[294] utilizationEnergyMaintenance 0
scalar OsgEarthNet.uav[294] utilizationEnergyCharge 0
scalar OsgEarthNet.uav[294] utilizationEnergyOverdrawMission 0
scalar OsgEarthNet.uav[294] utilizationEnergyOverdrawMaintenance 0
scalar OsgEarthNet.uav[294] utilizationCountMissions 0
scalar OsgEarthNet.uav[294] utilizationCountManeuversMission 0
scalar OsgEarthNet.uav[294] utilizationCountManeuversMaintenance 0
scalar OsgEarthNet.uav[294] utilizationCountChargeState 0
scalar OsgEarthNet.uav[294] utilizationCountOverdrawnAfterMission 0
scalar OsgEarthNet.uav[294] utilizationCountIdleState 1
scalar OsgEarthNet.uav[294] utilizationFail 0
scalar OsgEarthNet.uav[294] simulationTime 259200
scalar OsgEarthNet.uav[295] utilizationSecMission 0
scalar OsgEarthNet.uav[295] utilizationSecMaintenance 0
scalar OsgEarthNet.uav[295] utilizationSecCharge 0
scalar OsgEarthNet.uav[295] utilizationSecIdle 259199.999
scalar OsgEarthNet.uav[295] utilizationEnergyMission 0
scalar OsgEarthNet.uav[295] utilizationEnergyMaintenance 0
scalar OsgEarthNet.uav[295] utilizationEnergyCharge 0
scalar OsgEarthNet.uav[295] utilizationEnergyOverdrawMission 0
scalar OsgEarthNet.uav[295] utilizationEnergyOverdrawMaintenance 0
scalar OsgEarthNet.uav[295] utilizationCountMissions 0
scalar OsgEarthNet.uav[295] utilizationCountManeuversMission 0
scalar OsgEarthNet.uav[295] utilizationCountManeuversMaintenance 0
scalar OsgEarthNet.uav[295] utilizationCountChargeState 0
scalar OsgEarthNet.uav[295] utilizationCountOverdrawnAfterMission 0
scalar OsgEarthNet.uav[295] utilizationCountIdleState 1
scalar OsgEarthNet.uav[295] utilizationFail 0
scalar OsgEarthNet.uav[295] simulationTime 259200
scalar OsgEarthNet.uav[296] utilizationSecMission 0
scalar OsgEarthNet.uav[296] utilizationSecMaintenance 0
scalar OsgEarthNet.uav[296] utilizationSecCharge 0
scalar OsgEarthNet.uav[296] utilizationSecIdle 259199.999
scalar OsgEarthNet.uav[296] utilizationEnergyMission 0
scalar OsgEarthNet.uav[296] utilizationEnergyMaintenance 0
scalar OsgEarthNet.uav[296] utilizationEnergyCharge 0
scalar OsgEarthNet.uav[296] utilizationEnergyOverdrawMission 0
scalar OsgEarthNet.uav[296] utilizationEnergyOverdrawMaintenance 0
scalar OsgEarthNet.uav[296] utilizationCountMissions 0
scalar OsgEarthNet.uav[296] utilizationCountManeuversMission 0
scalar OsgEarthNet.uav[296] utilizationCountManeuversMaintenance 0
scalar OsgEarthNet.uav[296] utilizationCountChargeState 0
scalar OsgEarthNet.uav[296] utilizationCountOverdrawnAfterMission 0
scalar OsgEarthNet.uav[296] utilizationCountIdleState 1
scalar OsgEarthNet.uav[296] utilizationFail 0
scalar OsgEarthNet.uav[296] simulationTime 259200
scalar OsgEarthNet.uav[297] utilizationSecMission 0
scalar OsgEarthNet.uav[297] utilizationSecMaintenance 0
scalar OsgEarthNet.uav[297] utilizationSecCharge 0
scalar OsgEarthNet.uav[297] utilizationSecIdle 259199.999
scalar OsgEarthNet.uav[297] utilizationEnergyMission 0
scalar OsgEarthNet.uav[297] utilizationEnergyMaintenance 0
scalar OsgEarthNet.uav[297] utilizationEnergyCharge 0
scalar OsgEarthNet.uav[297] utilizationEnergyOverdrawMission 0
scalar OsgEarthNet.uav[297] utilizationEnergyOverdrawMaintenance 0
scalar OsgEarthNet.uav[297] utilizationCountMissions 0
scalar OsgEarthNet.uav[297] utilizationCountManeuversMission 0
scalar OsgEarthNet.uav[297] utilizationCountManeuversMaintenance 0
scalar OsgEarthNet.uav[297] utilizationCountChargeState 0
scalar OsgEarthNet.uav[297] utilizationCountOverdrawnAfterMission 0
scalar OsgEarthNet.uav[297] utilizationCountIdleState 1
scalar OsgEarthNet.uav[297] utilizationFail 0
scalar OsgEarthNet.uav[297] simulationTime 259200
scalar OsgEarthNet.uav[298] utilizationSecMission 0
scalar OsgEarthNet.uav[298] utilizationSecMaintenance 0
scalar OsgEarthNet.uav[298] utilizationSecCharge 0
scalar OsgEarthNet.uav[298] utilizationSecIdle 259199.999
scalar OsgEarthNet.uav[298] utilizationEnergyMission 0
scalar OsgEarthNet.uav[298] utilizationEnergyMaintenance 0
scalar OsgEarthNet.uav[298] utilizationEnergyCharge 0
scalar OsgEarthNet.uav[298] utilizationEnergyOverdrawMission 0
scalar OsgEarthNet.uav[298] utilizationEnergyOverdrawMaintenance 0
scalar OsgEarthNet.uav[298] utilizationCountMissions 0
scalar OsgEarthNet.uav[298] utilizationCountManeuversMission 0
scalar OsgEarthNet.uav[298] utilizationCountManeuversMaintenance 0
scalar OsgEarthNet.uav[298] utilizationCountChargeState 0
scalar OsgEarthNet.uav[298] utilizationCountOverdrawnAfterMission 0
scalar OsgEarthNet.uav[298] utilizationCountIdleState 1
scalar OsgEarthNet.uav[298] utilizationFail 0
scalar OsgEarthNet.uav[298] simulationTime 259200
scalar OsgEarthNet.uav[299] utilizationSecMission 0
scalar OsgEarthNet.uav[299] utilizationSecMaintenance 0
scalar OsgEarthNet.uav[299] utilizationSecCharge 0
scalar OsgEarthNet.uav[299] utilizationSecIdle 259199.999
scalar OsgEarthNet.uav[299] utilizationEnergyMission 0
scalar OsgEarthNet.uav[299] utilizationEnergyMaintenance 0
scalar OsgEarthNet.uav[299] utilizationEnergyCharge 0
scalar OsgEarthNet.uav[299] utilizationEnergyOverdrawMission 0
scalar OsgEarthNet.uav[299] utilizationEnergyOverdrawMaintenance 0
scalar OsgEarthNet.uav[299] utilizationCountMissions 0
scalar OsgEarthNet.uav[299] utilizationCountManeuversMission 0
scalar OsgEarthNet.uav[299] utilizationCountManeuversMaintenance 0
scalar OsgEarthNet.uav[299] utilizationCountChargeState 0
scalar OsgEarthNet.uav[299] utilizationCountOverdrawnAfterMission 0
scalar OsgEarthNet.uav[299] utilizationCountIdleState 1
scalar OsgEarthNet.uav[299] utilizationFail 0
scalar OsgEarthNet.uav[299] simulationTime 259200
scalar OsgEarthNet.cs[0] usedPower 4004497.5515671
scalar OsgEarthNet.cs[0] chargedPower 4004497.5515671
scalar OsgEarthNet.cs[0] chargedMobileNodes 876
scalar OsgEarthNet.cs[0] reservations 889
scalar OsgEarthNet.cs[1] usedPower 4152872.5576973
scalar OsgEarthNet.cs[1] chargedPower 4152872.5576973
scalar OsgEarthNet.cs[1] chargedMobileNodes 1034
scalar OsgEarthNet.cs[1] reservations 1048
scalar OsgEarthNet.cs[2] usedPower 8692900.24933
scalar OsgEarthNet.cs[2] chargedPower 8692900.24933
scalar OsgEarthNet.cs[2] chargedMobileNodes 274
scalar OsgEarthNet.cs[2] reservations 1902

