version 2
run Szenario_Hotel_Gabelbach-12-20180719-02:26:56-20216
attr configname Szenario_Hotel_Gabelbach
attr datetime 20180719-02:26:56
attr experiment Szenario_Hotel_Gabelbach
attr inifile omnetpp.ini
attr iterationvars "$replM=2, $biWeight=0.35, $replSearchM=1, $numUAVs=55"
attr iterationvarsf replM=2,biWeight=0.35,replSearchM=1,numUAVs=55-
attr measurement "$replM=2, $biWeight=0.35, $replSearchM=1, $numUAVs=55"
attr network OsgEarthNet
attr processid 20216
attr repetition 12
attr replication #12
attr resultdir results
attr runnumber 12
attr seedset 12
itervar biWeight 0.35
itervar numUAVs 55
itervar replM 2
itervar replSearchM 1
param *.osgEarthScene.scene "\"Szenario_Hotel_Gabelbach.earth\""
param *.playgroundLatitude 50.6830269
param *.playgroundLongitude 10.8538055
param *.playgroundWidth 3500m
param *.playgroundHeight 3500m
param *.cs[0].posX 3537m
param *.cs[0].posY 965m
param *.cs[0].posZ 538m
param *.cs[1].posX 312m
param *.cs[1].posY 1262m
param *.cs[1].posZ 539m
param *.cs[2].posX 2185m
param *.cs[2].posY 3026m
param *.cs[2].posZ 777m
param *.cs[3].posX 10m
param *.cs[3].posY 2200m
param *.cs[3].posZ 560m
param *.cs[4].posX 750m
param *.cs[4].posY 200m
param *.cs[4].posZ 540m
param *.cs[5].posX 2450m
param *.cs[5].posY 180m
param *.cs[5].posZ 524m
param *.cs[6].posX 3140m
param *.cs[6].posY 1790m
param *.cs[6].posZ 606m
param *.numCSs 3
param *.uav[*].replacementMethod 2
param *.uav[*].weightedSumWeight 0.35
param *.missionControl.replacementSearchMethod 1
param *.numUAVs 55
param *.*.timeStep 10s
param *.uav[*].commandPreviewCommandCount 20
param *.missionControl.missionFiles "\"missions\\\\Szenario_WB_Hotel_Gabelbach_Mission_Hotel.waypoints,missions\\\\Szenario_WB_Hotel_Gabelbach_Mission_Kickelhahn.waypoints,missions\\\\Szenario_WB_Hotel_Gabelbach_Mission_Ilmenau_Sportplatz.waypoints,missions\\\\Szenario_WB_Hotel_Gabelbach_Mission_Manebach_Mitte.waypoints,missions\\\\Szenario_WB_Hotel_Gabelbach_Mission_Manebach_Sued.waypoints,missions\\\\Szenario_WB_Hotel_Gabelbach_Hover_HoheSchlaufe.waypoints,missions\\\\Szenario_WB_Hotel_Gabelbach_Hover_Kickelhahn.waypoints,missions\\\\Szenario_WB_Hotel_Gabelbach_Hover_Gabelbachskopf.waypoints,missions\\\\Szenario_WB_Hotel_Gabelbach_Hover_Dachskopf.waypoints\""
param *.uav[0].startX 3537m
param *.uav[0].startY 965m
param *.uav[0].startZ 539m
param *.uav[1].startX 312m
param *.uav[1].startY 1262m
param *.uav[1].startZ 540m
param *.uav[2].startX 2185m
param *.uav[2].startY 3026m
param *.uav[2].startZ 778m
param *.uav[3].startX 3537m
param *.uav[3].startY 965m
param *.uav[3].startZ 539m
param *.uav[4].startX 312m
param *.uav[4].startY 1262m
param *.uav[4].startZ 540m
param *.uav[5].startX 2185m
param *.uav[5].startY 3026m
param *.uav[5].startZ 778m
param *.uav[6].startX 3537m
param *.uav[6].startY 965m
param *.uav[6].startZ 539m
param *.uav[7].startX 312m
param *.uav[7].startY 1262m
param *.uav[7].startZ 540m
param *.uav[8].startX 2185m
param *.uav[8].startY 3026m
param *.uav[8].startZ 778m
param *.uav[9].startX 3537m
param *.uav[9].startY 965m
param *.uav[9].startZ 539m
param *.uav[10].startX 3537m
param *.uav[10].startY 965m
param *.uav[10].startZ 539m
param *.uav[11].startX 312m
param *.uav[11].startY 1262m
param *.uav[11].startZ 540m
param *.uav[12].startX 2185m
param *.uav[12].startY 3026m
param *.uav[12].startZ 778m
param *.uav[13].startX 3537m
param *.uav[13].startY 965m
param *.uav[13].startZ 539m
param *.uav[14].startX 312m
param *.uav[14].startY 1262m
param *.uav[14].startZ 540m
param *.uav[15].startX 2185m
param *.uav[15].startY 3026m
param *.uav[15].startZ 778m
param *.uav[16].startX 3537m
param *.uav[16].startY 965m
param *.uav[16].startZ 539m
param *.uav[17].startX 312m
param *.uav[17].startY 1262m
param *.uav[17].startZ 540m
param *.uav[18].startX 2185m
param *.uav[18].startY 3026m
param *.uav[18].startZ 778m
param *.uav[19].startX 3537m
param *.uav[19].startY 965m
param *.uav[19].startZ 539m
param *.uav[20].startX 3537m
param *.uav[20].startY 965m
param *.uav[20].startZ 539m
param *.uav[21].startX 312m
param *.uav[21].startY 1262m
param *.uav[21].startZ 540m
param *.uav[22].startX 2185m
param *.uav[22].startY 3026m
param *.uav[22].startZ 778m
param *.uav[23].startX 3537m
param *.uav[23].startY 965m
param *.uav[23].startZ 539m
param *.uav[24].startX 312m
param *.uav[24].startY 1262m
param *.uav[24].startZ 540m
param *.uav[25].startX 2185m
param *.uav[25].startY 3026m
param *.uav[25].startZ 778m
param *.uav[26].startX 3537m
param *.uav[26].startY 965m
param *.uav[26].startZ 539m
param *.uav[27].startX 312m
param *.uav[27].startY 1262m
param *.uav[27].startZ 540m
param *.uav[28].startX 2185m
param *.uav[28].startY 3026m
param *.uav[28].startZ 778m
param *.uav[29].startX 3537m
param *.uav[29].startY 965m
param *.uav[29].startZ 539m
param *.uav[30].startX 3537m
param *.uav[30].startY 965m
param *.uav[30].startZ 539m
param *.uav[31].startX 312m
param *.uav[31].startY 1262m
param *.uav[31].startZ 540m
param *.uav[32].startX 2185m
param *.uav[32].startY 3026m
param *.uav[32].startZ 778m
param *.uav[33].startX 3537m
param *.uav[33].startY 965m
param *.uav[33].startZ 539m
param *.uav[34].startX 312m
param *.uav[34].startY 1262m
param *.uav[34].startZ 540m
param *.uav[35].startX 2185m
param *.uav[35].startY 3026m
param *.uav[35].startZ 778m
param *.uav[36].startX 3537m
param *.uav[36].startY 965m
param *.uav[36].startZ 539m
param *.uav[37].startX 312m
param *.uav[37].startY 1262m
param *.uav[37].startZ 540m
param *.uav[38].startX 2185m
param *.uav[38].startY 3026m
param *.uav[38].startZ 778m
param *.uav[39].startX 3537m
param *.uav[39].startY 965m
param *.uav[39].startZ 539m
param *.uav[40].startX 3537m
param *.uav[40].startY 965m
param *.uav[40].startZ 539m
param *.uav[41].startX 312m
param *.uav[41].startY 1262m
param *.uav[41].startZ 540m
param *.uav[42].startX 2185m
param *.uav[42].startY 3026m
param *.uav[42].startZ 778m
param *.uav[43].startX 3537m
param *.uav[43].startY 965m
param *.uav[43].startZ 539m
param *.uav[44].startX 312m
param *.uav[44].startY 1262m
param *.uav[44].startZ 540m
param *.uav[45].startX 2185m
param *.uav[45].startY 3026m
param *.uav[45].startZ 778m
param *.uav[46].startX 3537m
param *.uav[46].startY 965m
param *.uav[46].startZ 539m
param *.uav[47].startX 312m
param *.uav[47].startY 1262m
param *.uav[47].startZ 540m
param *.uav[48].startX 2185m
param *.uav[48].startY 3026m
param *.uav[48].startZ 778m
param *.uav[49].startX 3537m
param *.uav[49].startY 965m
param *.uav[49].startZ 539m
param *.uav[50].startX 3537m
param *.uav[50].startY 965m
param *.uav[50].startZ 539m
param *.uav[51].startX 312m
param *.uav[51].startY 1262m
param *.uav[51].startZ 540m
param *.uav[52].startX 2185m
param *.uav[52].startY 3026m
param *.uav[52].startZ 778m
param *.uav[53].startX 3537m
param *.uav[53].startY 965m
param *.uav[53].startZ 539m
param *.uav[54].startX 312m
param *.uav[54].startY 1262m
param *.uav[54].startZ 540m
param *.uav[55].startX 2185m
param *.uav[55].startY 3026m
param *.uav[55].startZ 778m
param *.uav[56].startX 3537m
param *.uav[56].startY 965m
param *.uav[56].startZ 539m
param *.uav[57].startX 312m
param *.uav[57].startY 1262m
param *.uav[57].startZ 540m
param *.uav[58].startX 2185m
param *.uav[58].startY 3026m
param *.uav[58].startZ 778m
param *.uav[59].startX 3537m
param *.uav[59].startY 965m
param *.uav[59].startZ 539m
param *.uav[60].startX 3537m
param *.uav[60].startY 965m
param *.uav[60].startZ 539m
param *.uav[61].startX 312m
param *.uav[61].startY 1262m
param *.uav[61].startZ 540m
param *.uav[62].startX 2185m
param *.uav[62].startY 3026m
param *.uav[62].startZ 778m
param *.uav[63].startX 3537m
param *.uav[63].startY 965m
param *.uav[63].startZ 539m
param *.uav[64].startX 312m
param *.uav[64].startY 1262m
param *.uav[64].startZ 540m
param *.uav[65].startX 2185m
param *.uav[65].startY 3026m
param *.uav[65].startZ 778m
param *.uav[66].startX 3537m
param *.uav[66].startY 965m
param *.uav[66].startZ 539m
param *.uav[67].startX 312m
param *.uav[67].startY 1262m
param *.uav[67].startZ 540m
param *.uav[68].startX 2185m
param *.uav[68].startY 3026m
param *.uav[68].startZ 778m
param *.uav[69].startX 3537m
param *.uav[69].startY 965m
param *.uav[69].startZ 539m
param *.uav[70].startX 3537m
param *.uav[70].startY 965m
param *.uav[70].startZ 539m
param *.uav[71].startX 312m
param *.uav[71].startY 1262m
param *.uav[71].startZ 540m
param *.uav[72].startX 2185m
param *.uav[72].startY 3026m
param *.uav[72].startZ 778m
param *.uav[73].startX 3537m
param *.uav[73].startY 965m
param *.uav[73].startZ 539m
param *.uav[74].startX 312m
param *.uav[74].startY 1262m
param *.uav[74].startZ 540m
param *.uav[75].startX 2185m
param *.uav[75].startY 3026m
param *.uav[75].startZ 778m
param *.uav[76].startX 3537m
param *.uav[76].startY 965m
param *.uav[76].startZ 539m
param *.uav[77].startX 312m
param *.uav[77].startY 1262m
param *.uav[77].startZ 540m
param *.uav[78].startX 2185m
param *.uav[78].startY 3026m
param *.uav[78].startZ 778m
param *.uav[79].startX 3537m
param *.uav[79].startY 965m
param *.uav[79].startZ 539m
param *.uav[80].startX 3537m
param *.uav[80].startY 965m
param *.uav[80].startZ 539m
param *.uav[81].startX 312m
param *.uav[81].startY 1262m
param *.uav[81].startZ 540m
param *.uav[82].startX 2185m
param *.uav[82].startY 3026m
param *.uav[82].startZ 778m
param *.uav[83].startX 3537m
param *.uav[83].startY 965m
param *.uav[83].startZ 539m
param *.uav[84].startX 312m
param *.uav[84].startY 1262m
param *.uav[84].startZ 540m
param *.uav[85].startX 2185m
param *.uav[85].startY 3026m
param *.uav[85].startZ 778m
param *.uav[86].startX 3537m
param *.uav[86].startY 965m
param *.uav[86].startZ 539m
param *.uav[87].startX 312m
param *.uav[87].startY 1262m
param *.uav[87].startZ 540m
param *.uav[88].startX 2185m
param *.uav[88].startY 3026m
param *.uav[88].startZ 778m
param *.uav[89].startX 3537m
param *.uav[89].startY 965m
param *.uav[89].startZ 539m
param *.uav[90].startX 3537m
param *.uav[90].startY 965m
param *.uav[90].startZ 539m
param *.uav[91].startX 312m
param *.uav[91].startY 1262m
param *.uav[91].startZ 540m
param *.uav[92].startX 2185m
param *.uav[92].startY 3026m
param *.uav[92].startZ 778m
param *.uav[93].startX 3537m
param *.uav[93].startY 965m
param *.uav[93].startZ 539m
param *.uav[94].startX 312m
param *.uav[94].startY 1262m
param *.uav[94].startZ 540m
param *.uav[95].startX 2185m
param *.uav[95].startY 3026m
param *.uav[95].startZ 778m
param *.uav[96].startX 3537m
param *.uav[96].startY 965m
param *.uav[96].startZ 539m
param *.uav[97].startX 312m
param *.uav[97].startY 1262m
param *.uav[97].startZ 540m
param *.uav[98].startX 2185m
param *.uav[98].startY 3026m
param *.uav[98].startZ 778m
param *.uav[99].startX 3537m
param *.uav[99].startY 965m
param *.uav[99].startZ 539m
param *.osgEarthScene.scene "\"boston.earth\""
param *.playgroundLatitude 42.3558
param *.playgroundLongitude -71.0677
param *.playgroundWidth 400m
param *.playgroundHeight 200m
param *.channelController.connectionColor "\"#0000FF40\""
param *.channelController.showConnections false
param *.uav[*].modelURL "\"quadrocopter.small.obj.15.scale.0,0,90.rot\""
param *.uav[*].labelColor "\"#FF7C00CC\""
param *.uav[*].label2Color "\"#FF7C00EE\""
param *.uav[*].batteryCapacity 5200mAh
param *.uav[*].batteryRemaining uav[index].batteryCapacity
param *.uav[*].predictionQuantile 0.95
param *.uav[*].replacementMethod 2
param *.uav[*].weightedSumWeight 0.5
param *.cs[*].modelURL "\"chargingstation_v1.osgt.2.scale.0,0,0.rot.0,0,-15e-1.trans\""
param *.cs[*].spotsWaiting 999
param *.cs[*].spotsCharging 999
param *.cs[*].chargeEffectivenessPercentage 100
param *.cs[*].nonLinearPhaseStartPercentage 85
param *.cs[*].chargeCurrent 6.0A
param *.cs[*].prioritizeFastCharge true
param *.missionControl.replacementSearchMethod 0
param *.*.timeStep 9s

scalar OsgEarthNet.uav[0] utilizationSecMission 45304.869096267
scalar OsgEarthNet.uav[0] utilizationSecMaintenance 22113.640403877
scalar OsgEarthNet.uav[0] utilizationSecCharge 191779.48949986
scalar OsgEarthNet.uav[0] utilizationSecIdle 2
scalar OsgEarthNet.uav[0] utilizationEnergyMission 218129.46878052
scalar OsgEarthNet.uav[0] utilizationEnergyMaintenance 103771.93518448
scalar OsgEarthNet.uav[0] utilizationEnergyCharge 317224.67248535
scalar OsgEarthNet.uav[0] utilizationEnergyOverdrawMission 0
scalar OsgEarthNet.uav[0] utilizationEnergyOverdrawMaintenance 0
scalar OsgEarthNet.uav[0] utilizationCountMissions 75
scalar OsgEarthNet.uav[0] utilizationCountManeuversMission 1257
scalar OsgEarthNet.uav[0] utilizationCountManeuversMaintenance 149
scalar OsgEarthNet.uav[0] utilizationCountChargeState 75
scalar OsgEarthNet.uav[0] utilizationCountOverdrawnAfterMission 0
scalar OsgEarthNet.uav[0] utilizationCountIdleState 1
scalar OsgEarthNet.uav[0] utilizationFail 0
scalar OsgEarthNet.uav[0] simulationTime 259200
scalar OsgEarthNet.uav[1] utilizationSecMission 40143.824178507
scalar OsgEarthNet.uav[1] utilizationSecMaintenance 26384.174821493
scalar OsgEarthNet.uav[1] utilizationSecCharge 192670
scalar OsgEarthNet.uav[1] utilizationSecIdle 2
scalar OsgEarthNet.uav[1] utilizationEnergyMission 193644.71103272
scalar OsgEarthNet.uav[1] utilizationEnergyMaintenance 125491.58867264
scalar OsgEarthNet.uav[1] utilizationEnergyCharge 315988.51098633
scalar OsgEarthNet.uav[1] utilizationEnergyOverdrawMission 0
scalar OsgEarthNet.uav[1] utilizationEnergyOverdrawMaintenance 0
scalar OsgEarthNet.uav[1] utilizationCountMissions 78
scalar OsgEarthNet.uav[1] utilizationCountManeuversMission 1167
scalar OsgEarthNet.uav[1] utilizationCountManeuversMaintenance 156
scalar OsgEarthNet.uav[1] utilizationCountChargeState 78
scalar OsgEarthNet.uav[1] utilizationCountOverdrawnAfterMission 0
scalar OsgEarthNet.uav[1] utilizationCountIdleState 1
scalar OsgEarthNet.uav[1] utilizationFail 0
scalar OsgEarthNet.uav[1] simulationTime 259200
scalar OsgEarthNet.uav[2] utilizationSecMission 47298.282886082
scalar OsgEarthNet.uav[2] utilizationSecMaintenance 20466.131570189
scalar OsgEarthNet.uav[2] utilizationSecCharge 191433.58454373
scalar OsgEarthNet.uav[2] utilizationSecIdle 2
scalar OsgEarthNet.uav[2] utilizationEnergyMission 228256.50492477
scalar OsgEarthNet.uav[2] utilizationEnergyMaintenance 94127.436824799
scalar OsgEarthNet.uav[2] utilizationEnergyCharge 318072.57568359
scalar OsgEarthNet.uav[2] utilizationEnergyOverdrawMission 0
scalar OsgEarthNet.uav[2] utilizationEnergyOverdrawMaintenance 0
scalar OsgEarthNet.uav[2] utilizationCountMissions 73
scalar OsgEarthNet.uav[2] utilizationCountManeuversMission 1476
scalar OsgEarthNet.uav[2] utilizationCountManeuversMaintenance 146
scalar OsgEarthNet.uav[2] utilizationCountChargeState 73
scalar OsgEarthNet.uav[2] utilizationCountOverdrawnAfterMission 0
scalar OsgEarthNet.uav[2] utilizationCountIdleState 1
scalar OsgEarthNet.uav[2] utilizationFail 0
scalar OsgEarthNet.uav[2] simulationTime 259200
scalar OsgEarthNet.uav[3] utilizationSecMission 41806.767104688
scalar OsgEarthNet.uav[3] utilizationSecMaintenance 24385.323699526
scalar OsgEarthNet.uav[3] utilizationSecCharge 190665.90319579
scalar OsgEarthNet.uav[3] utilizationSecIdle 2342.005
scalar OsgEarthNet.uav[3] utilizationEnergyMission 204701.677845
scalar OsgEarthNet.uav[3] utilizationEnergyMaintenance 113316.39659882
scalar OsgEarthNet.uav[3] utilizationEnergyCharge 314201.87414551
scalar OsgEarthNet.uav[3] utilizationEnergyOverdrawMission 0
scalar OsgEarthNet.uav[3] utilizationEnergyOverdrawMaintenance 0
scalar OsgEarthNet.uav[3] utilizationCountMissions 75
scalar OsgEarthNet.uav[3] utilizationCountManeuversMission 1370
scalar OsgEarthNet.uav[3] utilizationCountManeuversMaintenance 150
scalar OsgEarthNet.uav[3] utilizationCountChargeState 75
scalar OsgEarthNet.uav[3] utilizationCountOverdrawnAfterMission 0
scalar OsgEarthNet.uav[3] utilizationCountIdleState 1
scalar OsgEarthNet.uav[3] utilizationFail 0
scalar OsgEarthNet.uav[3] simulationTime 259200
scalar OsgEarthNet.uav[4] utilizationSecMission 42352.966569935
scalar OsgEarthNet.uav[4] utilizationSecMaintenance 23363.386036409
scalar OsgEarthNet.uav[4] utilizationSecCharge 191301.64239366
scalar OsgEarthNet.uav[4] utilizationSecIdle 2182.004
scalar OsgEarthNet.uav[4] utilizationEnergyMission 204816.16699219
scalar OsgEarthNet.uav[4] utilizationEnergyMaintenance 109335.2902298
scalar OsgEarthNet.uav[4] utilizationEnergyCharge 312995.53515625
scalar OsgEarthNet.uav[4] utilizationEnergyOverdrawMission 0
scalar OsgEarthNet.uav[4] utilizationEnergyOverdrawMaintenance 0
scalar OsgEarthNet.uav[4] utilizationCountMissions 74
scalar OsgEarthNet.uav[4] utilizationCountManeuversMission 1254
scalar OsgEarthNet.uav[4] utilizationCountManeuversMaintenance 148
scalar OsgEarthNet.uav[4] utilizationCountChargeState 74
scalar OsgEarthNet.uav[4] utilizationCountOverdrawnAfterMission 0
scalar OsgEarthNet.uav[4] utilizationCountIdleState 1
scalar OsgEarthNet.uav[4] utilizationFail 0
scalar OsgEarthNet.uav[4] simulationTime 259200
scalar OsgEarthNet.uav[5] utilizationSecMission 42413.057914956
scalar OsgEarthNet.uav[5] utilizationSecMaintenance 25834.941085044
scalar OsgEarthNet.uav[5] utilizationSecCharge 190950
scalar OsgEarthNet.uav[5] utilizationSecIdle 2
scalar OsgEarthNet.uav[5] utilizationEnergyMission 206984.87363768
scalar OsgEarthNet.uav[5] utilizationEnergyMaintenance 120483.92909241
scalar OsgEarthNet.uav[5] utilizationEnergyCharge 322464.9777832
scalar OsgEarthNet.uav[5] utilizationEnergyOverdrawMission 0
scalar OsgEarthNet.uav[5] utilizationEnergyOverdrawMaintenance 0
scalar OsgEarthNet.uav[5] utilizationCountMissions 76
scalar OsgEarthNet.uav[5] utilizationCountManeuversMission 1348
scalar OsgEarthNet.uav[5] utilizationCountManeuversMaintenance 152
scalar OsgEarthNet.uav[5] utilizationCountChargeState 76
scalar OsgEarthNet.uav[5] utilizationCountOverdrawnAfterMission 0
scalar OsgEarthNet.uav[5] utilizationCountIdleState 1
scalar OsgEarthNet.uav[5] utilizationFail 0
scalar OsgEarthNet.uav[5] simulationTime 259200
scalar OsgEarthNet.uav[6] utilizationSecMission 43837.290053713
scalar OsgEarthNet.uav[6] utilizationSecMaintenance 21666.85632597
scalar OsgEarthNet.uav[6] utilizationSecCharge 191613.91361374
scalar OsgEarthNet.uav[6] utilizationSecIdle 2081.939006574
scalar OsgEarthNet.uav[6] utilizationEnergyMission 212096.11510849
scalar OsgEarthNet.uav[6] utilizationEnergyMaintenance 101545.03610611
scalar OsgEarthNet.uav[6] utilizationEnergyCharge 313419.42016602
scalar OsgEarthNet.uav[6] utilizationEnergyOverdrawMission 0
scalar OsgEarthNet.uav[6] utilizationEnergyOverdrawMaintenance 0
scalar OsgEarthNet.uav[6] utilizationCountMissions 74
scalar OsgEarthNet.uav[6] utilizationCountManeuversMission 1351
scalar OsgEarthNet.uav[6] utilizationCountManeuversMaintenance 148
scalar OsgEarthNet.uav[6] utilizationCountChargeState 74
scalar OsgEarthNet.uav[6] utilizationCountOverdrawnAfterMission 0
scalar OsgEarthNet.uav[6] utilizationCountIdleState 1
scalar OsgEarthNet.uav[6] utilizationFail 0
scalar OsgEarthNet.uav[6] simulationTime 259200
scalar OsgEarthNet.uav[7] utilizationSecMission 42764.33206301
scalar OsgEarthNet.uav[7] utilizationSecMaintenance 24564.39986114
scalar OsgEarthNet.uav[7] utilizationSecCharge 190249.26407585
scalar OsgEarthNet.uav[7] utilizationSecIdle 1622.003
scalar OsgEarthNet.uav[7] utilizationEnergyMission 208463.35251617
scalar OsgEarthNet.uav[7] utilizationEnergyMaintenance 114497.30711365
scalar OsgEarthNet.uav[7] utilizationEnergyCharge 316562.37045288
scalar OsgEarthNet.uav[7] utilizationEnergyOverdrawMission 0
scalar OsgEarthNet.uav[7] utilizationEnergyOverdrawMaintenance 0
scalar OsgEarthNet.uav[7] utilizationCountMissions 76
scalar OsgEarthNet.uav[7] utilizationCountManeuversMission 1304
scalar OsgEarthNet.uav[7] utilizationCountManeuversMaintenance 152
scalar OsgEarthNet.uav[7] utilizationCountChargeState 76
scalar OsgEarthNet.uav[7] utilizationCountOverdrawnAfterMission 0
scalar OsgEarthNet.uav[7] utilizationCountIdleState 1
scalar OsgEarthNet.uav[7] utilizationFail 0
scalar OsgEarthNet.uav[7] simulationTime 259200
scalar OsgEarthNet.uav[8] utilizationSecMission 42647.616356213
scalar OsgEarthNet.uav[8] utilizationSecMaintenance 24104.180625972
scalar OsgEarthNet.uav[8] utilizationSecCharge 191886.20101781
scalar OsgEarthNet.uav[8] utilizationSecIdle 562.001
scalar OsgEarthNet.uav[8] utilizationEnergyMission 205380.8393364
scalar OsgEarthNet.uav[8] utilizationEnergyMaintenance 111835.62257385
scalar OsgEarthNet.uav[8] utilizationEnergyCharge 316682.7644043
scalar OsgEarthNet.uav[8] utilizationEnergyOverdrawMission 0
scalar OsgEarthNet.uav[8] utilizationEnergyOverdrawMaintenance 0
scalar OsgEarthNet.uav[8] utilizationCountMissions 75
scalar OsgEarthNet.uav[8] utilizationCountManeuversMission 1320
scalar OsgEarthNet.uav[8] utilizationCountManeuversMaintenance 150
scalar OsgEarthNet.uav[8] utilizationCountChargeState 75
scalar OsgEarthNet.uav[8] utilizationCountOverdrawnAfterMission 0
scalar OsgEarthNet.uav[8] utilizationCountIdleState 1
scalar OsgEarthNet.uav[8] utilizationFail 0
scalar OsgEarthNet.uav[8] simulationTime 259200
scalar OsgEarthNet.uav[9] utilizationSecMission 46304.210248384
scalar OsgEarthNet.uav[9] utilizationSecMaintenance 20213.979310717
scalar OsgEarthNet.uav[9] utilizationSecCharge 189620.86018523
scalar OsgEarthNet.uav[9] utilizationSecIdle 3060.9492556647
scalar OsgEarthNet.uav[9] utilizationEnergyMission 221252.99895096
scalar OsgEarthNet.uav[9] utilizationEnergyMaintenance 92673.093875885
scalar OsgEarthNet.uav[9] utilizationEnergyCharge 314041.70898438
scalar OsgEarthNet.uav[9] utilizationEnergyOverdrawMission 0
scalar OsgEarthNet.uav[9] utilizationEnergyOverdrawMaintenance 0
scalar OsgEarthNet.uav[9] utilizationCountMissions 71
scalar OsgEarthNet.uav[9] utilizationCountManeuversMission 1314
scalar OsgEarthNet.uav[9] utilizationCountManeuversMaintenance 142
scalar OsgEarthNet.uav[9] utilizationCountChargeState 71
scalar OsgEarthNet.uav[9] utilizationCountOverdrawnAfterMission 0
scalar OsgEarthNet.uav[9] utilizationCountIdleState 1
scalar OsgEarthNet.uav[9] utilizationFail 0
scalar OsgEarthNet.uav[9] simulationTime 259200
scalar OsgEarthNet.uav[10] utilizationSecMission 41298.418636295
scalar OsgEarthNet.uav[10] utilizationSecMaintenance 25085.089564286
scalar OsgEarthNet.uav[10] utilizationSecCharge 190180
scalar OsgEarthNet.uav[10] utilizationSecIdle 2636.4907994183
scalar OsgEarthNet.uav[10] utilizationEnergyMission 200153.0059967
scalar OsgEarthNet.uav[10] utilizationEnergyMaintenance 118246.77861527
scalar OsgEarthNet.uav[10] utilizationEnergyCharge 313860.81152344
scalar OsgEarthNet.uav[10] utilizationEnergyOverdrawMission 0
scalar OsgEarthNet.uav[10] utilizationEnergyOverdrawMaintenance 0
scalar OsgEarthNet.uav[10] utilizationCountMissions 75
scalar OsgEarthNet.uav[10] utilizationCountManeuversMission 1272
scalar OsgEarthNet.uav[10] utilizationCountManeuversMaintenance 150
scalar OsgEarthNet.uav[10] utilizationCountChargeState 74
scalar OsgEarthNet.uav[10] utilizationCountOverdrawnAfterMission 0
scalar OsgEarthNet.uav[10] utilizationCountIdleState 1
scalar OsgEarthNet.uav[10] utilizationFail 0
scalar OsgEarthNet.uav[10] simulationTime 259200
scalar OsgEarthNet.uav[11] utilizationSecMission 39007.32333699
scalar OsgEarthNet.uav[11] utilizationSecMaintenance 27099.646591698
scalar OsgEarthNet.uav[11] utilizationSecCharge 190448.60811727
scalar OsgEarthNet.uav[11] utilizationSecIdle 2644.4209540413
scalar OsgEarthNet.uav[11] utilizationEnergyMission 189260.1080513
scalar OsgEarthNet.uav[11] utilizationEnergyMaintenance 128209.63608551
scalar OsgEarthNet.uav[11] utilizationEnergyCharge 316584.74682617
scalar OsgEarthNet.uav[11] utilizationEnergyOverdrawMission 0
scalar OsgEarthNet.uav[11] utilizationEnergyOverdrawMaintenance 0
scalar OsgEarthNet.uav[11] utilizationCountMissions 77
scalar OsgEarthNet.uav[11] utilizationCountManeuversMission 1242
scalar OsgEarthNet.uav[11] utilizationCountManeuversMaintenance 154
scalar OsgEarthNet.uav[11] utilizationCountChargeState 77
scalar OsgEarthNet.uav[11] utilizationCountOverdrawnAfterMission 0
scalar OsgEarthNet.uav[11] utilizationCountIdleState 1
scalar OsgEarthNet.uav[11] utilizationFail 0
scalar OsgEarthNet.uav[11] simulationTime 259200
scalar OsgEarthNet.uav[12] utilizationSecMission 46909.825745984
scalar OsgEarthNet.uav[12] utilizationSecMaintenance 20419.719479479
scalar OsgEarthNet.uav[12] utilizationSecCharge 190094.10355372
scalar OsgEarthNet.uav[12] utilizationSecIdle 1776.3502208215
scalar OsgEarthNet.uav[12] utilizationEnergyMission 225201.37785721
scalar OsgEarthNet.uav[12] utilizationEnergyMaintenance 94648.726303101
scalar OsgEarthNet.uav[12] utilizationEnergyCharge 315555.47937012
scalar OsgEarthNet.uav[12] utilizationEnergyOverdrawMission 0
scalar OsgEarthNet.uav[12] utilizationEnergyOverdrawMaintenance 0
scalar OsgEarthNet.uav[12] utilizationCountMissions 72
scalar OsgEarthNet.uav[12] utilizationCountManeuversMission 1277
scalar OsgEarthNet.uav[12] utilizationCountManeuversMaintenance 144
scalar OsgEarthNet.uav[12] utilizationCountChargeState 72
scalar OsgEarthNet.uav[12] utilizationCountOverdrawnAfterMission 0
scalar OsgEarthNet.uav[12] utilizationCountIdleState 1
scalar OsgEarthNet.uav[12] utilizationFail 0
scalar OsgEarthNet.uav[12] simulationTime 259200
scalar OsgEarthNet.uav[13] utilizationSecMission 43709.867685233
scalar OsgEarthNet.uav[13] utilizationSecMaintenance 23126.635815373
scalar OsgEarthNet.uav[13] utilizationSecCharge 190037.6008204
scalar OsgEarthNet.uav[13] utilizationSecIdle 2325.8946789918
scalar OsgEarthNet.uav[13] utilizationEnergyMission 211730.61246109
scalar OsgEarthNet.uav[13] utilizationEnergyMaintenance 107521.08926773
scalar OsgEarthNet.uav[13] utilizationEnergyCharge 312401.32678223
scalar OsgEarthNet.uav[13] utilizationEnergyOverdrawMission 0
scalar OsgEarthNet.uav[13] utilizationEnergyOverdrawMaintenance 0
scalar OsgEarthNet.uav[13] utilizationCountMissions 74
scalar OsgEarthNet.uav[13] utilizationCountManeuversMission 1322
scalar OsgEarthNet.uav[13] utilizationCountManeuversMaintenance 148
scalar OsgEarthNet.uav[13] utilizationCountChargeState 74
scalar OsgEarthNet.uav[13] utilizationCountOverdrawnAfterMission 0
scalar OsgEarthNet.uav[13] utilizationCountIdleState 1
scalar OsgEarthNet.uav[13] utilizationFail 0
scalar OsgEarthNet.uav[13] simulationTime 259200
scalar OsgEarthNet.uav[14] utilizationSecMission 38798.849776997
scalar OsgEarthNet.uav[14] utilizationSecMaintenance 27514.360387895
scalar OsgEarthNet.uav[14] utilizationSecCharge 191784.78683511
scalar OsgEarthNet.uav[14] utilizationSecIdle 1102.002
scalar OsgEarthNet.uav[14] utilizationEnergyMission 190414.90896606
scalar OsgEarthNet.uav[14] utilizationEnergyMaintenance 130285.76346588
scalar OsgEarthNet.uav[14] utilizationEnergyCharge 316255.47558594
scalar OsgEarthNet.uav[14] utilizationEnergyOverdrawMission 0
scalar OsgEarthNet.uav[14] utilizationEnergyOverdrawMaintenance 0
scalar OsgEarthNet.uav[14] utilizationCountMissions 78
scalar OsgEarthNet.uav[14] utilizationCountManeuversMission 1250
scalar OsgEarthNet.uav[14] utilizationCountManeuversMaintenance 156
scalar OsgEarthNet.uav[14] utilizationCountChargeState 78
scalar OsgEarthNet.uav[14] utilizationCountOverdrawnAfterMission 0
scalar OsgEarthNet.uav[14] utilizationCountIdleState 1
scalar OsgEarthNet.uav[14] utilizationFail 0
scalar OsgEarthNet.uav[14] simulationTime 259200
scalar OsgEarthNet.uav[15] utilizationSecMission 37515.722128753
scalar OsgEarthNet.uav[15] utilizationSecMaintenance 29893.571573381
scalar OsgEarthNet.uav[15] utilizationSecCharge 190448.70329787
scalar OsgEarthNet.uav[15] utilizationSecIdle 1342.002
scalar OsgEarthNet.uav[15] utilizationEnergyMission 182850.86719513
scalar OsgEarthNet.uav[15] utilizationEnergyMaintenance 140811.18365478
scalar OsgEarthNet.uav[15] utilizationEnergyCharge 320527.90179443
scalar OsgEarthNet.uav[15] utilizationEnergyOverdrawMission 0
scalar OsgEarthNet.uav[15] utilizationEnergyOverdrawMaintenance 0
scalar OsgEarthNet.uav[15] utilizationCountMissions 79
scalar OsgEarthNet.uav[15] utilizationCountManeuversMission 1298
scalar OsgEarthNet.uav[15] utilizationCountManeuversMaintenance 158
scalar OsgEarthNet.uav[15] utilizationCountChargeState 79
scalar OsgEarthNet.uav[15] utilizationCountOverdrawnAfterMission 0
scalar OsgEarthNet.uav[15] utilizationCountIdleState 1
scalar OsgEarthNet.uav[15] utilizationFail 0
scalar OsgEarthNet.uav[15] simulationTime 259200
scalar OsgEarthNet.uav[16] utilizationSecMission 40010.727195924
scalar OsgEarthNet.uav[16] utilizationSecMaintenance 26404.774016068
scalar OsgEarthNet.uav[16] utilizationSecCharge 189863.59510344
scalar OsgEarthNet.uav[16] utilizationSecIdle 2920.9026845731
scalar OsgEarthNet.uav[16] utilizationEnergyMission 194546.02441788
scalar OsgEarthNet.uav[16] utilizationEnergyMaintenance 122425.3687973
scalar OsgEarthNet.uav[16] utilizationEnergyCharge 317645.81835938
scalar OsgEarthNet.uav[16] utilizationEnergyOverdrawMission 0
scalar OsgEarthNet.uav[16] utilizationEnergyOverdrawMaintenance 0
scalar OsgEarthNet.uav[16] utilizationCountMissions 76
scalar OsgEarthNet.uav[16] utilizationCountManeuversMission 1423
scalar OsgEarthNet.uav[16] utilizationCountManeuversMaintenance 152
scalar OsgEarthNet.uav[16] utilizationCountChargeState 76
scalar OsgEarthNet.uav[16] utilizationCountOverdrawnAfterMission 0
scalar OsgEarthNet.uav[16] utilizationCountIdleState 1
scalar OsgEarthNet.uav[16] utilizationFail 0
scalar OsgEarthNet.uav[16] simulationTime 259200
scalar OsgEarthNet.uav[17] utilizationSecMission 40371.102332796
scalar OsgEarthNet.uav[17] utilizationSecMaintenance 25204.628515653
scalar OsgEarthNet.uav[17] utilizationSecCharge 191206.95206972
scalar OsgEarthNet.uav[17] utilizationSecIdle 2417.3160818306
scalar OsgEarthNet.uav[17] utilizationEnergyMission 197336.01318359
scalar OsgEarthNet.uav[17] utilizationEnergyMaintenance 118898.79478073
scalar OsgEarthNet.uav[17] utilizationEnergyCharge 314112.76904297
scalar OsgEarthNet.uav[17] utilizationEnergyOverdrawMission 0
scalar OsgEarthNet.uav[17] utilizationEnergyOverdrawMaintenance 0
scalar OsgEarthNet.uav[17] utilizationCountMissions 76
scalar OsgEarthNet.uav[17] utilizationCountManeuversMission 1422
scalar OsgEarthNet.uav[17] utilizationCountManeuversMaintenance 152
scalar OsgEarthNet.uav[17] utilizationCountChargeState 76
scalar OsgEarthNet.uav[17] utilizationCountOverdrawnAfterMission 0
scalar OsgEarthNet.uav[17] utilizationCountIdleState 1
scalar OsgEarthNet.uav[17] utilizationFail 0
scalar OsgEarthNet.uav[17] simulationTime 259200
scalar OsgEarthNet.uav[18] utilizationSecMission 40613.296063964
scalar OsgEarthNet.uav[18] utilizationSecMaintenance 25127.483322121
scalar OsgEarthNet.uav[18] utilizationSecCharge 192770
scalar OsgEarthNet.uav[18] utilizationSecIdle 689.21961391566
scalar OsgEarthNet.uav[18] utilizationEnergyMission 197124.58408384
scalar OsgEarthNet.uav[18] utilizationEnergyMaintenance 118572.04450989
scalar OsgEarthNet.uav[18] utilizationEnergyCharge 314125.1706543
scalar OsgEarthNet.uav[18] utilizationEnergyOverdrawMission 0
scalar OsgEarthNet.uav[18] utilizationEnergyOverdrawMaintenance 0
scalar OsgEarthNet.uav[18] utilizationCountMissions 76
scalar OsgEarthNet.uav[18] utilizationCountManeuversMission 1261
scalar OsgEarthNet.uav[18] utilizationCountManeuversMaintenance 153
scalar OsgEarthNet.uav[18] utilizationCountChargeState 76
scalar OsgEarthNet.uav[18] utilizationCountOverdrawnAfterMission 0
scalar OsgEarthNet.uav[18] utilizationCountIdleState 1
scalar OsgEarthNet.uav[18] utilizationFail 0
scalar OsgEarthNet.uav[18] simulationTime 259200
scalar OsgEarthNet.uav[19] utilizationSecMission 44012.129769707
scalar OsgEarthNet.uav[19] utilizationSecMaintenance 22780.68211118
scalar OsgEarthNet.uav[19] utilizationSecCharge 191025.18411911
scalar OsgEarthNet.uav[19] utilizationSecIdle 1382.003
scalar OsgEarthNet.uav[19] utilizationEnergyMission 214099.47108078
scalar OsgEarthNet.uav[19] utilizationEnergyMaintenance 106515.20288086
scalar OsgEarthNet.uav[19] utilizationEnergyCharge 319125.16870117
scalar OsgEarthNet.uav[19] utilizationEnergyOverdrawMission 0
scalar OsgEarthNet.uav[19] utilizationEnergyOverdrawMaintenance 0
scalar OsgEarthNet.uav[19] utilizationCountMissions 74
scalar OsgEarthNet.uav[19] utilizationCountManeuversMission 1361
scalar OsgEarthNet.uav[19] utilizationCountManeuversMaintenance 148
scalar OsgEarthNet.uav[19] utilizationCountChargeState 74
scalar OsgEarthNet.uav[19] utilizationCountOverdrawnAfterMission 0
scalar OsgEarthNet.uav[19] utilizationCountIdleState 1
scalar OsgEarthNet.uav[19] utilizationFail 0
scalar OsgEarthNet.uav[19] simulationTime 259200
scalar OsgEarthNet.uav[20] utilizationSecMission 39816.969911497
scalar OsgEarthNet.uav[20] utilizationSecMaintenance 25980.903207329
scalar OsgEarthNet.uav[20] utilizationSecCharge 190250.33977865
scalar OsgEarthNet.uav[20] utilizationSecIdle 3151.7861025228
scalar OsgEarthNet.uav[20] utilizationEnergyMission 193009.15970993
scalar OsgEarthNet.uav[20] utilizationEnergyMaintenance 122123.90209579
scalar OsgEarthNet.uav[20] utilizationEnergyCharge 314132.04223633
scalar OsgEarthNet.uav[20] utilizationEnergyOverdrawMission 0
scalar OsgEarthNet.uav[20] utilizationEnergyOverdrawMaintenance 0
scalar OsgEarthNet.uav[20] utilizationCountMissions 75
scalar OsgEarthNet.uav[20] utilizationCountManeuversMission 1284
scalar OsgEarthNet.uav[20] utilizationCountManeuversMaintenance 150
scalar OsgEarthNet.uav[20] utilizationCountChargeState 75
scalar OsgEarthNet.uav[20] utilizationCountOverdrawnAfterMission 0
scalar OsgEarthNet.uav[20] utilizationCountIdleState 1
scalar OsgEarthNet.uav[20] utilizationFail 0
scalar OsgEarthNet.uav[20] simulationTime 259200
scalar OsgEarthNet.uav[21] utilizationSecMission 41997.545333463
scalar OsgEarthNet.uav[21] utilizationSecMaintenance 24490.731445653
scalar OsgEarthNet.uav[21] utilizationSecCharge 190703.72237036
scalar OsgEarthNet.uav[21] utilizationSecIdle 2007.9998505245
scalar OsgEarthNet.uav[21] utilizationEnergyMission 200329.00853348
scalar OsgEarthNet.uav[21] utilizationEnergyMaintenance 113901.32409668
scalar OsgEarthNet.uav[21] utilizationEnergyCharge 313449.38061523
scalar OsgEarthNet.uav[21] utilizationEnergyOverdrawMission 0
scalar OsgEarthNet.uav[21] utilizationEnergyOverdrawMaintenance 0
scalar OsgEarthNet.uav[21] utilizationCountMissions 75
scalar OsgEarthNet.uav[21] utilizationCountManeuversMission 1232
scalar OsgEarthNet.uav[21] utilizationCountManeuversMaintenance 150
scalar OsgEarthNet.uav[21] utilizationCountChargeState 75
scalar OsgEarthNet.uav[21] utilizationCountOverdrawnAfterMission 0
scalar OsgEarthNet.uav[21] utilizationCountIdleState 1
scalar OsgEarthNet.uav[21] utilizationFail 0
scalar OsgEarthNet.uav[21] simulationTime 259200
scalar OsgEarthNet.uav[22] utilizationSecMission 38442.877244698
scalar OsgEarthNet.uav[22] utilizationSecMaintenance 28007.946644891
scalar OsgEarthNet.uav[22] utilizationSecCharge 191860
scalar OsgEarthNet.uav[22] utilizationSecIdle 889.17511041073
scalar OsgEarthNet.uav[22] utilizationEnergyMission 187451.51689915
scalar OsgEarthNet.uav[22] utilizationEnergyMaintenance 132065.60665512
scalar OsgEarthNet.uav[22] utilizationEnergyCharge 316722.63476562
scalar OsgEarthNet.uav[22] utilizationEnergyOverdrawMission 0
scalar OsgEarthNet.uav[22] utilizationEnergyOverdrawMaintenance 0
scalar OsgEarthNet.uav[22] utilizationCountMissions 78
scalar OsgEarthNet.uav[22] utilizationCountManeuversMission 1192
scalar OsgEarthNet.uav[22] utilizationCountManeuversMaintenance 157
scalar OsgEarthNet.uav[22] utilizationCountChargeState 78
scalar OsgEarthNet.uav[22] utilizationCountOverdrawnAfterMission 0
scalar OsgEarthNet.uav[22] utilizationCountIdleState 1
scalar OsgEarthNet.uav[22] utilizationFail 0
scalar OsgEarthNet.uav[22] simulationTime 259200
scalar OsgEarthNet.uav[23] utilizationSecMission 39485.168556318
scalar OsgEarthNet.uav[23] utilizationSecMaintenance 27201.893044056
scalar OsgEarthNet.uav[23] utilizationSecCharge 189788.97936009
scalar OsgEarthNet.uav[23] utilizationSecIdle 2723.9580395329
scalar OsgEarthNet.uav[23] utilizationEnergyMission 192336.85382843
scalar OsgEarthNet.uav[23] utilizationEnergyMaintenance 128691.49777985
scalar OsgEarthNet.uav[23] utilizationEnergyCharge 316741.02624512
scalar OsgEarthNet.uav[23] utilizationEnergyOverdrawMission 0
scalar OsgEarthNet.uav[23] utilizationEnergyOverdrawMaintenance 0
scalar OsgEarthNet.uav[23] utilizationCountMissions 77
scalar OsgEarthNet.uav[23] utilizationCountManeuversMission 1349
scalar OsgEarthNet.uav[23] utilizationCountManeuversMaintenance 154
scalar OsgEarthNet.uav[23] utilizationCountChargeState 77
scalar OsgEarthNet.uav[23] utilizationCountOverdrawnAfterMission 0
scalar OsgEarthNet.uav[23] utilizationCountIdleState 1
scalar OsgEarthNet.uav[23] utilizationFail 0
scalar OsgEarthNet.uav[23] simulationTime 259200
scalar OsgEarthNet.uav[24] utilizationSecMission 36017.287764308
scalar OsgEarthNet.uav[24] utilizationSecMaintenance 28389.043078964
scalar OsgEarthNet.uav[24] utilizationSecCharge 192068.96245769
scalar OsgEarthNet.uav[24] utilizationSecIdle 2724.7056990363
scalar OsgEarthNet.uav[24] utilizationEnergyMission 177480.64237595
scalar OsgEarthNet.uav[24] utilizationEnergyMaintenance 134628.62918854
scalar OsgEarthNet.uav[24] utilizationEnergyCharge 314299.21362305
scalar OsgEarthNet.uav[24] utilizationEnergyOverdrawMission 0
scalar OsgEarthNet.uav[24] utilizationEnergyOverdrawMaintenance 0
scalar OsgEarthNet.uav[24] utilizationCountMissions 79
scalar OsgEarthNet.uav[24] utilizationCountManeuversMission 1222
scalar OsgEarthNet.uav[24] utilizationCountManeuversMaintenance 158
scalar OsgEarthNet.uav[24] utilizationCountChargeState 79
scalar OsgEarthNet.uav[24] utilizationCountOverdrawnAfterMission 0
scalar OsgEarthNet.uav[24] utilizationCountIdleState 1
scalar OsgEarthNet.uav[24] utilizationFail 0
scalar OsgEarthNet.uav[24] simulationTime 259200
scalar OsgEarthNet.uav[25] utilizationSecMission 45155.763781904
scalar OsgEarthNet.uav[25] utilizationSecMaintenance 21744.809870806
scalar OsgEarthNet.uav[25] utilizationSecCharge 190860
scalar OsgEarthNet.uav[25] utilizationSecIdle 1439.4253472904
scalar OsgEarthNet.uav[25] utilizationEnergyMission 220678.21733753
scalar OsgEarthNet.uav[25] utilizationEnergyMaintenance 100816.07358551
scalar OsgEarthNet.uav[25] utilizationEnergyCharge 317549.33789062
scalar OsgEarthNet.uav[25] utilizationEnergyOverdrawMission 0
scalar OsgEarthNet.uav[25] utilizationEnergyOverdrawMaintenance 0
scalar OsgEarthNet.uav[25] utilizationCountMissions 73
scalar OsgEarthNet.uav[25] utilizationCountManeuversMission 1416
scalar OsgEarthNet.uav[25] utilizationCountManeuversMaintenance 147
scalar OsgEarthNet.uav[25] utilizationCountChargeState 73
scalar OsgEarthNet.uav[25] utilizationCountOverdrawnAfterMission 0
scalar OsgEarthNet.uav[25] utilizationCountIdleState 1
scalar OsgEarthNet.uav[25] utilizationFail 0
scalar OsgEarthNet.uav[25] simulationTime 259200
scalar OsgEarthNet.uav[26] utilizationSecMission 44827.743569541
scalar OsgEarthNet.uav[26] utilizationSecMaintenance 22882.307193568
scalar OsgEarthNet.uav[26] utilizationSecCharge 191487.94823689
scalar OsgEarthNet.uav[26] utilizationSecIdle 2
scalar OsgEarthNet.uav[26] utilizationEnergyMission 217248.80719757
scalar OsgEarthNet.uav[26] utilizationEnergyMaintenance 107806.37031555
scalar OsgEarthNet.uav[26] utilizationEnergyCharge 317484.22161865
scalar OsgEarthNet.uav[26] utilizationEnergyOverdrawMission 0
scalar OsgEarthNet.uav[26] utilizationEnergyOverdrawMaintenance 0
scalar OsgEarthNet.uav[26] utilizationCountMissions 74
scalar OsgEarthNet.uav[26] utilizationCountManeuversMission 1316
scalar OsgEarthNet.uav[26] utilizationCountManeuversMaintenance 147
scalar OsgEarthNet.uav[26] utilizationCountChargeState 74
scalar OsgEarthNet.uav[26] utilizationCountOverdrawnAfterMission 0
scalar OsgEarthNet.uav[26] utilizationCountIdleState 1
scalar OsgEarthNet.uav[26] utilizationFail 0
scalar OsgEarthNet.uav[26] simulationTime 259200
scalar OsgEarthNet.uav[27] utilizationSecMission 45404.187027199
scalar OsgEarthNet.uav[27] utilizationSecMaintenance 21823.811972801
scalar OsgEarthNet.uav[27] utilizationSecCharge 191970
scalar OsgEarthNet.uav[27] utilizationSecIdle 2
scalar OsgEarthNet.uav[27] utilizationEnergyMission 218906.07101059
scalar OsgEarthNet.uav[27] utilizationEnergyMaintenance 102185.1979561
scalar OsgEarthNet.uav[27] utilizationEnergyCharge 314791.02075195
scalar OsgEarthNet.uav[27] utilizationEnergyOverdrawMission 0
scalar OsgEarthNet.uav[27] utilizationEnergyOverdrawMaintenance 0
scalar OsgEarthNet.uav[27] utilizationCountMissions 74
scalar OsgEarthNet.uav[27] utilizationCountManeuversMission 1315
scalar OsgEarthNet.uav[27] utilizationCountManeuversMaintenance 148
scalar OsgEarthNet.uav[27] utilizationCountChargeState 73
scalar OsgEarthNet.uav[27] utilizationCountOverdrawnAfterMission 0
scalar OsgEarthNet.uav[27] utilizationCountIdleState 1
scalar OsgEarthNet.uav[27] utilizationFail 0
scalar OsgEarthNet.uav[27] simulationTime 259200
scalar OsgEarthNet.uav[28] utilizationSecMission 41048.073894696
scalar OsgEarthNet.uav[28] utilizationSecMaintenance 25311.638347974
scalar OsgEarthNet.uav[28] utilizationSecCharge 190798.28375733
scalar OsgEarthNet.uav[28] utilizationSecIdle 2042.003
scalar OsgEarthNet.uav[28] utilizationEnergyMission 199966.94828796
scalar OsgEarthNet.uav[28] utilizationEnergyMaintenance 117822.53474045
scalar OsgEarthNet.uav[28] utilizationEnergyCharge 318414.18798828
scalar OsgEarthNet.uav[28] utilizationEnergyOverdrawMission 0
scalar OsgEarthNet.uav[28] utilizationEnergyOverdrawMaintenance 0
scalar OsgEarthNet.uav[28] utilizationCountMissions 76
scalar OsgEarthNet.uav[28] utilizationCountManeuversMission 1373
scalar OsgEarthNet.uav[28] utilizationCountManeuversMaintenance 152
scalar OsgEarthNet.uav[28] utilizationCountChargeState 76
scalar OsgEarthNet.uav[28] utilizationCountOverdrawnAfterMission 0
scalar OsgEarthNet.uav[28] utilizationCountIdleState 1
scalar OsgEarthNet.uav[28] utilizationFail 0
scalar OsgEarthNet.uav[28] simulationTime 259200
scalar OsgEarthNet.uav[29] utilizationSecMission 46680.729289556
scalar OsgEarthNet.uav[29] utilizationSecMaintenance 20773.248099245
scalar OsgEarthNet.uav[29] utilizationSecCharge 190490
scalar OsgEarthNet.uav[29] utilizationSecIdle 1256.0216111988
scalar OsgEarthNet.uav[29] utilizationEnergyMission 225103.62915421
scalar OsgEarthNet.uav[29] utilizationEnergyMaintenance 95821.200989499
scalar OsgEarthNet.uav[29] utilizationEnergyCharge 315296.56518555
scalar OsgEarthNet.uav[29] utilizationEnergyOverdrawMission 0
scalar OsgEarthNet.uav[29] utilizationEnergyOverdrawMaintenance 0
scalar OsgEarthNet.uav[29] utilizationCountMissions 73
scalar OsgEarthNet.uav[29] utilizationCountManeuversMission 1371
scalar OsgEarthNet.uav[29] utilizationCountManeuversMaintenance 146
scalar OsgEarthNet.uav[29] utilizationCountChargeState 72
scalar OsgEarthNet.uav[29] utilizationCountOverdrawnAfterMission 0
scalar OsgEarthNet.uav[29] utilizationCountIdleState 1
scalar OsgEarthNet.uav[29] utilizationFail 0
scalar OsgEarthNet.uav[29] simulationTime 259200
scalar OsgEarthNet.uav[30] utilizationSecMission 40393.616498815
scalar OsgEarthNet.uav[30] utilizationSecMaintenance 26887.210677021
scalar OsgEarthNet.uav[30] utilizationSecCharge 191322.65454386
scalar OsgEarthNet.uav[30] utilizationSecIdle 596.5172803027
scalar OsgEarthNet.uav[30] utilizationEnergyMission 195422.79984283
scalar OsgEarthNet.uav[30] utilizationEnergyMaintenance 127575.81435776
scalar OsgEarthNet.uav[30] utilizationEnergyCharge 319826.26367188
scalar OsgEarthNet.uav[30] utilizationEnergyOverdrawMission 0
scalar OsgEarthNet.uav[30] utilizationEnergyOverdrawMaintenance 0
scalar OsgEarthNet.uav[30] utilizationCountMissions 77
scalar OsgEarthNet.uav[30] utilizationCountManeuversMission 1260
scalar OsgEarthNet.uav[30] utilizationCountManeuversMaintenance 154
scalar OsgEarthNet.uav[30] utilizationCountChargeState 77
scalar OsgEarthNet.uav[30] utilizationCountOverdrawnAfterMission 0
scalar OsgEarthNet.uav[30] utilizationCountIdleState 1
scalar OsgEarthNet.uav[30] utilizationFail 0
scalar OsgEarthNet.uav[30] simulationTime 259200
scalar OsgEarthNet.uav[31] utilizationSecMission 43867.482515814
scalar OsgEarthNet.uav[31] utilizationSecMaintenance 22650.146510217
scalar OsgEarthNet.uav[31] utilizationSecCharge 190369.01674273
scalar OsgEarthNet.uav[31] utilizationSecIdle 2313.3532312376
scalar OsgEarthNet.uav[31] utilizationEnergyMission 211394.81498337
scalar OsgEarthNet.uav[31] utilizationEnergyMaintenance 105408.77257919
scalar OsgEarthNet.uav[31] utilizationEnergyCharge 316169.984375
scalar OsgEarthNet.uav[31] utilizationEnergyOverdrawMission 0
scalar OsgEarthNet.uav[31] utilizationEnergyOverdrawMaintenance 0
scalar OsgEarthNet.uav[31] utilizationCountMissions 73
scalar OsgEarthNet.uav[31] utilizationCountManeuversMission 1318
scalar OsgEarthNet.uav[31] utilizationCountManeuversMaintenance 146
scalar OsgEarthNet.uav[31] utilizationCountChargeState 73
scalar OsgEarthNet.uav[31] utilizationCountOverdrawnAfterMission 0
scalar OsgEarthNet.uav[31] utilizationCountIdleState 1
scalar OsgEarthNet.uav[31] utilizationFail 0
scalar OsgEarthNet.uav[31] simulationTime 259200
scalar OsgEarthNet.uav[32] utilizationSecMission 45961.326409033
scalar OsgEarthNet.uav[32] utilizationSecMaintenance 21752.170268037
scalar OsgEarthNet.uav[32] utilizationSecCharge 189856.58818038
scalar OsgEarthNet.uav[32] utilizationSecIdle 1629.9141425466
scalar OsgEarthNet.uav[32] utilizationEnergyMission 219043.30181885
scalar OsgEarthNet.uav[32] utilizationEnergyMaintenance 100508.1508255
scalar OsgEarthNet.uav[32] utilizationEnergyCharge 316466.27807617
scalar OsgEarthNet.uav[32] utilizationEnergyOverdrawMission 0
scalar OsgEarthNet.uav[32] utilizationEnergyOverdrawMaintenance 0
scalar OsgEarthNet.uav[32] utilizationCountMissions 74
scalar OsgEarthNet.uav[32] utilizationCountManeuversMission 1353
scalar OsgEarthNet.uav[32] utilizationCountManeuversMaintenance 148
scalar OsgEarthNet.uav[32] utilizationCountChargeState 74
scalar OsgEarthNet.uav[32] utilizationCountOverdrawnAfterMission 0
scalar OsgEarthNet.uav[32] utilizationCountIdleState 1
scalar OsgEarthNet.uav[32] utilizationFail 0
scalar OsgEarthNet.uav[32] simulationTime 259200
scalar OsgEarthNet.uav[33] utilizationSecMission 38400.191984355
scalar OsgEarthNet.uav[33] utilizationSecMaintenance 28831.628738826
scalar OsgEarthNet.uav[33] utilizationSecCharge 190106.17427682
scalar OsgEarthNet.uav[33] utilizationSecIdle 1862.004
scalar OsgEarthNet.uav[33] utilizationEnergyMission 186427.00680923
scalar OsgEarthNet.uav[33] utilizationEnergyMaintenance 136924.58441544
scalar OsgEarthNet.uav[33] utilizationEnergyCharge 322695.12402344
scalar OsgEarthNet.uav[33] utilizationEnergyOverdrawMission 0
scalar OsgEarthNet.uav[33] utilizationEnergyOverdrawMaintenance 0
scalar OsgEarthNet.uav[33] utilizationCountMissions 78
scalar OsgEarthNet.uav[33] utilizationCountManeuversMission 1265
scalar OsgEarthNet.uav[33] utilizationCountManeuversMaintenance 156
scalar OsgEarthNet.uav[33] utilizationCountChargeState 78
scalar OsgEarthNet.uav[33] utilizationCountOverdrawnAfterMission 0
scalar OsgEarthNet.uav[33] utilizationCountIdleState 1
scalar OsgEarthNet.uav[33] utilizationFail 0
scalar OsgEarthNet.uav[33] simulationTime 259200
scalar OsgEarthNet.uav[34] utilizationSecMission 39732.458133491
scalar OsgEarthNet.uav[34] utilizationSecMaintenance 26305.321213659
scalar OsgEarthNet.uav[34] utilizationSecCharge 192270.21814613
scalar OsgEarthNet.uav[34] utilizationSecIdle 892.00150672213
scalar OsgEarthNet.uav[34] utilizationEnergyMission 194634.68297958
scalar OsgEarthNet.uav[34] utilizationEnergyMaintenance 124001.35967636
scalar OsgEarthNet.uav[34] utilizationEnergyCharge 314827.3079834
scalar OsgEarthNet.uav[34] utilizationEnergyOverdrawMission 0
scalar OsgEarthNet.uav[34] utilizationEnergyOverdrawMaintenance 0
scalar OsgEarthNet.uav[34] utilizationCountMissions 76
scalar OsgEarthNet.uav[34] utilizationCountManeuversMission 1427
scalar OsgEarthNet.uav[34] utilizationCountManeuversMaintenance 152
scalar OsgEarthNet.uav[34] utilizationCountChargeState 76
scalar OsgEarthNet.uav[34] utilizationCountOverdrawnAfterMission 0
scalar OsgEarthNet.uav[34] utilizationCountIdleState 1
scalar OsgEarthNet.uav[34] utilizationFail 0
scalar OsgEarthNet.uav[34] simulationTime 259200
scalar OsgEarthNet.uav[35] utilizationSecMission 42674.266394136
scalar OsgEarthNet.uav[35] utilizationSecMaintenance 23267.413778762
scalar OsgEarthNet.uav[35] utilizationSecCharge 192490.86856307
scalar OsgEarthNet.uav[35] utilizationSecIdle 767.4502640309
scalar OsgEarthNet.uav[35] utilizationEnergyMission 205871.84088516
scalar OsgEarthNet.uav[35] utilizationEnergyMaintenance 108041.47354126
scalar OsgEarthNet.uav[35] utilizationEnergyCharge 310855.07617188
scalar OsgEarthNet.uav[35] utilizationEnergyOverdrawMission 0
scalar OsgEarthNet.uav[35] utilizationEnergyOverdrawMaintenance 0
scalar OsgEarthNet.uav[35] utilizationCountMissions 75
scalar OsgEarthNet.uav[35] utilizationCountManeuversMission 1212
scalar OsgEarthNet.uav[35] utilizationCountManeuversMaintenance 150
scalar OsgEarthNet.uav[35] utilizationCountChargeState 75
scalar OsgEarthNet.uav[35] utilizationCountOverdrawnAfterMission 0
scalar OsgEarthNet.uav[35] utilizationCountIdleState 1
scalar OsgEarthNet.uav[35] utilizationFail 0
scalar OsgEarthNet.uav[35] simulationTime 259200
scalar OsgEarthNet.uav[36] utilizationSecMission 46671.898262826
scalar OsgEarthNet.uav[36] utilizationSecMaintenance 20256.098737174
scalar OsgEarthNet.uav[36] utilizationSecCharge 191370
scalar OsgEarthNet.uav[36] utilizationSecIdle 902.002
scalar OsgEarthNet.uav[36] utilizationEnergyMission 225804.70371089
scalar OsgEarthNet.uav[36] utilizationEnergyMaintenance 93702.880157471
scalar OsgEarthNet.uav[36] utilizationEnergyCharge 315135.18579102
scalar OsgEarthNet.uav[36] utilizationEnergyOverdrawMission 0
scalar OsgEarthNet.uav[36] utilizationEnergyOverdrawMaintenance 0
scalar OsgEarthNet.uav[36] utilizationCountMissions 72
scalar OsgEarthNet.uav[36] utilizationCountManeuversMission 1344
scalar OsgEarthNet.uav[36] utilizationCountManeuversMaintenance 145
scalar OsgEarthNet.uav[36] utilizationCountChargeState 72
scalar OsgEarthNet.uav[36] utilizationCountOverdrawnAfterMission 0
scalar OsgEarthNet.uav[36] utilizationCountIdleState 1
scalar OsgEarthNet.uav[36] utilizationFail 0
scalar OsgEarthNet.uav[36] simulationTime 259200
scalar OsgEarthNet.uav[37] utilizationSecMission 41428.330547318
scalar OsgEarthNet.uav[37] utilizationSecMaintenance 25654.585467363
scalar OsgEarthNet.uav[37] utilizationSecCharge 190308.72938244
scalar OsgEarthNet.uav[37] utilizationSecIdle 1808.3536028792
scalar OsgEarthNet.uav[37] utilizationEnergyMission 202234.37442017
scalar OsgEarthNet.uav[37] utilizationEnergyMaintenance 119615.05267715
scalar OsgEarthNet.uav[37] utilizationEnergyCharge 316732.04858398
scalar OsgEarthNet.uav[37] utilizationEnergyOverdrawMission 0
scalar OsgEarthNet.uav[37] utilizationEnergyOverdrawMaintenance 0
scalar OsgEarthNet.uav[37] utilizationCountMissions 76
scalar OsgEarthNet.uav[37] utilizationCountManeuversMission 1276
scalar OsgEarthNet.uav[37] utilizationCountManeuversMaintenance 152
scalar OsgEarthNet.uav[37] utilizationCountChargeState 76
scalar OsgEarthNet.uav[37] utilizationCountOverdrawnAfterMission 0
scalar OsgEarthNet.uav[37] utilizationCountIdleState 1
scalar OsgEarthNet.uav[37] utilizationFail 0
scalar OsgEarthNet.uav[37] simulationTime 259200
scalar OsgEarthNet.uav[38] utilizationSecMission 45369.538421382
scalar OsgEarthNet.uav[38] utilizationSecMaintenance 22179.007619901
scalar OsgEarthNet.uav[38] utilizationSecCharge 190180
scalar OsgEarthNet.uav[38] utilizationSecIdle 1471.4529587171
scalar OsgEarthNet.uav[38] utilizationEnergyMission 220873.79610062
scalar OsgEarthNet.uav[38] utilizationEnergyMaintenance 102808.07007667
scalar OsgEarthNet.uav[38] utilizationEnergyCharge 317638.77709961
scalar OsgEarthNet.uav[38] utilizationEnergyOverdrawMission 0
scalar OsgEarthNet.uav[38] utilizationEnergyOverdrawMaintenance 0
scalar OsgEarthNet.uav[38] utilizationCountMissions 74
scalar OsgEarthNet.uav[38] utilizationCountManeuversMission 1483
scalar OsgEarthNet.uav[38] utilizationCountManeuversMaintenance 148
scalar OsgEarthNet.uav[38] utilizationCountChargeState 73
scalar OsgEarthNet.uav[38] utilizationCountOverdrawnAfterMission 0
scalar OsgEarthNet.uav[38] utilizationCountIdleState 1
scalar OsgEarthNet.uav[38] utilizationFail 0
scalar OsgEarthNet.uav[38] simulationTime 259200
scalar OsgEarthNet.uav[39] utilizationSecMission 38770.93681488
scalar OsgEarthNet.uav[39] utilizationSecMaintenance 27652.762660864
scalar OsgEarthNet.uav[39] utilizationSecCharge 190235.35126859
scalar OsgEarthNet.uav[39] utilizationSecIdle 2540.9482556647
scalar OsgEarthNet.uav[39] utilizationEnergyMission 191707.81039429
scalar OsgEarthNet.uav[39] utilizationEnergyMaintenance 130029.15487289
scalar OsgEarthNet.uav[39] utilizationEnergyCharge 316688.62164307
scalar OsgEarthNet.uav[39] utilizationEnergyOverdrawMission 0
scalar OsgEarthNet.uav[39] utilizationEnergyOverdrawMaintenance 0
scalar OsgEarthNet.uav[39] utilizationCountMissions 77
scalar OsgEarthNet.uav[39] utilizationCountManeuversMission 1347
scalar OsgEarthNet.uav[39] utilizationCountManeuversMaintenance 154
scalar OsgEarthNet.uav[39] utilizationCountChargeState 77
scalar OsgEarthNet.uav[39] utilizationCountOverdrawnAfterMission 0
scalar OsgEarthNet.uav[39] utilizationCountIdleState 1
scalar OsgEarthNet.uav[39] utilizationFail 0
scalar OsgEarthNet.uav[39] simulationTime 259200
scalar OsgEarthNet.uav[40] utilizationSecMission 45545.85971929
scalar OsgEarthNet.uav[40] utilizationSecMaintenance 21272.13828071
scalar OsgEarthNet.uav[40] utilizationSecCharge 191920
scalar OsgEarthNet.uav[40] utilizationSecIdle 462.001
scalar OsgEarthNet.uav[40] utilizationEnergyMission 219546.52817836
scalar OsgEarthNet.uav[40] utilizationEnergyMaintenance 98925.446716309
scalar OsgEarthNet.uav[40] utilizationEnergyCharge 315462.33154297
scalar OsgEarthNet.uav[40] utilizationEnergyOverdrawMission 0
scalar OsgEarthNet.uav[40] utilizationEnergyOverdrawMaintenance 0
scalar OsgEarthNet.uav[40] utilizationCountMissions 72
scalar OsgEarthNet.uav[40] utilizationCountManeuversMission 1321
scalar OsgEarthNet.uav[40] utilizationCountManeuversMaintenance 145
scalar OsgEarthNet.uav[40] utilizationCountChargeState 72
scalar OsgEarthNet.uav[40] utilizationCountOverdrawnAfterMission 0
scalar OsgEarthNet.uav[40] utilizationCountIdleState 1
scalar OsgEarthNet.uav[40] utilizationFail 0
scalar OsgEarthNet.uav[40] simulationTime 259200
scalar OsgEarthNet.uav[41] utilizationSecMission 47324.791096984
scalar OsgEarthNet.uav[41] utilizationSecMaintenance 18769.773484587
scalar OsgEarthNet.uav[41] utilizationSecCharge 191132.08218719
scalar OsgEarthNet.uav[41] utilizationSecIdle 1973.3522312376
scalar OsgEarthNet.uav[41] utilizationEnergyMission 224972.66135025
scalar OsgEarthNet.uav[41] utilizationEnergyMaintenance 85474.561218262
scalar OsgEarthNet.uav[41] utilizationEnergyCharge 312195.07128906
scalar OsgEarthNet.uav[41] utilizationEnergyOverdrawMission 0
scalar OsgEarthNet.uav[41] utilizationEnergyOverdrawMaintenance 0
scalar OsgEarthNet.uav[41] utilizationCountMissions 71
scalar OsgEarthNet.uav[41] utilizationCountManeuversMission 1391
scalar OsgEarthNet.uav[41] utilizationCountManeuversMaintenance 142
scalar OsgEarthNet.uav[41] utilizationCountChargeState 71
scalar OsgEarthNet.uav[41] utilizationCountOverdrawnAfterMission 0
scalar OsgEarthNet.uav[41] utilizationCountIdleState 1
scalar OsgEarthNet.uav[41] utilizationFail 0
scalar OsgEarthNet.uav[41] simulationTime 259200
scalar OsgEarthNet.uav[42] utilizationSecMission 39704.427468611
scalar OsgEarthNet.uav[42] utilizationSecMaintenance 25830.199613058
scalar OsgEarthNet.uav[42] utilizationSecCharge 192535.45877578
scalar OsgEarthNet.uav[42] utilizationSecIdle 1129.9131425466
scalar OsgEarthNet.uav[42] utilizationEnergyMission 191669.95035172
scalar OsgEarthNet.uav[42] utilizationEnergyMaintenance 121625.82086945
scalar OsgEarthNet.uav[42] utilizationEnergyCharge 312053.77807617
scalar OsgEarthNet.uav[42] utilizationEnergyOverdrawMission 0
scalar OsgEarthNet.uav[42] utilizationEnergyOverdrawMaintenance 0
scalar OsgEarthNet.uav[42] utilizationCountMissions 78
scalar OsgEarthNet.uav[42] utilizationCountManeuversMission 1131
scalar OsgEarthNet.uav[42] utilizationCountManeuversMaintenance 156
scalar OsgEarthNet.uav[42] utilizationCountChargeState 78
scalar OsgEarthNet.uav[42] utilizationCountOverdrawnAfterMission 0
scalar OsgEarthNet.uav[42] utilizationCountIdleState 1
scalar OsgEarthNet.uav[42] utilizationFail 0
scalar OsgEarthNet.uav[42] simulationTime 259200
scalar OsgEarthNet.uav[43] utilizationSecMission 43606.341519625
scalar OsgEarthNet.uav[43] utilizationSecMaintenance 23064.685654373
scalar OsgEarthNet.uav[43] utilizationSecCharge 192526.971826
scalar OsgEarthNet.uav[43] utilizationSecIdle 2
scalar OsgEarthNet.uav[43] utilizationEnergyMission 212851.56039047
scalar OsgEarthNet.uav[43] utilizationEnergyMaintenance 107444.96158218
scalar OsgEarthNet.uav[43] utilizationEnergyCharge 318918.02355957
scalar OsgEarthNet.uav[43] utilizationEnergyOverdrawMission 0
scalar OsgEarthNet.uav[43] utilizationEnergyOverdrawMaintenance 0
scalar OsgEarthNet.uav[43] utilizationCountMissions 74
scalar OsgEarthNet.uav[43] utilizationCountManeuversMission 1451
scalar OsgEarthNet.uav[43] utilizationCountManeuversMaintenance 148
scalar OsgEarthNet.uav[43] utilizationCountChargeState 74
scalar OsgEarthNet.uav[43] utilizationCountOverdrawnAfterMission 0
scalar OsgEarthNet.uav[43] utilizationCountIdleState 1
scalar OsgEarthNet.uav[43] utilizationFail 0
scalar OsgEarthNet.uav[43] simulationTime 259200
scalar OsgEarthNet.uav[44] utilizationSecMission 38510.328375445
scalar OsgEarthNet.uav[44] utilizationSecMaintenance 26884.635380943
scalar OsgEarthNet.uav[44] utilizationSecCharge 193243.03424361
scalar OsgEarthNet.uav[44] utilizationSecIdle 562.001
scalar OsgEarthNet.uav[44] utilizationEnergyMission 188049.78848648
scalar OsgEarthNet.uav[44] utilizationEnergyMaintenance 127772.26648331
scalar OsgEarthNet.uav[44] utilizationEnergyCharge 310649.75439453
scalar OsgEarthNet.uav[44] utilizationEnergyOverdrawMission 0
scalar OsgEarthNet.uav[44] utilizationEnergyOverdrawMaintenance 0
scalar OsgEarthNet.uav[44] utilizationCountMissions 78
scalar OsgEarthNet.uav[44] utilizationCountManeuversMission 1268
scalar OsgEarthNet.uav[44] utilizationCountManeuversMaintenance 156
scalar OsgEarthNet.uav[44] utilizationCountChargeState 78
scalar OsgEarthNet.uav[44] utilizationCountOverdrawnAfterMission 0
scalar OsgEarthNet.uav[44] utilizationCountIdleState 1
scalar OsgEarthNet.uav[44] utilizationFail 0
scalar OsgEarthNet.uav[44] simulationTime 259200
scalar OsgEarthNet.uav[45] utilizationSecMission 42303.268716571
scalar OsgEarthNet.uav[45] utilizationSecMaintenance 24185.127498453
scalar OsgEarthNet.uav[45] utilizationSecCharge 192709.60278498
scalar OsgEarthNet.uav[45] utilizationSecIdle 2
scalar OsgEarthNet.uav[45] utilizationEnergyMission 206933.47246933
scalar OsgEarthNet.uav[45] utilizationEnergyMaintenance 113784.94406128
scalar OsgEarthNet.uav[45] utilizationEnergyCharge 321308.54223633
scalar OsgEarthNet.uav[45] utilizationEnergyOverdrawMission 0
scalar OsgEarthNet.uav[45] utilizationEnergyOverdrawMaintenance 0
scalar OsgEarthNet.uav[45] utilizationCountMissions 75
scalar OsgEarthNet.uav[45] utilizationCountManeuversMission 1340
scalar OsgEarthNet.uav[45] utilizationCountManeuversMaintenance 150
scalar OsgEarthNet.uav[45] utilizationCountChargeState 75
scalar OsgEarthNet.uav[45] utilizationCountOverdrawnAfterMission 0
scalar OsgEarthNet.uav[45] utilizationCountIdleState 1
scalar OsgEarthNet.uav[45] utilizationFail 0
scalar OsgEarthNet.uav[45] simulationTime 259200
scalar OsgEarthNet.uav[46] utilizationSecMission 43139.529504464
scalar OsgEarthNet.uav[46] utilizationSecMaintenance 22956.474562115
scalar OsgEarthNet.uav[46] utilizationSecCharge 191310
scalar OsgEarthNet.uav[46] utilizationSecIdle 1793.9949334209
scalar OsgEarthNet.uav[46] utilizationEnergyMission 207886.50036972
scalar OsgEarthNet.uav[46] utilizationEnergyMaintenance 107453.30791855
scalar OsgEarthNet.uav[46] utilizationEnergyCharge 314807.7199707
scalar OsgEarthNet.uav[46] utilizationEnergyOverdrawMission 0
scalar OsgEarthNet.uav[46] utilizationEnergyOverdrawMaintenance 0
scalar OsgEarthNet.uav[46] utilizationCountMissions 73
scalar OsgEarthNet.uav[46] utilizationCountManeuversMission 1338
scalar OsgEarthNet.uav[46] utilizationCountManeuversMaintenance 147
scalar OsgEarthNet.uav[46] utilizationCountChargeState 73
scalar OsgEarthNet.uav[46] utilizationCountOverdrawnAfterMission 0
scalar OsgEarthNet.uav[46] utilizationCountIdleState 1
scalar OsgEarthNet.uav[46] utilizationFail 0
scalar OsgEarthNet.uav[46] simulationTime 259200
scalar OsgEarthNet.uav[47] utilizationSecMission 38681.317542316
scalar OsgEarthNet.uav[47] utilizationSecMaintenance 26738.059198219
scalar OsgEarthNet.uav[47] utilizationSecCharge 193196.01036995
scalar OsgEarthNet.uav[47] utilizationSecIdle 584.61188951643
scalar OsgEarthNet.uav[47] utilizationEnergyMission 188714.54675674
scalar OsgEarthNet.uav[47] utilizationEnergyMaintenance 125803.19620132
scalar OsgEarthNet.uav[47] utilizationEnergyCharge 312967.02539062
scalar OsgEarthNet.uav[47] utilizationEnergyOverdrawMission 0
scalar OsgEarthNet.uav[47] utilizationEnergyOverdrawMaintenance 0
scalar OsgEarthNet.uav[47] utilizationCountMissions 78
scalar OsgEarthNet.uav[47] utilizationCountManeuversMission 1187
scalar OsgEarthNet.uav[47] utilizationCountManeuversMaintenance 156
scalar OsgEarthNet.uav[47] utilizationCountChargeState 78
scalar OsgEarthNet.uav[47] utilizationCountOverdrawnAfterMission 0
scalar OsgEarthNet.uav[47] utilizationCountIdleState 1
scalar OsgEarthNet.uav[47] utilizationFail 0
scalar OsgEarthNet.uav[47] simulationTime 259200
scalar OsgEarthNet.uav[48] utilizationSecMission 36857.140782649
scalar OsgEarthNet.uav[48] utilizationSecMaintenance 30178.539696324
scalar OsgEarthNet.uav[48] utilizationSecCharge 192162.31852103
scalar OsgEarthNet.uav[48] utilizationSecIdle 2
scalar OsgEarthNet.uav[48] utilizationEnergyMission 182729.1064423
scalar OsgEarthNet.uav[48] utilizationEnergyMaintenance 142448.38333511
scalar OsgEarthNet.uav[48] utilizationEnergyCharge 319218.00366211
scalar OsgEarthNet.uav[48] utilizationEnergyOverdrawMission 0
scalar OsgEarthNet.uav[48] utilizationEnergyOverdrawMaintenance 0
scalar OsgEarthNet.uav[48] utilizationCountMissions 79
scalar OsgEarthNet.uav[48] utilizationCountManeuversMission 1368
scalar OsgEarthNet.uav[48] utilizationCountManeuversMaintenance 157
scalar OsgEarthNet.uav[48] utilizationCountChargeState 79
scalar OsgEarthNet.uav[48] utilizationCountOverdrawnAfterMission 0
scalar OsgEarthNet.uav[48] utilizationCountIdleState 1
scalar OsgEarthNet.uav[48] utilizationFail 0
scalar OsgEarthNet.uav[48] simulationTime 259200
scalar OsgEarthNet.uav[49] utilizationSecMission 41863.130463128
scalar OsgEarthNet.uav[49] utilizationSecMaintenance 24336.298103815
scalar OsgEarthNet.uav[49] utilizationSecCharge 189720
scalar OsgEarthNet.uav[49] utilizationSecIdle 3280.5704330564
scalar OsgEarthNet.uav[49] utilizationEnergyMission 201644.22632864
scalar OsgEarthNet.uav[49] utilizationEnergyMaintenance 113668.19636917
scalar OsgEarthNet.uav[49] utilizationEnergyCharge 313368.96362305
scalar OsgEarthNet.uav[49] utilizationEnergyOverdrawMission 0
scalar OsgEarthNet.uav[49] utilizationEnergyOverdrawMaintenance 0
scalar OsgEarthNet.uav[49] utilizationCountMissions 74
scalar OsgEarthNet.uav[49] utilizationCountManeuversMission 1207
scalar OsgEarthNet.uav[49] utilizationCountManeuversMaintenance 149
scalar OsgEarthNet.uav[49] utilizationCountChargeState 74
scalar OsgEarthNet.uav[49] utilizationCountOverdrawnAfterMission 0
scalar OsgEarthNet.uav[49] utilizationCountIdleState 1
scalar OsgEarthNet.uav[49] utilizationFail 0
scalar OsgEarthNet.uav[49] simulationTime 259200
scalar OsgEarthNet.uav[50] utilizationSecMission 38853.03914548
scalar OsgEarthNet.uav[50] utilizationSecMaintenance 27024.95385452
scalar OsgEarthNet.uav[50] utilizationSecCharge 190520
scalar OsgEarthNet.uav[50] utilizationSecIdle 2802.006
scalar OsgEarthNet.uav[50] utilizationEnergyMission 188747.42575073
scalar OsgEarthNet.uav[50] utilizationEnergyMaintenance 128012.85683897
scalar OsgEarthNet.uav[50] utilizationEnergyCharge 314529.72192383
scalar OsgEarthNet.uav[50] utilizationEnergyOverdrawMission 0
scalar OsgEarthNet.uav[50] utilizationEnergyOverdrawMaintenance 0
scalar OsgEarthNet.uav[50] utilizationCountMissions 77
scalar OsgEarthNet.uav[50] utilizationCountManeuversMission 1243
scalar OsgEarthNet.uav[50] utilizationCountManeuversMaintenance 155
scalar OsgEarthNet.uav[50] utilizationCountChargeState 77
scalar OsgEarthNet.uav[50] utilizationCountOverdrawnAfterMission 0
scalar OsgEarthNet.uav[50] utilizationCountIdleState 1
scalar OsgEarthNet.uav[50] utilizationFail 0
scalar OsgEarthNet.uav[50] simulationTime 259200
scalar OsgEarthNet.uav[51] utilizationSecMission 41823.516280517
scalar OsgEarthNet.uav[51] utilizationSecMaintenance 24236.846242181
scalar OsgEarthNet.uav[51] utilizationSecCharge 190377.6314773
scalar OsgEarthNet.uav[51] utilizationSecIdle 2762.005
scalar OsgEarthNet.uav[51] utilizationEnergyMission 202421.64238739
scalar OsgEarthNet.uav[51] utilizationEnergyMaintenance 114202.07327271
scalar OsgEarthNet.uav[51] utilizationEnergyCharge 313966.35668945
scalar OsgEarthNet.uav[51] utilizationEnergyOverdrawMission 0
scalar OsgEarthNet.uav[51] utilizationEnergyOverdrawMaintenance 0
scalar OsgEarthNet.uav[51] utilizationCountMissions 75
scalar OsgEarthNet.uav[51] utilizationCountManeuversMission 1347
scalar OsgEarthNet.uav[51] utilizationCountManeuversMaintenance 150
scalar OsgEarthNet.uav[51] utilizationCountChargeState 75
scalar OsgEarthNet.uav[51] utilizationCountOverdrawnAfterMission 0
scalar OsgEarthNet.uav[51] utilizationCountIdleState 1
scalar OsgEarthNet.uav[51] utilizationFail 0
scalar OsgEarthNet.uav[51] simulationTime 259200
scalar OsgEarthNet.uav[52] utilizationSecMission 40025.89984751
scalar OsgEarthNet.uav[52] utilizationSecMaintenance 26409.949342202
scalar OsgEarthNet.uav[52] utilizationSecCharge 192122.14881029
scalar OsgEarthNet.uav[52] utilizationSecIdle 642.001
scalar OsgEarthNet.uav[52] utilizationEnergyMission 193667.47163773
scalar OsgEarthNet.uav[52] utilizationEnergyMaintenance 123782.32813644
scalar OsgEarthNet.uav[52] utilizationEnergyCharge 317620.83959961
scalar OsgEarthNet.uav[52] utilizationEnergyOverdrawMission 0
scalar OsgEarthNet.uav[52] utilizationEnergyOverdrawMaintenance 0
scalar OsgEarthNet.uav[52] utilizationCountMissions 77
scalar OsgEarthNet.uav[52] utilizationCountManeuversMission 1391
scalar OsgEarthNet.uav[52] utilizationCountManeuversMaintenance 154
scalar OsgEarthNet.uav[52] utilizationCountChargeState 77
scalar OsgEarthNet.uav[52] utilizationCountOverdrawnAfterMission 0
scalar OsgEarthNet.uav[52] utilizationCountIdleState 1
scalar OsgEarthNet.uav[52] utilizationFail 0
scalar OsgEarthNet.uav[52] simulationTime 259200
scalar OsgEarthNet.uav[53] utilizationSecMission 38532.935968295
scalar OsgEarthNet.uav[53] utilizationSecMaintenance 27478.863823458
scalar OsgEarthNet.uav[53] utilizationSecCharge 190668.2549304
scalar OsgEarthNet.uav[53] utilizationSecIdle 2519.9442778449
scalar OsgEarthNet.uav[53] utilizationEnergyMission 190199.85768509
scalar OsgEarthNet.uav[53] utilizationEnergyMaintenance 129040.03289413
scalar OsgEarthNet.uav[53] utilizationEnergyCharge 314933.27099609
scalar OsgEarthNet.uav[53] utilizationEnergyOverdrawMission 0
scalar OsgEarthNet.uav[53] utilizationEnergyOverdrawMaintenance 0
scalar OsgEarthNet.uav[53] utilizationCountMissions 77
scalar OsgEarthNet.uav[53] utilizationCountManeuversMission 1261
scalar OsgEarthNet.uav[53] utilizationCountManeuversMaintenance 154
scalar OsgEarthNet.uav[53] utilizationCountChargeState 77
scalar OsgEarthNet.uav[53] utilizationCountOverdrawnAfterMission 0
scalar OsgEarthNet.uav[53] utilizationCountIdleState 1
scalar OsgEarthNet.uav[53] utilizationFail 0
scalar OsgEarthNet.uav[53] simulationTime 259200
scalar OsgEarthNet.uav[54] utilizationSecMission 44695.763065735
scalar OsgEarthNet.uav[54] utilizationSecMaintenance 22963.023153983
scalar OsgEarthNet.uav[54] utilizationSecCharge 190040.24879461
scalar OsgEarthNet.uav[54] utilizationSecIdle 1500.9639856735
scalar OsgEarthNet.uav[54] utilizationEnergyMission 213318.86413193
scalar OsgEarthNet.uav[54] utilizationEnergyMaintenance 106956.53377151
scalar OsgEarthNet.uav[54] utilizationEnergyCharge 316191.32348633
scalar OsgEarthNet.uav[54] utilizationEnergyOverdrawMission 0
scalar OsgEarthNet.uav[54] utilizationEnergyOverdrawMaintenance 0
scalar OsgEarthNet.uav[54] utilizationCountMissions 74
scalar OsgEarthNet.uav[54] utilizationCountManeuversMission 1341
scalar OsgEarthNet.uav[54] utilizationCountManeuversMaintenance 148
scalar OsgEarthNet.uav[54] utilizationCountChargeState 74
scalar OsgEarthNet.uav[54] utilizationCountOverdrawnAfterMission 0
scalar OsgEarthNet.uav[54] utilizationCountIdleState 1
scalar OsgEarthNet.uav[54] utilizationFail 0
scalar OsgEarthNet.uav[54] simulationTime 259200
scalar OsgEarthNet.cs[0] usedPower 4487383.0613237
scalar OsgEarthNet.cs[0] chargedPower 4487383.0613237
scalar OsgEarthNet.cs[0] chargedMobileNodes 0
scalar OsgEarthNet.cs[0] reservations 1076
scalar OsgEarthNet.cs[1] usedPower 4233813.1288209
scalar OsgEarthNet.cs[1] chargedPower 4233813.1288209
scalar OsgEarthNet.cs[1] chargedMobileNodes 0
scalar OsgEarthNet.cs[1] reservations 1080
scalar OsgEarthNet.cs[2] usedPower 8654740.5577888
scalar OsgEarthNet.cs[2] chargedPower 8654740.5577888
scalar OsgEarthNet.cs[2] chargedMobileNodes 0
scalar OsgEarthNet.cs[2] reservations 1986

