version 2
run Szenario_Hotel_Gabelbach-413-20180719-17:13:45-8504
attr configname Szenario_Hotel_Gabelbach
attr datetime 20180719-17:13:45
attr experiment Szenario_Hotel_Gabelbach
attr inifile omnetpp.ini
attr iterationvars "$replM=2, $biWeight=0.35, $replSearchM=1, $numUAVs=88"
attr iterationvarsf replM=2,biWeight=0.35,replSearchM=1,numUAVs=88-
attr measurement "$replM=2, $biWeight=0.35, $replSearchM=1, $numUAVs=88"
attr network OsgEarthNet
attr processid 8504
attr repetition 5
attr replication #5
attr resultdir results
attr runnumber 413
attr seedset 413
itervar biWeight 0.35
itervar numUAVs 88
itervar replM 2
itervar replSearchM 1
param *.osgEarthScene.scene "\"Szenario_Hotel_Gabelbach.earth\""
param *.playgroundLatitude 50.6830269
param *.playgroundLongitude 10.8538055
param *.playgroundWidth 3500m
param *.playgroundHeight 3500m
param *.cs[0].posX 3537m
param *.cs[0].posY 965m
param *.cs[0].posZ 538m
param *.cs[1].posX 312m
param *.cs[1].posY 1262m
param *.cs[1].posZ 539m
param *.cs[2].posX 2185m
param *.cs[2].posY 3026m
param *.cs[2].posZ 777m
param *.cs[3].posX 10m
param *.cs[3].posY 2200m
param *.cs[3].posZ 560m
param *.cs[4].posX 750m
param *.cs[4].posY 200m
param *.cs[4].posZ 540m
param *.cs[5].posX 2450m
param *.cs[5].posY 180m
param *.cs[5].posZ 524m
param *.cs[6].posX 3140m
param *.cs[6].posY 1790m
param *.cs[6].posZ 606m
param *.numCSs 3
param *.uav[*].replacementMethod 2
param *.uav[*].weightedSumWeight 0.35
param *.missionControl.replacementSearchMethod 1
param *.numUAVs 88
param *.*.timeStep 10s
param *.uav[*].commandPreviewCommandCount 20
param *.missionControl.missionFiles "\"missions\\\\Szenario_WB_Hotel_Gabelbach_Mission_Hotel.waypoints,missions\\\\Szenario_WB_Hotel_Gabelbach_Mission_Kickelhahn.waypoints,missions\\\\Szenario_WB_Hotel_Gabelbach_Mission_Ilmenau_Sportplatz.waypoints,missions\\\\Szenario_WB_Hotel_Gabelbach_Mission_Manebach_Mitte.waypoints,missions\\\\Szenario_WB_Hotel_Gabelbach_Mission_Manebach_Sued.waypoints,missions\\\\Szenario_WB_Hotel_Gabelbach_Hover_HoheSchlaufe.waypoints,missions\\\\Szenario_WB_Hotel_Gabelbach_Hover_Kickelhahn.waypoints,missions\\\\Szenario_WB_Hotel_Gabelbach_Hover_Gabelbachskopf.waypoints,missions\\\\Szenario_WB_Hotel_Gabelbach_Hover_Dachskopf.waypoints\""
param *.uav[0].startX 3537m
param *.uav[0].startY 965m
param *.uav[0].startZ 539m
param *.uav[1].startX 312m
param *.uav[1].startY 1262m
param *.uav[1].startZ 540m
param *.uav[2].startX 2185m
param *.uav[2].startY 3026m
param *.uav[2].startZ 778m
param *.uav[3].startX 3537m
param *.uav[3].startY 965m
param *.uav[3].startZ 539m
param *.uav[4].startX 312m
param *.uav[4].startY 1262m
param *.uav[4].startZ 540m
param *.uav[5].startX 2185m
param *.uav[5].startY 3026m
param *.uav[5].startZ 778m
param *.uav[6].startX 3537m
param *.uav[6].startY 965m
param *.uav[6].startZ 539m
param *.uav[7].startX 312m
param *.uav[7].startY 1262m
param *.uav[7].startZ 540m
param *.uav[8].startX 2185m
param *.uav[8].startY 3026m
param *.uav[8].startZ 778m
param *.uav[9].startX 3537m
param *.uav[9].startY 965m
param *.uav[9].startZ 539m
param *.uav[10].startX 3537m
param *.uav[10].startY 965m
param *.uav[10].startZ 539m
param *.uav[11].startX 312m
param *.uav[11].startY 1262m
param *.uav[11].startZ 540m
param *.uav[12].startX 2185m
param *.uav[12].startY 3026m
param *.uav[12].startZ 778m
param *.uav[13].startX 3537m
param *.uav[13].startY 965m
param *.uav[13].startZ 539m
param *.uav[14].startX 312m
param *.uav[14].startY 1262m
param *.uav[14].startZ 540m
param *.uav[15].startX 2185m
param *.uav[15].startY 3026m
param *.uav[15].startZ 778m
param *.uav[16].startX 3537m
param *.uav[16].startY 965m
param *.uav[16].startZ 539m
param *.uav[17].startX 312m
param *.uav[17].startY 1262m
param *.uav[17].startZ 540m
param *.uav[18].startX 2185m
param *.uav[18].startY 3026m
param *.uav[18].startZ 778m
param *.uav[19].startX 3537m
param *.uav[19].startY 965m
param *.uav[19].startZ 539m
param *.uav[20].startX 3537m
param *.uav[20].startY 965m
param *.uav[20].startZ 539m
param *.uav[21].startX 312m
param *.uav[21].startY 1262m
param *.uav[21].startZ 540m
param *.uav[22].startX 2185m
param *.uav[22].startY 3026m
param *.uav[22].startZ 778m
param *.uav[23].startX 3537m
param *.uav[23].startY 965m
param *.uav[23].startZ 539m
param *.uav[24].startX 312m
param *.uav[24].startY 1262m
param *.uav[24].startZ 540m
param *.uav[25].startX 2185m
param *.uav[25].startY 3026m
param *.uav[25].startZ 778m
param *.uav[26].startX 3537m
param *.uav[26].startY 965m
param *.uav[26].startZ 539m
param *.uav[27].startX 312m
param *.uav[27].startY 1262m
param *.uav[27].startZ 540m
param *.uav[28].startX 2185m
param *.uav[28].startY 3026m
param *.uav[28].startZ 778m
param *.uav[29].startX 3537m
param *.uav[29].startY 965m
param *.uav[29].startZ 539m
param *.uav[30].startX 3537m
param *.uav[30].startY 965m
param *.uav[30].startZ 539m
param *.uav[31].startX 312m
param *.uav[31].startY 1262m
param *.uav[31].startZ 540m
param *.uav[32].startX 2185m
param *.uav[32].startY 3026m
param *.uav[32].startZ 778m
param *.uav[33].startX 3537m
param *.uav[33].startY 965m
param *.uav[33].startZ 539m
param *.uav[34].startX 312m
param *.uav[34].startY 1262m
param *.uav[34].startZ 540m
param *.uav[35].startX 2185m
param *.uav[35].startY 3026m
param *.uav[35].startZ 778m
param *.uav[36].startX 3537m
param *.uav[36].startY 965m
param *.uav[36].startZ 539m
param *.uav[37].startX 312m
param *.uav[37].startY 1262m
param *.uav[37].startZ 540m
param *.uav[38].startX 2185m
param *.uav[38].startY 3026m
param *.uav[38].startZ 778m
param *.uav[39].startX 3537m
param *.uav[39].startY 965m
param *.uav[39].startZ 539m
param *.uav[40].startX 3537m
param *.uav[40].startY 965m
param *.uav[40].startZ 539m
param *.uav[41].startX 312m
param *.uav[41].startY 1262m
param *.uav[41].startZ 540m
param *.uav[42].startX 2185m
param *.uav[42].startY 3026m
param *.uav[42].startZ 778m
param *.uav[43].startX 3537m
param *.uav[43].startY 965m
param *.uav[43].startZ 539m
param *.uav[44].startX 312m
param *.uav[44].startY 1262m
param *.uav[44].startZ 540m
param *.uav[45].startX 2185m
param *.uav[45].startY 3026m
param *.uav[45].startZ 778m
param *.uav[46].startX 3537m
param *.uav[46].startY 965m
param *.uav[46].startZ 539m
param *.uav[47].startX 312m
param *.uav[47].startY 1262m
param *.uav[47].startZ 540m
param *.uav[48].startX 2185m
param *.uav[48].startY 3026m
param *.uav[48].startZ 778m
param *.uav[49].startX 3537m
param *.uav[49].startY 965m
param *.uav[49].startZ 539m
param *.uav[50].startX 3537m
param *.uav[50].startY 965m
param *.uav[50].startZ 539m
param *.uav[51].startX 312m
param *.uav[51].startY 1262m
param *.uav[51].startZ 540m
param *.uav[52].startX 2185m
param *.uav[52].startY 3026m
param *.uav[52].startZ 778m
param *.uav[53].startX 3537m
param *.uav[53].startY 965m
param *.uav[53].startZ 539m
param *.uav[54].startX 312m
param *.uav[54].startY 1262m
param *.uav[54].startZ 540m
param *.uav[55].startX 2185m
param *.uav[55].startY 3026m
param *.uav[55].startZ 778m
param *.uav[56].startX 3537m
param *.uav[56].startY 965m
param *.uav[56].startZ 539m
param *.uav[57].startX 312m
param *.uav[57].startY 1262m
param *.uav[57].startZ 540m
param *.uav[58].startX 2185m
param *.uav[58].startY 3026m
param *.uav[58].startZ 778m
param *.uav[59].startX 3537m
param *.uav[59].startY 965m
param *.uav[59].startZ 539m
param *.uav[60].startX 3537m
param *.uav[60].startY 965m
param *.uav[60].startZ 539m
param *.uav[61].startX 312m
param *.uav[61].startY 1262m
param *.uav[61].startZ 540m
param *.uav[62].startX 2185m
param *.uav[62].startY 3026m
param *.uav[62].startZ 778m
param *.uav[63].startX 3537m
param *.uav[63].startY 965m
param *.uav[63].startZ 539m
param *.uav[64].startX 312m
param *.uav[64].startY 1262m
param *.uav[64].startZ 540m
param *.uav[65].startX 2185m
param *.uav[65].startY 3026m
param *.uav[65].startZ 778m
param *.uav[66].startX 3537m
param *.uav[66].startY 965m
param *.uav[66].startZ 539m
param *.uav[67].startX 312m
param *.uav[67].startY 1262m
param *.uav[67].startZ 540m
param *.uav[68].startX 2185m
param *.uav[68].startY 3026m
param *.uav[68].startZ 778m
param *.uav[69].startX 3537m
param *.uav[69].startY 965m
param *.uav[69].startZ 539m
param *.uav[70].startX 3537m
param *.uav[70].startY 965m
param *.uav[70].startZ 539m
param *.uav[71].startX 312m
param *.uav[71].startY 1262m
param *.uav[71].startZ 540m
param *.uav[72].startX 2185m
param *.uav[72].startY 3026m
param *.uav[72].startZ 778m
param *.uav[73].startX 3537m
param *.uav[73].startY 965m
param *.uav[73].startZ 539m
param *.uav[74].startX 312m
param *.uav[74].startY 1262m
param *.uav[74].startZ 540m
param *.uav[75].startX 2185m
param *.uav[75].startY 3026m
param *.uav[75].startZ 778m
param *.uav[76].startX 3537m
param *.uav[76].startY 965m
param *.uav[76].startZ 539m
param *.uav[77].startX 312m
param *.uav[77].startY 1262m
param *.uav[77].startZ 540m
param *.uav[78].startX 2185m
param *.uav[78].startY 3026m
param *.uav[78].startZ 778m
param *.uav[79].startX 3537m
param *.uav[79].startY 965m
param *.uav[79].startZ 539m
param *.uav[80].startX 3537m
param *.uav[80].startY 965m
param *.uav[80].startZ 539m
param *.uav[81].startX 312m
param *.uav[81].startY 1262m
param *.uav[81].startZ 540m
param *.uav[82].startX 2185m
param *.uav[82].startY 3026m
param *.uav[82].startZ 778m
param *.uav[83].startX 3537m
param *.uav[83].startY 965m
param *.uav[83].startZ 539m
param *.uav[84].startX 312m
param *.uav[84].startY 1262m
param *.uav[84].startZ 540m
param *.uav[85].startX 2185m
param *.uav[85].startY 3026m
param *.uav[85].startZ 778m
param *.uav[86].startX 3537m
param *.uav[86].startY 965m
param *.uav[86].startZ 539m
param *.uav[87].startX 312m
param *.uav[87].startY 1262m
param *.uav[87].startZ 540m
param *.uav[88].startX 2185m
param *.uav[88].startY 3026m
param *.uav[88].startZ 778m
param *.uav[89].startX 3537m
param *.uav[89].startY 965m
param *.uav[89].startZ 539m
param *.uav[90].startX 3537m
param *.uav[90].startY 965m
param *.uav[90].startZ 539m
param *.uav[91].startX 312m
param *.uav[91].startY 1262m
param *.uav[91].startZ 540m
param *.uav[92].startX 2185m
param *.uav[92].startY 3026m
param *.uav[92].startZ 778m
param *.uav[93].startX 3537m
param *.uav[93].startY 965m
param *.uav[93].startZ 539m
param *.uav[94].startX 312m
param *.uav[94].startY 1262m
param *.uav[94].startZ 540m
param *.uav[95].startX 2185m
param *.uav[95].startY 3026m
param *.uav[95].startZ 778m
param *.uav[96].startX 3537m
param *.uav[96].startY 965m
param *.uav[96].startZ 539m
param *.uav[97].startX 312m
param *.uav[97].startY 1262m
param *.uav[97].startZ 540m
param *.uav[98].startX 2185m
param *.uav[98].startY 3026m
param *.uav[98].startZ 778m
param *.uav[99].startX 3537m
param *.uav[99].startY 965m
param *.uav[99].startZ 539m
param *.osgEarthScene.scene "\"boston.earth\""
param *.playgroundLatitude 42.3558
param *.playgroundLongitude -71.0677
param *.playgroundWidth 400m
param *.playgroundHeight 200m
param *.channelController.connectionColor "\"#0000FF40\""
param *.channelController.showConnections false
param *.uav[*].modelURL "\"quadrocopter.small.obj.15.scale.0,0,90.rot\""
param *.uav[*].labelColor "\"#FF7C00CC\""
param *.uav[*].label2Color "\"#FF7C00EE\""
param *.uav[*].batteryCapacity 5200mAh
param *.uav[*].batteryRemaining uav[index].batteryCapacity
param *.uav[*].predictionQuantile 0.95
param *.uav[*].replacementMethod 2
param *.uav[*].weightedSumWeight 0.5
param *.cs[*].modelURL "\"chargingstation_v1.osgt.2.scale.0,0,0.rot.0,0,-15e-1.trans\""
param *.cs[*].spotsWaiting 999
param *.cs[*].spotsCharging 999
param *.cs[*].chargeEffectivenessPercentage 100
param *.cs[*].nonLinearPhaseStartPercentage 85
param *.cs[*].chargeCurrent 6.0A
param *.cs[*].prioritizeFastCharge true
param *.missionControl.replacementSearchMethod 0
param *.*.timeStep 9s

scalar OsgEarthNet.uav[0] utilizationSecMission 1521.2503051606
scalar OsgEarthNet.uav[0] utilizationSecMaintenance 396.10231423291
scalar OsgEarthNet.uav[0] utilizationSecCharge 7000
scalar OsgEarthNet.uav[0] utilizationSecIdle 250282.64638061
scalar OsgEarthNet.uav[0] utilizationEnergyMission 7162.6172409058
scalar OsgEarthNet.uav[0] utilizationEnergyMaintenance 1874.1117591858
scalar OsgEarthNet.uav[0] utilizationEnergyCharge 8987.3901367188
scalar OsgEarthNet.uav[0] utilizationEnergyOverdrawMission 0
scalar OsgEarthNet.uav[0] utilizationEnergyOverdrawMaintenance 0
scalar OsgEarthNet.uav[0] utilizationCountMissions 2
scalar OsgEarthNet.uav[0] utilizationCountManeuversMission 24
scalar OsgEarthNet.uav[0] utilizationCountManeuversMaintenance 4
scalar OsgEarthNet.uav[0] utilizationCountChargeState 2
scalar OsgEarthNet.uav[0] utilizationCountOverdrawnAfterMission 0
scalar OsgEarthNet.uav[0] utilizationCountIdleState 3
scalar OsgEarthNet.uav[0] utilizationFail 0
scalar OsgEarthNet.uav[0] simulationTime 259200
scalar OsgEarthNet.uav[1] utilizationSecMission 29065.355368299
scalar OsgEarthNet.uav[1] utilizationSecMaintenance 17337.642782576
scalar OsgEarthNet.uav[1] utilizationSecCharge 178134.99084912
scalar OsgEarthNet.uav[1] utilizationSecIdle 34662.01
scalar OsgEarthNet.uav[1] utilizationEnergyMission 141057.43867874
scalar OsgEarthNet.uav[1] utilizationEnergyMaintenance 82369.835102081
scalar OsgEarthNet.uav[1] utilizationEnergyCharge 222067.72070312
scalar OsgEarthNet.uav[1] utilizationEnergyOverdrawMission 0
scalar OsgEarthNet.uav[1] utilizationEnergyOverdrawMaintenance 0
scalar OsgEarthNet.uav[1] utilizationCountMissions 55
scalar OsgEarthNet.uav[1] utilizationCountManeuversMission 877
scalar OsgEarthNet.uav[1] utilizationCountManeuversMaintenance 110
scalar OsgEarthNet.uav[1] utilizationCountChargeState 55
scalar OsgEarthNet.uav[1] utilizationCountOverdrawnAfterMission 0
scalar OsgEarthNet.uav[1] utilizationCountIdleState 55
scalar OsgEarthNet.uav[1] utilizationFail 0
scalar OsgEarthNet.uav[1] simulationTime 259200
scalar OsgEarthNet.uav[2] utilizationSecMission 34758.38260458
scalar OsgEarthNet.uav[2] utilizationSecMaintenance 14459.61139542
scalar OsgEarthNet.uav[2] utilizationSecCharge 181470
scalar OsgEarthNet.uav[2] utilizationSecIdle 28512.005
scalar OsgEarthNet.uav[2] utilizationEnergyMission 167991.24505339
scalar OsgEarthNet.uav[2] utilizationEnergyMaintenance 67391.062606812
scalar OsgEarthNet.uav[2] utilizationEnergyCharge 235089.72998047
scalar OsgEarthNet.uav[2] utilizationEnergyOverdrawMission 0
scalar OsgEarthNet.uav[2] utilizationEnergyOverdrawMaintenance 0
scalar OsgEarthNet.uav[2] utilizationCountMissions 51
scalar OsgEarthNet.uav[2] utilizationCountManeuversMission 1120
scalar OsgEarthNet.uav[2] utilizationCountManeuversMaintenance 103
scalar OsgEarthNet.uav[2] utilizationCountChargeState 51
scalar OsgEarthNet.uav[2] utilizationCountOverdrawnAfterMission 0
scalar OsgEarthNet.uav[2] utilizationCountIdleState 52
scalar OsgEarthNet.uav[2] utilizationFail 0
scalar OsgEarthNet.uav[2] simulationTime 259200
scalar OsgEarthNet.uav[3] utilizationSecMission 420
scalar OsgEarthNet.uav[3] utilizationSecMaintenance 447.1303002674
scalar OsgEarthNet.uav[3] utilizationSecCharge 3400
scalar OsgEarthNet.uav[3] utilizationSecIdle 254932.86869973
scalar OsgEarthNet.uav[3] utilizationEnergyMission 2093.5487709045
scalar OsgEarthNet.uav[3] utilizationEnergyMaintenance 2177.9231681824
scalar OsgEarthNet.uav[3] utilizationEnergyCharge 4323.59375
scalar OsgEarthNet.uav[3] utilizationEnergyOverdrawMission 0
scalar OsgEarthNet.uav[3] utilizationEnergyOverdrawMaintenance 0
scalar OsgEarthNet.uav[3] utilizationCountMissions 1
scalar OsgEarthNet.uav[3] utilizationCountManeuversMission 21
scalar OsgEarthNet.uav[3] utilizationCountManeuversMaintenance 2
scalar OsgEarthNet.uav[3] utilizationCountChargeState 1
scalar OsgEarthNet.uav[3] utilizationCountOverdrawnAfterMission 0
scalar OsgEarthNet.uav[3] utilizationCountIdleState 2
scalar OsgEarthNet.uav[3] utilizationFail 0
scalar OsgEarthNet.uav[3] simulationTime 259200
scalar OsgEarthNet.uav[4] utilizationSecMission 30230.443566052
scalar OsgEarthNet.uav[4] utilizationSecMaintenance 15613.183063646
scalar OsgEarthNet.uav[4] utilizationSecCharge 176600
scalar OsgEarthNet.uav[4] utilizationSecIdle 36756.372370302
scalar OsgEarthNet.uav[4] utilizationEnergyMission 143148.57135773
scalar OsgEarthNet.uav[4] utilizationEnergyMaintenance 74230.033015369
scalar OsgEarthNet.uav[4] utilizationEnergyCharge 217318.03955078
scalar OsgEarthNet.uav[4] utilizationEnergyOverdrawMission 0
scalar OsgEarthNet.uav[4] utilizationEnergyOverdrawMaintenance 0
scalar OsgEarthNet.uav[4] utilizationCountMissions 56
scalar OsgEarthNet.uav[4] utilizationCountManeuversMission 675
scalar OsgEarthNet.uav[4] utilizationCountManeuversMaintenance 113
scalar OsgEarthNet.uav[4] utilizationCountChargeState 56
scalar OsgEarthNet.uav[4] utilizationCountOverdrawnAfterMission 0
scalar OsgEarthNet.uav[4] utilizationCountIdleState 56
scalar OsgEarthNet.uav[4] utilizationFail 0
scalar OsgEarthNet.uav[4] simulationTime 259200
scalar OsgEarthNet.uav[5] utilizationSecMission 35723.920331401
scalar OsgEarthNet.uav[5] utilizationSecMaintenance 14469.591133373
scalar OsgEarthNet.uav[5] utilizationSecCharge 184564.48653523
scalar OsgEarthNet.uav[5] utilizationSecIdle 24442.001
scalar OsgEarthNet.uav[5] utilizationEnergyMission 175363.60297394
scalar OsgEarthNet.uav[5] utilizationEnergyMaintenance 66679.646087646
scalar OsgEarthNet.uav[5] utilizationEnergyCharge 240574.63671875
scalar OsgEarthNet.uav[5] utilizationEnergyOverdrawMission 0
scalar OsgEarthNet.uav[5] utilizationEnergyOverdrawMaintenance 0
scalar OsgEarthNet.uav[5] utilizationCountMissions 52
scalar OsgEarthNet.uav[5] utilizationCountManeuversMission 1135
scalar OsgEarthNet.uav[5] utilizationCountManeuversMaintenance 104
scalar OsgEarthNet.uav[5] utilizationCountChargeState 52
scalar OsgEarthNet.uav[5] utilizationCountOverdrawnAfterMission 0
scalar OsgEarthNet.uav[5] utilizationCountIdleState 51
scalar OsgEarthNet.uav[5] utilizationFail 0
scalar OsgEarthNet.uav[5] simulationTime 259200
scalar OsgEarthNet.uav[6] utilizationSecMission 35877.281392395
scalar OsgEarthNet.uav[6] utilizationSecMaintenance 13730.026417592
scalar OsgEarthNet.uav[6] utilizationSecCharge 179053.98622496
scalar OsgEarthNet.uav[6] utilizationSecIdle 30538.704965049
scalar OsgEarthNet.uav[6] utilizationEnergyMission 171515.26758575
scalar OsgEarthNet.uav[6] utilizationEnergyMaintenance 64765.766147614
scalar OsgEarthNet.uav[6] utilizationEnergyCharge 232264.83227539
scalar OsgEarthNet.uav[6] utilizationEnergyOverdrawMission 0
scalar OsgEarthNet.uav[6] utilizationEnergyOverdrawMaintenance 0
scalar OsgEarthNet.uav[6] utilizationCountMissions 51
scalar OsgEarthNet.uav[6] utilizationCountManeuversMission 1043
scalar OsgEarthNet.uav[6] utilizationCountManeuversMaintenance 102
scalar OsgEarthNet.uav[6] utilizationCountChargeState 51
scalar OsgEarthNet.uav[6] utilizationCountOverdrawnAfterMission 0
scalar OsgEarthNet.uav[6] utilizationCountIdleState 50
scalar OsgEarthNet.uav[6] utilizationFail 0
scalar OsgEarthNet.uav[6] simulationTime 259200
scalar OsgEarthNet.uav[7] utilizationSecMission 29380.062363496
scalar OsgEarthNet.uav[7] utilizationSecMaintenance 18167.932636504
scalar OsgEarthNet.uav[7] utilizationSecCharge 181420
scalar OsgEarthNet.uav[7] utilizationSecIdle 30232.004
scalar OsgEarthNet.uav[7] utilizationEnergyMission 144036.10023235
scalar OsgEarthNet.uav[7] utilizationEnergyMaintenance 86050.888843536
scalar OsgEarthNet.uav[7] utilizationEnergyCharge 227871.49023438
scalar OsgEarthNet.uav[7] utilizationEnergyOverdrawMission 0
scalar OsgEarthNet.uav[7] utilizationEnergyOverdrawMaintenance 0
scalar OsgEarthNet.uav[7] utilizationCountMissions 55
scalar OsgEarthNet.uav[7] utilizationCountManeuversMission 967
scalar OsgEarthNet.uav[7] utilizationCountManeuversMaintenance 111
scalar OsgEarthNet.uav[7] utilizationCountChargeState 55
scalar OsgEarthNet.uav[7] utilizationCountOverdrawnAfterMission 0
scalar OsgEarthNet.uav[7] utilizationCountIdleState 56
scalar OsgEarthNet.uav[7] utilizationFail 0
scalar OsgEarthNet.uav[7] simulationTime 259200
scalar OsgEarthNet.uav[8] utilizationSecMission 35734.736201296
scalar OsgEarthNet.uav[8] utilizationSecMaintenance 14481.661059374
scalar OsgEarthNet.uav[8] utilizationSecCharge 184700
scalar OsgEarthNet.uav[8] utilizationSecIdle 24283.60173933
scalar OsgEarthNet.uav[8] utilizationEnergyMission 174712.18565369
scalar OsgEarthNet.uav[8] utilizationEnergyMaintenance 66223.951656342
scalar OsgEarthNet.uav[8] utilizationEnergyCharge 240428.30371094
scalar OsgEarthNet.uav[8] utilizationEnergyOverdrawMission 0
scalar OsgEarthNet.uav[8] utilizationEnergyOverdrawMaintenance 0
scalar OsgEarthNet.uav[8] utilizationCountMissions 52
scalar OsgEarthNet.uav[8] utilizationCountManeuversMission 1170
scalar OsgEarthNet.uav[8] utilizationCountManeuversMaintenance 104
scalar OsgEarthNet.uav[8] utilizationCountChargeState 52
scalar OsgEarthNet.uav[8] utilizationCountOverdrawnAfterMission 0
scalar OsgEarthNet.uav[8] utilizationCountIdleState 52
scalar OsgEarthNet.uav[8] utilizationFail 0
scalar OsgEarthNet.uav[8] simulationTime 259200
scalar OsgEarthNet.uav[9] utilizationSecMission 6914.0089542322
scalar OsgEarthNet.uav[9] utilizationSecMaintenance 3624.9844346336
scalar OsgEarthNet.uav[9] utilizationSecCharge 38610
scalar OsgEarthNet.uav[9] utilizationSecIdle 210051.00561113
scalar OsgEarthNet.uav[9] utilizationEnergyMission 32545.190700531
scalar OsgEarthNet.uav[9] utilizationEnergyMaintenance 17165.687351227
scalar OsgEarthNet.uav[9] utilizationEnergyCharge 49680.684082031
scalar OsgEarthNet.uav[9] utilizationEnergyOverdrawMission 0
scalar OsgEarthNet.uav[9] utilizationEnergyOverdrawMaintenance 0
scalar OsgEarthNet.uav[9] utilizationCountMissions 11
scalar OsgEarthNet.uav[9] utilizationCountManeuversMission 185
scalar OsgEarthNet.uav[9] utilizationCountManeuversMaintenance 22
scalar OsgEarthNet.uav[9] utilizationCountChargeState 11
scalar OsgEarthNet.uav[9] utilizationCountOverdrawnAfterMission 0
scalar OsgEarthNet.uav[9] utilizationCountIdleState 12
scalar OsgEarthNet.uav[9] utilizationFail 0
scalar OsgEarthNet.uav[9] simulationTime 259200
scalar OsgEarthNet.uav[10] utilizationSecMission 15497.868944793
scalar OsgEarthNet.uav[10] utilizationSecMaintenance 8262.8613150207
scalar OsgEarthNet.uav[10] utilizationSecCharge 87410
scalar OsgEarthNet.uav[10] utilizationSecIdle 148029.26874019
scalar OsgEarthNet.uav[10] utilizationEnergyMission 73386.296356201
scalar OsgEarthNet.uav[10] utilizationEnergyMaintenance 38703.69562912
scalar OsgEarthNet.uav[10] utilizationEnergyCharge 112271.95947266
scalar OsgEarthNet.uav[10] utilizationEnergyOverdrawMission 0
scalar OsgEarthNet.uav[10] utilizationEnergyOverdrawMaintenance 0
scalar OsgEarthNet.uav[10] utilizationCountMissions 25
scalar OsgEarthNet.uav[10] utilizationCountManeuversMission 441
scalar OsgEarthNet.uav[10] utilizationCountManeuversMaintenance 50
scalar OsgEarthNet.uav[10] utilizationCountChargeState 25
scalar OsgEarthNet.uav[10] utilizationCountOverdrawnAfterMission 0
scalar OsgEarthNet.uav[10] utilizationCountIdleState 26
scalar OsgEarthNet.uav[10] utilizationFail 0
scalar OsgEarthNet.uav[10] simulationTime 259200
scalar OsgEarthNet.uav[11] utilizationSecMission 29029.482356374
scalar OsgEarthNet.uav[11] utilizationSecMaintenance 17955.925367598
scalar OsgEarthNet.uav[11] utilizationSecCharge 180949.97938651
scalar OsgEarthNet.uav[11] utilizationSecIdle 31264.611889516
scalar OsgEarthNet.uav[11] utilizationEnergyMission 142921.87009048
scalar OsgEarthNet.uav[11] utilizationEnergyMaintenance 85518.174541473
scalar OsgEarthNet.uav[11] utilizationEnergyCharge 226875.50561523
scalar OsgEarthNet.uav[11] utilizationEnergyOverdrawMission 0
scalar OsgEarthNet.uav[11] utilizationEnergyOverdrawMaintenance 0
scalar OsgEarthNet.uav[11] utilizationCountMissions 56
scalar OsgEarthNet.uav[11] utilizationCountManeuversMission 944
scalar OsgEarthNet.uav[11] utilizationCountManeuversMaintenance 112
scalar OsgEarthNet.uav[11] utilizationCountChargeState 56
scalar OsgEarthNet.uav[11] utilizationCountOverdrawnAfterMission 0
scalar OsgEarthNet.uav[11] utilizationCountIdleState 56
scalar OsgEarthNet.uav[11] utilizationFail 0
scalar OsgEarthNet.uav[11] simulationTime 259200
scalar OsgEarthNet.uav[12] utilizationSecMission 33794.183781999
scalar OsgEarthNet.uav[12] utilizationSecMaintenance 16000.318498085
scalar OsgEarthNet.uav[12] utilizationSecCharge 183475.86563925
scalar OsgEarthNet.uav[12] utilizationSecIdle 25929.631080665
scalar OsgEarthNet.uav[12] utilizationEnergyMission 164657.2170639
scalar OsgEarthNet.uav[12] utilizationEnergyMaintenance 74384.116481781
scalar OsgEarthNet.uav[12] utilizationEnergyCharge 237175.63421631
scalar OsgEarthNet.uav[12] utilizationEnergyOverdrawMission 0
scalar OsgEarthNet.uav[12] utilizationEnergyOverdrawMaintenance 0
scalar OsgEarthNet.uav[12] utilizationCountMissions 53
scalar OsgEarthNet.uav[12] utilizationCountManeuversMission 1254
scalar OsgEarthNet.uav[12] utilizationCountManeuversMaintenance 106
scalar OsgEarthNet.uav[12] utilizationCountChargeState 53
scalar OsgEarthNet.uav[12] utilizationCountOverdrawnAfterMission 0
scalar OsgEarthNet.uav[12] utilizationCountIdleState 52
scalar OsgEarthNet.uav[12] utilizationFail 0
scalar OsgEarthNet.uav[12] simulationTime 259200
scalar OsgEarthNet.uav[13] utilizationSecMission 12154.008954232
scalar OsgEarthNet.uav[13] utilizationSecMaintenance 8546.73342998
scalar OsgEarthNet.uav[13] utilizationSecCharge 77510
scalar OsgEarthNet.uav[13] utilizationSecIdle 160989.25661579
scalar OsgEarthNet.uav[13] utilizationEnergyMission 58651.577129364
scalar OsgEarthNet.uav[13] utilizationEnergyMaintenance 40372.921394348
scalar OsgEarthNet.uav[13] utilizationEnergyCharge 99976.159667969
scalar OsgEarthNet.uav[13] utilizationEnergyOverdrawMission 0
scalar OsgEarthNet.uav[13] utilizationEnergyOverdrawMaintenance 0
scalar OsgEarthNet.uav[13] utilizationCountMissions 22
scalar OsgEarthNet.uav[13] utilizationCountManeuversMission 447
scalar OsgEarthNet.uav[13] utilizationCountManeuversMaintenance 44
scalar OsgEarthNet.uav[13] utilizationCountChargeState 22
scalar OsgEarthNet.uav[13] utilizationCountOverdrawnAfterMission 0
scalar OsgEarthNet.uav[13] utilizationCountIdleState 23
scalar OsgEarthNet.uav[13] utilizationFail 0
scalar OsgEarthNet.uav[13] simulationTime 259200
scalar OsgEarthNet.uav[14] utilizationSecMission 31694.127345098
scalar OsgEarthNet.uav[14] utilizationSecMaintenance 16544.36429684
scalar OsgEarthNet.uav[14] utilizationSecCharge 180059.50735806
scalar OsgEarthNet.uav[14] utilizationSecIdle 30902
scalar OsgEarthNet.uav[14] utilizationEnergyMission 149898.06590652
scalar OsgEarthNet.uav[14] utilizationEnergyMaintenance 79013.13123703
scalar OsgEarthNet.uav[14] utilizationEnergyCharge 223724.59155273
scalar OsgEarthNet.uav[14] utilizationEnergyOverdrawMission 0
scalar OsgEarthNet.uav[14] utilizationEnergyOverdrawMaintenance 0
scalar OsgEarthNet.uav[14] utilizationCountMissions 57
scalar OsgEarthNet.uav[14] utilizationCountManeuversMission 792
scalar OsgEarthNet.uav[14] utilizationCountManeuversMaintenance 114
scalar OsgEarthNet.uav[14] utilizationCountChargeState 57
scalar OsgEarthNet.uav[14] utilizationCountOverdrawnAfterMission 0
scalar OsgEarthNet.uav[14] utilizationCountIdleState 57
scalar OsgEarthNet.uav[14] utilizationFail 0
scalar OsgEarthNet.uav[14] simulationTime 259200
scalar OsgEarthNet.uav[15] utilizationSecMission 36770.491372104
scalar OsgEarthNet.uav[15] utilizationSecMaintenance 13180.05750174
scalar OsgEarthNet.uav[15] utilizationSecCharge 179507.44612616
scalar OsgEarthNet.uav[15] utilizationSecIdle 29742.004
scalar OsgEarthNet.uav[15] utilizationEnergyMission 175358.60393524
scalar OsgEarthNet.uav[15] utilizationEnergyMaintenance 60249.271198273
scalar OsgEarthNet.uav[15] utilizationEnergyCharge 233262.44116211
scalar OsgEarthNet.uav[15] utilizationEnergyOverdrawMission 0
scalar OsgEarthNet.uav[15] utilizationEnergyOverdrawMaintenance 0
scalar OsgEarthNet.uav[15] utilizationCountMissions 51
scalar OsgEarthNet.uav[15] utilizationCountManeuversMission 972
scalar OsgEarthNet.uav[15] utilizationCountManeuversMaintenance 102
scalar OsgEarthNet.uav[15] utilizationCountChargeState 51
scalar OsgEarthNet.uav[15] utilizationCountOverdrawnAfterMission 0
scalar OsgEarthNet.uav[15] utilizationCountIdleState 51
scalar OsgEarthNet.uav[15] utilizationFail 0
scalar OsgEarthNet.uav[15] simulationTime 259200
scalar OsgEarthNet.uav[16] utilizationSecMission 11994.634106813
scalar OsgEarthNet.uav[16] utilizationSecMaintenance 7757.688864448
scalar OsgEarthNet.uav[16] utilizationSecCharge 72235.66302874
scalar OsgEarthNet.uav[16] utilizationSecIdle 167212.013
scalar OsgEarthNet.uav[16] utilizationEnergyMission 58116.671634674
scalar OsgEarthNet.uav[16] utilizationEnergyMaintenance 36910.886898041
scalar OsgEarthNet.uav[16] utilizationEnergyCharge 93584.518554688
scalar OsgEarthNet.uav[16] utilizationEnergyOverdrawMission 0
scalar OsgEarthNet.uav[16] utilizationEnergyOverdrawMaintenance 0
scalar OsgEarthNet.uav[16] utilizationCountMissions 21
scalar OsgEarthNet.uav[16] utilizationCountManeuversMission 413
scalar OsgEarthNet.uav[16] utilizationCountManeuversMaintenance 42
scalar OsgEarthNet.uav[16] utilizationCountChargeState 21
scalar OsgEarthNet.uav[16] utilizationCountOverdrawnAfterMission 0
scalar OsgEarthNet.uav[16] utilizationCountIdleState 21
scalar OsgEarthNet.uav[16] utilizationFail 0
scalar OsgEarthNet.uav[16] simulationTime 259200
scalar OsgEarthNet.uav[17] utilizationSecMission 29341.376324681
scalar OsgEarthNet.uav[17] utilizationSecMaintenance 17927.324236018
scalar OsgEarthNet.uav[17] utilizationSecCharge 182650
scalar OsgEarthNet.uav[17] utilizationSecIdle 29281.298439301
scalar OsgEarthNet.uav[17] utilizationEnergyMission 143900.20760727
scalar OsgEarthNet.uav[17] utilizationEnergyMaintenance 85565.338157654
scalar OsgEarthNet.uav[17] utilizationEnergyCharge 227981.68945312
scalar OsgEarthNet.uav[17] utilizationEnergyOverdrawMission 0
scalar OsgEarthNet.uav[17] utilizationEnergyOverdrawMaintenance 0
scalar OsgEarthNet.uav[17] utilizationCountMissions 56
scalar OsgEarthNet.uav[17] utilizationCountManeuversMission 937
scalar OsgEarthNet.uav[17] utilizationCountManeuversMaintenance 112
scalar OsgEarthNet.uav[17] utilizationCountChargeState 56
scalar OsgEarthNet.uav[17] utilizationCountOverdrawnAfterMission 0
scalar OsgEarthNet.uav[17] utilizationCountIdleState 57
scalar OsgEarthNet.uav[17] utilizationFail 0
scalar OsgEarthNet.uav[17] simulationTime 259200
scalar OsgEarthNet.uav[18] utilizationSecMission 36873.730670733
scalar OsgEarthNet.uav[18] utilizationSecMaintenance 12990.711671127
scalar OsgEarthNet.uav[18] utilizationSecCharge 180552.03132691
scalar OsgEarthNet.uav[18] utilizationSecIdle 28783.525331232
scalar OsgEarthNet.uav[18] utilizationEnergyMission 178756.57964325
scalar OsgEarthNet.uav[18] utilizationEnergyMaintenance 60117.908527374
scalar OsgEarthNet.uav[18] utilizationEnergyCharge 235022.74230957
scalar OsgEarthNet.uav[18] utilizationEnergyOverdrawMission 0
scalar OsgEarthNet.uav[18] utilizationEnergyOverdrawMaintenance 0
scalar OsgEarthNet.uav[18] utilizationCountMissions 51
scalar OsgEarthNet.uav[18] utilizationCountManeuversMission 1039
scalar OsgEarthNet.uav[18] utilizationCountManeuversMaintenance 102
scalar OsgEarthNet.uav[18] utilizationCountChargeState 51
scalar OsgEarthNet.uav[18] utilizationCountOverdrawnAfterMission 0
scalar OsgEarthNet.uav[18] utilizationCountIdleState 51
scalar OsgEarthNet.uav[18] utilizationFail 0
scalar OsgEarthNet.uav[18] simulationTime 259200
scalar OsgEarthNet.uav[19] utilizationSecMission 10745.001220642
scalar OsgEarthNet.uav[19] utilizationSecMaintenance 6019.5055230055
scalar OsgEarthNet.uav[19] utilizationSecCharge 62550
scalar OsgEarthNet.uav[19] utilizationSecIdle 179885.49225635
scalar OsgEarthNet.uav[19] utilizationEnergyMission 51451.168766022
scalar OsgEarthNet.uav[19] utilizationEnergyMaintenance 28386.126152038
scalar OsgEarthNet.uav[19] utilizationEnergyCharge 80343.242675781
scalar OsgEarthNet.uav[19] utilizationEnergyOverdrawMission 0
scalar OsgEarthNet.uav[19] utilizationEnergyOverdrawMaintenance 0
scalar OsgEarthNet.uav[19] utilizationCountMissions 18
scalar OsgEarthNet.uav[19] utilizationCountManeuversMission 329
scalar OsgEarthNet.uav[19] utilizationCountManeuversMaintenance 36
scalar OsgEarthNet.uav[19] utilizationCountChargeState 18
scalar OsgEarthNet.uav[19] utilizationCountOverdrawnAfterMission 0
scalar OsgEarthNet.uav[19] utilizationCountIdleState 19
scalar OsgEarthNet.uav[19] utilizationFail 0
scalar OsgEarthNet.uav[19] simulationTime 259200
scalar OsgEarthNet.uav[20] utilizationSecMission 12363.750915482
scalar OsgEarthNet.uav[20] utilizationSecMaintenance 8939.8898346185
scalar OsgEarthNet.uav[20] utilizationSecCharge 81290
scalar OsgEarthNet.uav[20] utilizationSecIdle 156606.3582499
scalar OsgEarthNet.uav[20] utilizationEnergyMission 60153.474357605
scalar OsgEarthNet.uav[20] utilizationEnergyMaintenance 43060.22725296
scalar OsgEarthNet.uav[20] utilizationEnergyCharge 104850.7578125
scalar OsgEarthNet.uav[20] utilizationEnergyOverdrawMission 0
scalar OsgEarthNet.uav[20] utilizationEnergyOverdrawMaintenance 0
scalar OsgEarthNet.uav[20] utilizationCountMissions 23
scalar OsgEarthNet.uav[20] utilizationCountManeuversMission 462
scalar OsgEarthNet.uav[20] utilizationCountManeuversMaintenance 46
scalar OsgEarthNet.uav[20] utilizationCountChargeState 23
scalar OsgEarthNet.uav[20] utilizationCountOverdrawnAfterMission 0
scalar OsgEarthNet.uav[20] utilizationCountIdleState 24
scalar OsgEarthNet.uav[20] utilizationFail 0
scalar OsgEarthNet.uav[20] simulationTime 259200
scalar OsgEarthNet.uav[21] utilizationSecMission 32267.44088587
scalar OsgEarthNet.uav[21] utilizationSecMaintenance 15733.916031625
scalar OsgEarthNet.uav[21] utilizationSecCharge 178086.63408251
scalar OsgEarthNet.uav[21] utilizationSecIdle 33112.008
scalar OsgEarthNet.uav[21] utilizationEnergyMission 152093.96596527
scalar OsgEarthNet.uav[21] utilizationEnergyMaintenance 74872.882984161
scalar OsgEarthNet.uav[21] utilizationEnergyCharge 223712.59973145
scalar OsgEarthNet.uav[21] utilizationEnergyOverdrawMission 0
scalar OsgEarthNet.uav[21] utilizationEnergyOverdrawMaintenance 0
scalar OsgEarthNet.uav[21] utilizationCountMissions 55
scalar OsgEarthNet.uav[21] utilizationCountManeuversMission 840
scalar OsgEarthNet.uav[21] utilizationCountManeuversMaintenance 110
scalar OsgEarthNet.uav[21] utilizationCountChargeState 55
scalar OsgEarthNet.uav[21] utilizationCountOverdrawnAfterMission 0
scalar OsgEarthNet.uav[21] utilizationCountIdleState 55
scalar OsgEarthNet.uav[21] utilizationFail 0
scalar OsgEarthNet.uav[21] simulationTime 259200
scalar OsgEarthNet.uav[22] utilizationSecMission 35336.101998238
scalar OsgEarthNet.uav[22] utilizationSecMaintenance 14799.766784182
scalar OsgEarthNet.uav[22] utilizationSecCharge 184134.70487029
scalar OsgEarthNet.uav[22] utilizationSecIdle 24929.42534729
scalar OsgEarthNet.uav[22] utilizationEnergyMission 174694.64751434
scalar OsgEarthNet.uav[22] utilizationEnergyMaintenance 68315.656326294
scalar OsgEarthNet.uav[22] utilizationEnergyCharge 240669.81201172
scalar OsgEarthNet.uav[22] utilizationEnergyOverdrawMission 0
scalar OsgEarthNet.uav[22] utilizationEnergyOverdrawMaintenance 0
scalar OsgEarthNet.uav[22] utilizationCountMissions 52
scalar OsgEarthNet.uav[22] utilizationCountManeuversMission 1227
scalar OsgEarthNet.uav[22] utilizationCountManeuversMaintenance 104
scalar OsgEarthNet.uav[22] utilizationCountChargeState 52
scalar OsgEarthNet.uav[22] utilizationCountOverdrawnAfterMission 0
scalar OsgEarthNet.uav[22] utilizationCountIdleState 51
scalar OsgEarthNet.uav[22] utilizationFail 0
scalar OsgEarthNet.uav[22] simulationTime 259200
scalar OsgEarthNet.uav[23] utilizationSecMission 14125.517298143
scalar OsgEarthNet.uav[23] utilizationSecMaintenance 9260.0782553755
scalar OsgEarthNet.uav[23] utilizationSecCharge 87502.392446481
scalar OsgEarthNet.uav[23] utilizationSecIdle 148312.011
scalar OsgEarthNet.uav[23] utilizationEnergyMission 69101.211612701
scalar OsgEarthNet.uav[23] utilizationEnergyMaintenance 43991.430034637
scalar OsgEarthNet.uav[23] utilizationEnergyCharge 113442.56347656
scalar OsgEarthNet.uav[23] utilizationEnergyOverdrawMission 0
scalar OsgEarthNet.uav[23] utilizationEnergyOverdrawMaintenance 0
scalar OsgEarthNet.uav[23] utilizationCountMissions 25
scalar OsgEarthNet.uav[23] utilizationCountManeuversMission 489
scalar OsgEarthNet.uav[23] utilizationCountManeuversMaintenance 50
scalar OsgEarthNet.uav[23] utilizationCountChargeState 25
scalar OsgEarthNet.uav[23] utilizationCountOverdrawnAfterMission 0
scalar OsgEarthNet.uav[23] utilizationCountIdleState 25
scalar OsgEarthNet.uav[23] utilizationFail 0
scalar OsgEarthNet.uav[23] simulationTime 259200
scalar OsgEarthNet.uav[24] utilizationSecMission 31299.34903176
scalar OsgEarthNet.uav[24] utilizationSecMaintenance 16672.14058366
scalar OsgEarthNet.uav[24] utilizationSecCharge 181607.54539891
scalar OsgEarthNet.uav[24] utilizationSecIdle 29620.963985674
scalar OsgEarthNet.uav[24] utilizationEnergyMission 149723.20122147
scalar OsgEarthNet.uav[24] utilizationEnergyMaintenance 79359.337535858
scalar OsgEarthNet.uav[24] utilizationEnergyCharge 229229.82324219
scalar OsgEarthNet.uav[24] utilizationEnergyOverdrawMission 0
scalar OsgEarthNet.uav[24] utilizationEnergyOverdrawMaintenance 0
scalar OsgEarthNet.uav[24] utilizationCountMissions 55
scalar OsgEarthNet.uav[24] utilizationCountManeuversMission 902
scalar OsgEarthNet.uav[24] utilizationCountManeuversMaintenance 110
scalar OsgEarthNet.uav[24] utilizationCountChargeState 55
scalar OsgEarthNet.uav[24] utilizationCountOverdrawnAfterMission 0
scalar OsgEarthNet.uav[24] utilizationCountIdleState 55
scalar OsgEarthNet.uav[24] utilizationFail 0
scalar OsgEarthNet.uav[24] simulationTime 259200
scalar OsgEarthNet.uav[25] utilizationSecMission 34718.390735388
scalar OsgEarthNet.uav[25] utilizationSecMaintenance 15510.155305895
scalar OsgEarthNet.uav[25] utilizationSecCharge 185100
scalar OsgEarthNet.uav[25] utilizationSecIdle 23871.452958717
scalar OsgEarthNet.uav[25] utilizationEnergyMission 169557.36349077
scalar OsgEarthNet.uav[25] utilizationEnergyMaintenance 71022.978115082
scalar OsgEarthNet.uav[25] utilizationEnergyCharge 240364.53320312
scalar OsgEarthNet.uav[25] utilizationEnergyOverdrawMission 0
scalar OsgEarthNet.uav[25] utilizationEnergyOverdrawMaintenance 0
scalar OsgEarthNet.uav[25] utilizationCountMissions 52
scalar OsgEarthNet.uav[25] utilizationCountManeuversMission 1221
scalar OsgEarthNet.uav[25] utilizationCountManeuversMaintenance 105
scalar OsgEarthNet.uav[25] utilizationCountChargeState 52
scalar OsgEarthNet.uav[25] utilizationCountOverdrawnAfterMission 0
scalar OsgEarthNet.uav[25] utilizationCountIdleState 51
scalar OsgEarthNet.uav[25] utilizationFail 0
scalar OsgEarthNet.uav[25] simulationTime 259200
scalar OsgEarthNet.uav[26] utilizationSecMission 12786.251525803
scalar OsgEarthNet.uav[26] utilizationSecMaintenance 7212.8102785464
scalar OsgEarthNet.uav[26] utilizationSecCharge 72357.545078117
scalar OsgEarthNet.uav[26] utilizationSecIdle 166843.39211753
scalar OsgEarthNet.uav[26] utilizationEnergyMission 61548.732093811
scalar OsgEarthNet.uav[26] utilizationEnergyMaintenance 34003.353096008
scalar OsgEarthNet.uav[26] utilizationEnergyCharge 94001.5
scalar OsgEarthNet.uav[26] utilizationEnergyOverdrawMission 0
scalar OsgEarthNet.uav[26] utilizationEnergyOverdrawMaintenance 0
scalar OsgEarthNet.uav[26] utilizationCountMissions 21
scalar OsgEarthNet.uav[26] utilizationCountManeuversMission 379
scalar OsgEarthNet.uav[26] utilizationCountManeuversMaintenance 42
scalar OsgEarthNet.uav[26] utilizationCountChargeState 21
scalar OsgEarthNet.uav[26] utilizationCountOverdrawnAfterMission 0
scalar OsgEarthNet.uav[26] utilizationCountIdleState 21
scalar OsgEarthNet.uav[26] utilizationFail 0
scalar OsgEarthNet.uav[26] simulationTime 259200
scalar OsgEarthNet.uav[27] utilizationSecMission 31197.777246973
scalar OsgEarthNet.uav[27] utilizationSecMaintenance 16378.630631162
scalar OsgEarthNet.uav[27] utilizationSecCharge 181820
scalar OsgEarthNet.uav[27] utilizationSecIdle 29803.591121865
scalar OsgEarthNet.uav[27] utilizationEnergyMission 149384.18185425
scalar OsgEarthNet.uav[27] utilizationEnergyMaintenance 78141.449962616
scalar OsgEarthNet.uav[27] utilizationEnergyCharge 226942.85864258
scalar OsgEarthNet.uav[27] utilizationEnergyOverdrawMission 0
scalar OsgEarthNet.uav[27] utilizationEnergyOverdrawMaintenance 0
scalar OsgEarthNet.uav[27] utilizationCountMissions 56
scalar OsgEarthNet.uav[27] utilizationCountManeuversMission 797
scalar OsgEarthNet.uav[27] utilizationCountManeuversMaintenance 112
scalar OsgEarthNet.uav[27] utilizationCountChargeState 56
scalar OsgEarthNet.uav[27] utilizationCountOverdrawnAfterMission 0
scalar OsgEarthNet.uav[27] utilizationCountIdleState 56
scalar OsgEarthNet.uav[27] utilizationFail 0
scalar OsgEarthNet.uav[27] simulationTime 259200
scalar OsgEarthNet.uav[28] utilizationSecMission 37399.734692176
scalar OsgEarthNet.uav[28] utilizationSecMaintenance 13340.602788834
scalar OsgEarthNet.uav[28] utilizationSecCharge 182217.65951899
scalar OsgEarthNet.uav[28] utilizationSecIdle 26242.002
scalar OsgEarthNet.uav[28] utilizationEnergyMission 180197.99491501
scalar OsgEarthNet.uav[28] utilizationEnergyMaintenance 61646.754699707
scalar OsgEarthNet.uav[28] utilizationEnergyCharge 237264.63891602
scalar OsgEarthNet.uav[28] utilizationEnergyOverdrawMission 0
scalar OsgEarthNet.uav[28] utilizationEnergyOverdrawMaintenance 0
scalar OsgEarthNet.uav[28] utilizationCountMissions 52
scalar OsgEarthNet.uav[28] utilizationCountManeuversMission 1065
scalar OsgEarthNet.uav[28] utilizationCountManeuversMaintenance 104
scalar OsgEarthNet.uav[28] utilizationCountChargeState 52
scalar OsgEarthNet.uav[28] utilizationCountOverdrawnAfterMission 0
scalar OsgEarthNet.uav[28] utilizationCountIdleState 51
scalar OsgEarthNet.uav[28] utilizationFail 0
scalar OsgEarthNet.uav[28] simulationTime 259200
scalar OsgEarthNet.uav[29] utilizationSecMission 19079.119249954
scalar OsgEarthNet.uav[29] utilizationSecMaintenance 10886.392369542
scalar OsgEarthNet.uav[29] utilizationSecCharge 110662.4853805
scalar OsgEarthNet.uav[29] utilizationSecIdle 118572.002
scalar OsgEarthNet.uav[29] utilizationEnergyMission 92189.895683289
scalar OsgEarthNet.uav[29] utilizationEnergyMaintenance 51904.647277832
scalar OsgEarthNet.uav[29] utilizationEnergyCharge 143143.44580078
scalar OsgEarthNet.uav[29] utilizationEnergyOverdrawMission 0
scalar OsgEarthNet.uav[29] utilizationEnergyOverdrawMaintenance 0
scalar OsgEarthNet.uav[29] utilizationCountMissions 32
scalar OsgEarthNet.uav[29] utilizationCountManeuversMission 568
scalar OsgEarthNet.uav[29] utilizationCountManeuversMaintenance 64
scalar OsgEarthNet.uav[29] utilizationCountChargeState 32
scalar OsgEarthNet.uav[29] utilizationCountOverdrawnAfterMission 0
scalar OsgEarthNet.uav[29] utilizationCountIdleState 32
scalar OsgEarthNet.uav[29] utilizationFail 0
scalar OsgEarthNet.uav[29] simulationTime 259200
scalar OsgEarthNet.uav[30] utilizationSecMission 14805.626373223
scalar OsgEarthNet.uav[30] utilizationSecMaintenance 9529.47978557
scalar OsgEarthNet.uav[30] utilizationSecCharge 90670
scalar OsgEarthNet.uav[30] utilizationSecIdle 144194.89284121
scalar OsgEarthNet.uav[30] utilizationEnergyMission 72678.052761078
scalar OsgEarthNet.uav[30] utilizationEnergyMaintenance 44957.946933746
scalar OsgEarthNet.uav[30] utilizationEnergyCharge 116373.06982422
scalar OsgEarthNet.uav[30] utilizationEnergyOverdrawMission 0
scalar OsgEarthNet.uav[30] utilizationEnergyOverdrawMaintenance 0
scalar OsgEarthNet.uav[30] utilizationCountMissions 26
scalar OsgEarthNet.uav[30] utilizationCountManeuversMission 506
scalar OsgEarthNet.uav[30] utilizationCountManeuversMaintenance 52
scalar OsgEarthNet.uav[30] utilizationCountChargeState 26
scalar OsgEarthNet.uav[30] utilizationCountOverdrawnAfterMission 0
scalar OsgEarthNet.uav[30] utilizationCountIdleState 27
scalar OsgEarthNet.uav[30] utilizationFail 0
scalar OsgEarthNet.uav[30] simulationTime 259200
scalar OsgEarthNet.uav[31] utilizationSecMission 30646.962545533
scalar OsgEarthNet.uav[31] utilizationSecMaintenance 17643.89945406
scalar OsgEarthNet.uav[31] utilizationSecCharge 182737.13100041
scalar OsgEarthNet.uav[31] utilizationSecIdle 28172.006
scalar OsgEarthNet.uav[31] utilizationEnergyMission 147679.09770584
scalar OsgEarthNet.uav[31] utilizationEnergyMaintenance 83552.088348389
scalar OsgEarthNet.uav[31] utilizationEnergyCharge 229887.60925293
scalar OsgEarthNet.uav[31] utilizationEnergyOverdrawMission 0
scalar OsgEarthNet.uav[31] utilizationEnergyOverdrawMaintenance 0
scalar OsgEarthNet.uav[31] utilizationCountMissions 56
scalar OsgEarthNet.uav[31] utilizationCountManeuversMission 915
scalar OsgEarthNet.uav[31] utilizationCountManeuversMaintenance 112
scalar OsgEarthNet.uav[31] utilizationCountChargeState 56
scalar OsgEarthNet.uav[31] utilizationCountOverdrawnAfterMission 0
scalar OsgEarthNet.uav[31] utilizationCountIdleState 56
scalar OsgEarthNet.uav[31] utilizationFail 0
scalar OsgEarthNet.uav[31] simulationTime 259200
scalar OsgEarthNet.uav[32] utilizationSecMission 35399.182272879
scalar OsgEarthNet.uav[32] utilizationSecMaintenance 13846.289235612
scalar OsgEarthNet.uav[32] utilizationSecCharge 180860
scalar OsgEarthNet.uav[32] utilizationSecIdle 29094.527491509
scalar OsgEarthNet.uav[32] utilizationEnergyMission 172322.40471268
scalar OsgEarthNet.uav[32] utilizationEnergyMaintenance 63621.861560822
scalar OsgEarthNet.uav[32] utilizationEnergyCharge 233787.63525391
scalar OsgEarthNet.uav[32] utilizationEnergyOverdrawMission 0
scalar OsgEarthNet.uav[32] utilizationEnergyOverdrawMaintenance 0
scalar OsgEarthNet.uav[32] utilizationCountMissions 51
scalar OsgEarthNet.uav[32] utilizationCountManeuversMission 1146
scalar OsgEarthNet.uav[32] utilizationCountManeuversMaintenance 102
scalar OsgEarthNet.uav[32] utilizationCountChargeState 51
scalar OsgEarthNet.uav[32] utilizationCountOverdrawnAfterMission 0
scalar OsgEarthNet.uav[32] utilizationCountIdleState 52
scalar OsgEarthNet.uav[32] utilizationFail 0
scalar OsgEarthNet.uav[32] simulationTime 259200
scalar OsgEarthNet.uav[33] utilizationSecMission 17248.126983544
scalar OsgEarthNet.uav[33] utilizationSecMaintenance 9854.7928992659
scalar OsgEarthNet.uav[33] utilizationSecCharge 101000
scalar OsgEarthNet.uav[33] utilizationSecIdle 131097.07911719
scalar OsgEarthNet.uav[33] utilizationEnergyMission 83773.763088226
scalar OsgEarthNet.uav[33] utilizationEnergyMaintenance 46906.004432678
scalar OsgEarthNet.uav[33] utilizationEnergyCharge 129628.13525391
scalar OsgEarthNet.uav[33] utilizationEnergyOverdrawMission 0
scalar OsgEarthNet.uav[33] utilizationEnergyOverdrawMaintenance 0
scalar OsgEarthNet.uav[33] utilizationCountMissions 29
scalar OsgEarthNet.uav[33] utilizationCountManeuversMission 524
scalar OsgEarthNet.uav[33] utilizationCountManeuversMaintenance 58
scalar OsgEarthNet.uav[33] utilizationCountChargeState 29
scalar OsgEarthNet.uav[33] utilizationCountOverdrawnAfterMission 0
scalar OsgEarthNet.uav[33] utilizationCountIdleState 30
scalar OsgEarthNet.uav[33] utilizationFail 0
scalar OsgEarthNet.uav[33] simulationTime 259200
scalar OsgEarthNet.uav[34] utilizationSecMission 29935.634128134
scalar OsgEarthNet.uav[34] utilizationSecMaintenance 16794.696537266
scalar OsgEarthNet.uav[34] utilizationSecCharge 179417.6593346
scalar OsgEarthNet.uav[34] utilizationSecIdle 33052.009
scalar OsgEarthNet.uav[34] utilizationEnergyMission 144099.42610931
scalar OsgEarthNet.uav[34] utilizationEnergyMaintenance 79220.598285675
scalar OsgEarthNet.uav[34] utilizationEnergyCharge 224456.71313477
scalar OsgEarthNet.uav[34] utilizationEnergyOverdrawMission 0
scalar OsgEarthNet.uav[34] utilizationEnergyOverdrawMaintenance 0
scalar OsgEarthNet.uav[34] utilizationCountMissions 55
scalar OsgEarthNet.uav[34] utilizationCountManeuversMission 874
scalar OsgEarthNet.uav[34] utilizationCountManeuversMaintenance 110
scalar OsgEarthNet.uav[34] utilizationCountChargeState 55
scalar OsgEarthNet.uav[34] utilizationCountOverdrawnAfterMission 0
scalar OsgEarthNet.uav[34] utilizationCountIdleState 55
scalar OsgEarthNet.uav[34] utilizationFail 0
scalar OsgEarthNet.uav[34] simulationTime 259200
scalar OsgEarthNet.uav[35] utilizationSecMission 35977.605890018
scalar OsgEarthNet.uav[35] utilizationSecMaintenance 14003.738413965
scalar OsgEarthNet.uav[35] utilizationSecCharge 183646.65469602
scalar OsgEarthNet.uav[35] utilizationSecIdle 25572
scalar OsgEarthNet.uav[35] utilizationEnergyMission 173674.13694121
scalar OsgEarthNet.uav[35] utilizationEnergyMaintenance 65509.368331909
scalar OsgEarthNet.uav[35] utilizationEnergyCharge 240197.87890625
scalar OsgEarthNet.uav[35] utilizationEnergyOverdrawMission 0
scalar OsgEarthNet.uav[35] utilizationEnergyOverdrawMaintenance 0
scalar OsgEarthNet.uav[35] utilizationCountMissions 52
scalar OsgEarthNet.uav[35] utilizationCountManeuversMission 1139
scalar OsgEarthNet.uav[35] utilizationCountManeuversMaintenance 103
scalar OsgEarthNet.uav[35] utilizationCountChargeState 52
scalar OsgEarthNet.uav[35] utilizationCountOverdrawnAfterMission 0
scalar OsgEarthNet.uav[35] utilizationCountIdleState 51
scalar OsgEarthNet.uav[35] utilizationFail 0
scalar OsgEarthNet.uav[35] simulationTime 259200
scalar OsgEarthNet.uav[36] utilizationSecMission 17146.876678383
scalar OsgEarthNet.uav[36] utilizationSecMaintenance 10810.715659542
scalar OsgEarthNet.uav[36] utilizationSecCharge 105150
scalar OsgEarthNet.uav[36] utilizationSecIdle 126092.40666207
scalar OsgEarthNet.uav[36] utilizationEnergyMission 84439.235244751
scalar OsgEarthNet.uav[36] utilizationEnergyMaintenance 51456.893146515
scalar OsgEarthNet.uav[36] utilizationEnergyCharge 135132.84960938
scalar OsgEarthNet.uav[36] utilizationEnergyOverdrawMission 0
scalar OsgEarthNet.uav[36] utilizationEnergyOverdrawMaintenance 0
scalar OsgEarthNet.uav[36] utilizationCountMissions 30
scalar OsgEarthNet.uav[36] utilizationCountManeuversMission 571
scalar OsgEarthNet.uav[36] utilizationCountManeuversMaintenance 60
scalar OsgEarthNet.uav[36] utilizationCountChargeState 30
scalar OsgEarthNet.uav[36] utilizationCountOverdrawnAfterMission 0
scalar OsgEarthNet.uav[36] utilizationCountIdleState 31
scalar OsgEarthNet.uav[36] utilizationFail 0
scalar OsgEarthNet.uav[36] simulationTime 259200
scalar OsgEarthNet.uav[37] utilizationSecMission 30371.177578242
scalar OsgEarthNet.uav[37] utilizationSecMaintenance 17574.493783503
scalar OsgEarthNet.uav[37] utilizationSecCharge 181784.28938967
scalar OsgEarthNet.uav[37] utilizationSecIdle 29470.038248588
scalar OsgEarthNet.uav[37] utilizationEnergyMission 145475.89712143
scalar OsgEarthNet.uav[37] utilizationEnergyMaintenance 84154.746147156
scalar OsgEarthNet.uav[37] utilizationEnergyCharge 226540.98291016
scalar OsgEarthNet.uav[37] utilizationEnergyOverdrawMission 0
scalar OsgEarthNet.uav[37] utilizationEnergyOverdrawMaintenance 0
scalar OsgEarthNet.uav[37] utilizationCountMissions 57
scalar OsgEarthNet.uav[37] utilizationCountManeuversMission 821
scalar OsgEarthNet.uav[37] utilizationCountManeuversMaintenance 114
scalar OsgEarthNet.uav[37] utilizationCountChargeState 57
scalar OsgEarthNet.uav[37] utilizationCountOverdrawnAfterMission 0
scalar OsgEarthNet.uav[37] utilizationCountIdleState 57
scalar OsgEarthNet.uav[37] utilizationFail 0
scalar OsgEarthNet.uav[37] simulationTime 259200
scalar OsgEarthNet.uav[38] utilizationSecMission 35517.505647116
scalar OsgEarthNet.uav[38] utilizationSecMaintenance 14566.78243136
scalar OsgEarthNet.uav[38] utilizationSecCharge 182883.70992152
scalar OsgEarthNet.uav[38] utilizationSecIdle 26232.001
scalar OsgEarthNet.uav[38] utilizationEnergyMission 171222.54534149
scalar OsgEarthNet.uav[38] utilizationEnergyMaintenance 67723.723495483
scalar OsgEarthNet.uav[38] utilizationEnergyCharge 238755.69238281
scalar OsgEarthNet.uav[38] utilizationEnergyOverdrawMission 0
scalar OsgEarthNet.uav[38] utilizationEnergyOverdrawMaintenance 0
scalar OsgEarthNet.uav[38] utilizationCountMissions 52
scalar OsgEarthNet.uav[38] utilizationCountManeuversMission 1092
scalar OsgEarthNet.uav[38] utilizationCountManeuversMaintenance 104
scalar OsgEarthNet.uav[38] utilizationCountChargeState 52
scalar OsgEarthNet.uav[38] utilizationCountOverdrawnAfterMission 0
scalar OsgEarthNet.uav[38] utilizationCountIdleState 50
scalar OsgEarthNet.uav[38] utilizationFail 0
scalar OsgEarthNet.uav[38] simulationTime 259200
scalar OsgEarthNet.uav[39] utilizationSecMission 14177.243792213
scalar OsgEarthNet.uav[39] utilizationSecMaintenance 7534.8760560656
scalar OsgEarthNet.uav[39] utilizationSecCharge 80495.870151722
scalar OsgEarthNet.uav[39] utilizationSecIdle 156992.009
scalar OsgEarthNet.uav[39] utilizationEnergyMission 67224.07950592
scalar OsgEarthNet.uav[39] utilizationEnergyMaintenance 35784.689899444
scalar OsgEarthNet.uav[39] utilizationEnergyCharge 103392.73242188
scalar OsgEarthNet.uav[39] utilizationEnergyOverdrawMission 0
scalar OsgEarthNet.uav[39] utilizationEnergyOverdrawMaintenance 0
scalar OsgEarthNet.uav[39] utilizationCountMissions 23
scalar OsgEarthNet.uav[39] utilizationCountManeuversMission 401
scalar OsgEarthNet.uav[39] utilizationCountManeuversMaintenance 46
scalar OsgEarthNet.uav[39] utilizationCountChargeState 23
scalar OsgEarthNet.uav[39] utilizationCountOverdrawnAfterMission 0
scalar OsgEarthNet.uav[39] utilizationCountIdleState 23
scalar OsgEarthNet.uav[39] utilizationFail 0
scalar OsgEarthNet.uav[39] simulationTime 259200
scalar OsgEarthNet.uav[40] utilizationSecMission 16875.993487052
scalar OsgEarthNet.uav[40] utilizationSecMaintenance 11185.420497982
scalar OsgEarthNet.uav[40] utilizationSecCharge 104160.80983207
scalar OsgEarthNet.uav[40] utilizationSecIdle 126977.7751829
scalar OsgEarthNet.uav[40] utilizationEnergyMission 82274.582221985
scalar OsgEarthNet.uav[40] utilizationEnergyMaintenance 53521.500232696
scalar OsgEarthNet.uav[40] utilizationEnergyCharge 135169.19702148
scalar OsgEarthNet.uav[40] utilizationEnergyOverdrawMission 0
scalar OsgEarthNet.uav[40] utilizationEnergyOverdrawMaintenance 0
scalar OsgEarthNet.uav[40] utilizationCountMissions 30
scalar OsgEarthNet.uav[40] utilizationCountManeuversMission 588
scalar OsgEarthNet.uav[40] utilizationCountManeuversMaintenance 60
scalar OsgEarthNet.uav[40] utilizationCountChargeState 30
scalar OsgEarthNet.uav[40] utilizationCountOverdrawnAfterMission 0
scalar OsgEarthNet.uav[40] utilizationCountIdleState 30
scalar OsgEarthNet.uav[40] utilizationFail 0
scalar OsgEarthNet.uav[40] simulationTime 259200
scalar OsgEarthNet.uav[41] utilizationSecMission 33093.463675733
scalar OsgEarthNet.uav[41] utilizationSecMaintenance 15383.779405681
scalar OsgEarthNet.uav[41] utilizationSecCharge 181272.73564444
scalar OsgEarthNet.uav[41] utilizationSecIdle 29450.020274145
scalar OsgEarthNet.uav[41] utilizationEnergyMission 163846.25398254
scalar OsgEarthNet.uav[41] utilizationEnergyMaintenance 72016.40745163
scalar OsgEarthNet.uav[41] utilizationEnergyCharge 234034.15429688
scalar OsgEarthNet.uav[41] utilizationEnergyOverdrawMission 0
scalar OsgEarthNet.uav[41] utilizationEnergyOverdrawMaintenance 0
scalar OsgEarthNet.uav[41] utilizationCountMissions 52
scalar OsgEarthNet.uav[41] utilizationCountManeuversMission 1208
scalar OsgEarthNet.uav[41] utilizationCountManeuversMaintenance 104
scalar OsgEarthNet.uav[41] utilizationCountChargeState 52
scalar OsgEarthNet.uav[41] utilizationCountOverdrawnAfterMission 0
scalar OsgEarthNet.uav[41] utilizationCountIdleState 52
scalar OsgEarthNet.uav[41] utilizationFail 0
scalar OsgEarthNet.uav[41] simulationTime 259200
scalar OsgEarthNet.uav[42] utilizationSecMission 33986.743183122
scalar OsgEarthNet.uav[42] utilizationSecMaintenance 15178.146273159
scalar OsgEarthNet.uav[42] utilizationSecCharge 181294.40910208
scalar OsgEarthNet.uav[42] utilizationSecIdle 28740.700441643
scalar OsgEarthNet.uav[42] utilizationEnergyMission 168132.05720139
scalar OsgEarthNet.uav[42] utilizationEnergyMaintenance 70500.279830933
scalar OsgEarthNet.uav[42] utilizationEnergyCharge 234808.20050049
scalar OsgEarthNet.uav[42] utilizationEnergyOverdrawMission 0
scalar OsgEarthNet.uav[42] utilizationEnergyOverdrawMaintenance 0
scalar OsgEarthNet.uav[42] utilizationCountMissions 52
scalar OsgEarthNet.uav[42] utilizationCountManeuversMission 1219
scalar OsgEarthNet.uav[42] utilizationCountManeuversMaintenance 104
scalar OsgEarthNet.uav[42] utilizationCountChargeState 52
scalar OsgEarthNet.uav[42] utilizationCountOverdrawnAfterMission 0
scalar OsgEarthNet.uav[42] utilizationCountIdleState 51
scalar OsgEarthNet.uav[42] utilizationFail 0
scalar OsgEarthNet.uav[42] simulationTime 259200
scalar OsgEarthNet.uav[43] utilizationSecMission 15122.064761763
scalar OsgEarthNet.uav[43] utilizationSecMaintenance 9595.924238237
scalar OsgEarthNet.uav[43] utilizationSecCharge 91340
scalar OsgEarthNet.uav[43] utilizationSecIdle 143142.01
scalar OsgEarthNet.uav[43] utilizationEnergyMission 72249.493080107
scalar OsgEarthNet.uav[43] utilizationEnergyMaintenance 45521.928520203
scalar OsgEarthNet.uav[43] utilizationEnergyCharge 117440.31787109
scalar OsgEarthNet.uav[43] utilizationEnergyOverdrawMission 0
scalar OsgEarthNet.uav[43] utilizationEnergyOverdrawMaintenance 0
scalar OsgEarthNet.uav[43] utilizationCountMissions 26
scalar OsgEarthNet.uav[43] utilizationCountManeuversMission 493
scalar OsgEarthNet.uav[43] utilizationCountManeuversMaintenance 53
scalar OsgEarthNet.uav[43] utilizationCountChargeState 26
scalar OsgEarthNet.uav[43] utilizationCountOverdrawnAfterMission 0
scalar OsgEarthNet.uav[43] utilizationCountIdleState 27
scalar OsgEarthNet.uav[43] utilizationFail 0
scalar OsgEarthNet.uav[43] simulationTime 259200
scalar OsgEarthNet.uav[44] utilizationSecMission 32058.631268529
scalar OsgEarthNet.uav[44] utilizationSecMaintenance 16098.975180208
scalar OsgEarthNet.uav[44] utilizationSecCharge 178745.0834371
scalar OsgEarthNet.uav[44] utilizationSecIdle 32297.30911416
scalar OsgEarthNet.uav[44] utilizationEnergyMission 154347.65890884
scalar OsgEarthNet.uav[44] utilizationEnergyMaintenance 76043.90001297
scalar OsgEarthNet.uav[44] utilizationEnergyCharge 226515.41601562
scalar OsgEarthNet.uav[44] utilizationEnergyOverdrawMission 0
scalar OsgEarthNet.uav[44] utilizationEnergyOverdrawMaintenance 0
scalar OsgEarthNet.uav[44] utilizationCountMissions 54
scalar OsgEarthNet.uav[44] utilizationCountManeuversMission 910
scalar OsgEarthNet.uav[44] utilizationCountManeuversMaintenance 108
scalar OsgEarthNet.uav[44] utilizationCountChargeState 54
scalar OsgEarthNet.uav[44] utilizationCountOverdrawnAfterMission 0
scalar OsgEarthNet.uav[44] utilizationCountIdleState 54
scalar OsgEarthNet.uav[44] utilizationFail 0
scalar OsgEarthNet.uav[44] simulationTime 259200
scalar OsgEarthNet.uav[45] utilizationSecMission 34080.595388377
scalar OsgEarthNet.uav[45] utilizationSecMaintenance 16065.124245321
scalar OsgEarthNet.uav[45] utilizationSecCharge 185656.82910227
scalar OsgEarthNet.uav[45] utilizationSecIdle 23397.450264031
scalar OsgEarthNet.uav[45] utilizationEnergyMission 168677.53142929
scalar OsgEarthNet.uav[45] utilizationEnergyMaintenance 74435.940559387
scalar OsgEarthNet.uav[45] utilizationEnergyCharge 241395.95361328
scalar OsgEarthNet.uav[45] utilizationEnergyOverdrawMission 0
scalar OsgEarthNet.uav[45] utilizationEnergyOverdrawMaintenance 0
scalar OsgEarthNet.uav[45] utilizationCountMissions 53
scalar OsgEarthNet.uav[45] utilizationCountManeuversMission 1240
scalar OsgEarthNet.uav[45] utilizationCountManeuversMaintenance 106
scalar OsgEarthNet.uav[45] utilizationCountChargeState 53
scalar OsgEarthNet.uav[45] utilizationCountOverdrawnAfterMission 0
scalar OsgEarthNet.uav[45] utilizationCountIdleState 52
scalar OsgEarthNet.uav[45] utilizationFail 0
scalar OsgEarthNet.uav[45] simulationTime 259200
scalar OsgEarthNet.uav[46] utilizationSecMission 16916.618639633
scalar OsgEarthNet.uav[46] utilizationSecMaintenance 10931.174981269
scalar OsgEarthNet.uav[46] utilizationSecCharge 102245.0563484
scalar OsgEarthNet.uav[46] utilizationSecIdle 129107.1490307
scalar OsgEarthNet.uav[46] utilizationEnergyMission 82347.17974472
scalar OsgEarthNet.uav[46] utilizationEnergyMaintenance 52118.009815216
scalar OsgEarthNet.uav[46] utilizationEnergyCharge 131613.00952148
scalar OsgEarthNet.uav[46] utilizationEnergyOverdrawMission 0
scalar OsgEarthNet.uav[46] utilizationEnergyOverdrawMaintenance 0
scalar OsgEarthNet.uav[46] utilizationCountMissions 30
scalar OsgEarthNet.uav[46] utilizationCountManeuversMission 564
scalar OsgEarthNet.uav[46] utilizationCountManeuversMaintenance 60
scalar OsgEarthNet.uav[46] utilizationCountChargeState 30
scalar OsgEarthNet.uav[46] utilizationCountOverdrawnAfterMission 0
scalar OsgEarthNet.uav[46] utilizationCountIdleState 30
scalar OsgEarthNet.uav[46] utilizationFail 0
scalar OsgEarthNet.uav[46] simulationTime 259200
scalar OsgEarthNet.uav[47] utilizationSecMission 31560.380243874
scalar OsgEarthNet.uav[47] utilizationSecMaintenance 16501.806036231
scalar OsgEarthNet.uav[47] utilizationSecCharge 182015.80771989
scalar OsgEarthNet.uav[47] utilizationSecIdle 29122.005
scalar OsgEarthNet.uav[47] utilizationEnergyMission 149685.59496307
scalar OsgEarthNet.uav[47] utilizationEnergyMaintenance 79179.252429962
scalar OsgEarthNet.uav[47] utilizationEnergyCharge 230129.93261719
scalar OsgEarthNet.uav[47] utilizationEnergyOverdrawMission 0
scalar OsgEarthNet.uav[47] utilizationEnergyOverdrawMaintenance 0
scalar OsgEarthNet.uav[47] utilizationCountMissions 55
scalar OsgEarthNet.uav[47] utilizationCountManeuversMission 891
scalar OsgEarthNet.uav[47] utilizationCountManeuversMaintenance 110
scalar OsgEarthNet.uav[47] utilizationCountChargeState 55
scalar OsgEarthNet.uav[47] utilizationCountOverdrawnAfterMission 0
scalar OsgEarthNet.uav[47] utilizationCountIdleState 55
scalar OsgEarthNet.uav[47] utilizationFail 0
scalar OsgEarthNet.uav[47] simulationTime 259200
scalar OsgEarthNet.uav[48] utilizationSecMission 32350.192516275
scalar OsgEarthNet.uav[48] utilizationSecMaintenance 16639.969669685
scalar OsgEarthNet.uav[48] utilizationSecCharge 181430
scalar OsgEarthNet.uav[48] utilizationSecIdle 28779.83681404
scalar OsgEarthNet.uav[48] utilizationEnergyMission 156257.95929337
scalar OsgEarthNet.uav[48] utilizationEnergyMaintenance 78023.149019865
scalar OsgEarthNet.uav[48] utilizationEnergyCharge 229873.49462891
scalar OsgEarthNet.uav[48] utilizationEnergyOverdrawMission 0
scalar OsgEarthNet.uav[48] utilizationEnergyOverdrawMaintenance 0
scalar OsgEarthNet.uav[48] utilizationCountMissions 55
scalar OsgEarthNet.uav[48] utilizationCountManeuversMission 1019
scalar OsgEarthNet.uav[48] utilizationCountManeuversMaintenance 110
scalar OsgEarthNet.uav[48] utilizationCountChargeState 54
scalar OsgEarthNet.uav[48] utilizationCountOverdrawnAfterMission 0
scalar OsgEarthNet.uav[48] utilizationCountIdleState 55
scalar OsgEarthNet.uav[48] utilizationFail 0
scalar OsgEarthNet.uav[48] simulationTime 259200
scalar OsgEarthNet.uav[49] utilizationSecMission 14246.251525803
scalar OsgEarthNet.uav[49] utilizationSecMaintenance 8457.706816584
scalar OsgEarthNet.uav[49] utilizationSecCharge 84400
scalar OsgEarthNet.uav[49] utilizationSecIdle 152096.04065761
scalar OsgEarthNet.uav[49] utilizationEnergyMission 68068.184120178
scalar OsgEarthNet.uav[49] utilizationEnergyMaintenance 40115.166107178
scalar OsgEarthNet.uav[49] utilizationEnergyCharge 108433.4140625
scalar OsgEarthNet.uav[49] utilizationEnergyOverdrawMission 0
scalar OsgEarthNet.uav[49] utilizationEnergyOverdrawMaintenance 0
scalar OsgEarthNet.uav[49] utilizationCountMissions 24
scalar OsgEarthNet.uav[49] utilizationCountManeuversMission 452
scalar OsgEarthNet.uav[49] utilizationCountManeuversMaintenance 48
scalar OsgEarthNet.uav[49] utilizationCountChargeState 24
scalar OsgEarthNet.uav[49] utilizationCountOverdrawnAfterMission 0
scalar OsgEarthNet.uav[49] utilizationCountIdleState 25
scalar OsgEarthNet.uav[49] utilizationFail 0
scalar OsgEarthNet.uav[49] simulationTime 259200
scalar OsgEarthNet.uav[50] utilizationSecMission 15026.251525803
scalar OsgEarthNet.uav[50] utilizationSecMaintenance 9362.6015908258
scalar OsgEarthNet.uav[50] utilizationSecCharge 91430
scalar OsgEarthNet.uav[50] utilizationSecIdle 143381.14588337
scalar OsgEarthNet.uav[50] utilizationEnergyMission 73817.702655792
scalar OsgEarthNet.uav[50] utilizationEnergyMaintenance 44541.751194
scalar OsgEarthNet.uav[50] utilizationEnergyCharge 117758.71533203
scalar OsgEarthNet.uav[50] utilizationEnergyOverdrawMission 0
scalar OsgEarthNet.uav[50] utilizationEnergyOverdrawMaintenance 0
scalar OsgEarthNet.uav[50] utilizationCountMissions 26
scalar OsgEarthNet.uav[50] utilizationCountManeuversMission 491
scalar OsgEarthNet.uav[50] utilizationCountManeuversMaintenance 52
scalar OsgEarthNet.uav[50] utilizationCountChargeState 26
scalar OsgEarthNet.uav[50] utilizationCountOverdrawnAfterMission 0
scalar OsgEarthNet.uav[50] utilizationCountIdleState 27
scalar OsgEarthNet.uav[50] utilizationFail 0
scalar OsgEarthNet.uav[50] simulationTime 259200
scalar OsgEarthNet.uav[51] utilizationSecMission 34648.912353505
scalar OsgEarthNet.uav[51] utilizationSecMaintenance 15277.023212953
scalar OsgEarthNet.uav[51] utilizationSecCharge 183028.62034485
scalar OsgEarthNet.uav[51] utilizationSecIdle 26245.443088691
scalar OsgEarthNet.uav[51] utilizationEnergyMission 168393.19418716
scalar OsgEarthNet.uav[51] utilizationEnergyMaintenance 70541.486083984
scalar OsgEarthNet.uav[51] utilizationEnergyCharge 237823.63671875
scalar OsgEarthNet.uav[51] utilizationEnergyOverdrawMission 0
scalar OsgEarthNet.uav[51] utilizationEnergyOverdrawMaintenance 0
scalar OsgEarthNet.uav[51] utilizationCountMissions 52
scalar OsgEarthNet.uav[51] utilizationCountManeuversMission 1175
scalar OsgEarthNet.uav[51] utilizationCountManeuversMaintenance 104
scalar OsgEarthNet.uav[51] utilizationCountChargeState 52
scalar OsgEarthNet.uav[51] utilizationCountOverdrawnAfterMission 0
scalar OsgEarthNet.uav[51] utilizationCountIdleState 51
scalar OsgEarthNet.uav[51] utilizationFail 0
scalar OsgEarthNet.uav[51] simulationTime 259200
scalar OsgEarthNet.uav[52] utilizationSecMission 35875.733700626
scalar OsgEarthNet.uav[52] utilizationSecMaintenance 13767.915078552
scalar OsgEarthNet.uav[52] utilizationSecCharge 181210
scalar OsgEarthNet.uav[52] utilizationSecIdle 28346.350220821
scalar OsgEarthNet.uav[52] utilizationEnergyMission 174613.96237564
scalar OsgEarthNet.uav[52] utilizationEnergyMaintenance 63664.107476146
scalar OsgEarthNet.uav[52] utilizationEnergyCharge 235772.63964844
scalar OsgEarthNet.uav[52] utilizationEnergyOverdrawMission 0
scalar OsgEarthNet.uav[52] utilizationEnergyOverdrawMaintenance 0
scalar OsgEarthNet.uav[52] utilizationCountMissions 51
scalar OsgEarthNet.uav[52] utilizationCountManeuversMission 1041
scalar OsgEarthNet.uav[52] utilizationCountManeuversMaintenance 103
scalar OsgEarthNet.uav[52] utilizationCountChargeState 51
scalar OsgEarthNet.uav[52] utilizationCountOverdrawnAfterMission 0
scalar OsgEarthNet.uav[52] utilizationCountIdleState 50
scalar OsgEarthNet.uav[52] utilizationFail 0
scalar OsgEarthNet.uav[52] simulationTime 259200
scalar OsgEarthNet.uav[53] utilizationSecMission 18447.501830963
scalar OsgEarthNet.uav[53] utilizationSecMaintenance 11616.036919924
scalar OsgEarthNet.uav[53] utilizationSecCharge 112450
scalar OsgEarthNet.uav[53] utilizationSecIdle 116686.46024911
scalar OsgEarthNet.uav[53] utilizationEnergyMission 90794.85458374
scalar OsgEarthNet.uav[53] utilizationEnergyMaintenance 55159.62109375
scalar OsgEarthNet.uav[53] utilizationEnergyCharge 144955.20019531
scalar OsgEarthNet.uav[53] utilizationEnergyOverdrawMission 0
scalar OsgEarthNet.uav[53] utilizationEnergyOverdrawMaintenance 0
scalar OsgEarthNet.uav[53] utilizationCountMissions 32
scalar OsgEarthNet.uav[53] utilizationCountManeuversMission 610
scalar OsgEarthNet.uav[53] utilizationCountManeuversMaintenance 64
scalar OsgEarthNet.uav[53] utilizationCountChargeState 32
scalar OsgEarthNet.uav[53] utilizationCountOverdrawnAfterMission 0
scalar OsgEarthNet.uav[53] utilizationCountIdleState 33
scalar OsgEarthNet.uav[53] utilizationFail 0
scalar OsgEarthNet.uav[53] simulationTime 259200
scalar OsgEarthNet.uav[54] utilizationSecMission 30083.278766487
scalar OsgEarthNet.uav[54] utilizationSecMaintenance 16993.968712623
scalar OsgEarthNet.uav[54] utilizationSecCharge 180000.74452089
scalar OsgEarthNet.uav[54] utilizationSecIdle 32122.007
scalar OsgEarthNet.uav[54] utilizationEnergyMission 144533.2495079
scalar OsgEarthNet.uav[54] utilizationEnergyMaintenance 80983.897186279
scalar OsgEarthNet.uav[54] utilizationEnergyCharge 225082.55493164
scalar OsgEarthNet.uav[54] utilizationEnergyOverdrawMission 0
scalar OsgEarthNet.uav[54] utilizationEnergyOverdrawMaintenance 0
scalar OsgEarthNet.uav[54] utilizationCountMissions 56
scalar OsgEarthNet.uav[54] utilizationCountManeuversMission 843
scalar OsgEarthNet.uav[54] utilizationCountManeuversMaintenance 112
scalar OsgEarthNet.uav[54] utilizationCountChargeState 56
scalar OsgEarthNet.uav[54] utilizationCountOverdrawnAfterMission 0
scalar OsgEarthNet.uav[54] utilizationCountIdleState 56
scalar OsgEarthNet.uav[54] utilizationFail 0
scalar OsgEarthNet.uav[54] simulationTime 259200
scalar OsgEarthNet.uav[55] utilizationSecMission 34782.814214182
scalar OsgEarthNet.uav[55] utilizationSecMaintenance 15259.866881345
scalar OsgEarthNet.uav[55] utilizationSecCharge 182351.86225107
scalar OsgEarthNet.uav[55] utilizationSecIdle 26805.455653403
scalar OsgEarthNet.uav[55] utilizationEnergyMission 170073.25177002
scalar OsgEarthNet.uav[55] utilizationEnergyMaintenance 70571.766654968
scalar OsgEarthNet.uav[55] utilizationEnergyCharge 236629.51513672
scalar OsgEarthNet.uav[55] utilizationEnergyOverdrawMission 0
scalar OsgEarthNet.uav[55] utilizationEnergyOverdrawMaintenance 0
scalar OsgEarthNet.uav[55] utilizationCountMissions 52
scalar OsgEarthNet.uav[55] utilizationCountManeuversMission 1110
scalar OsgEarthNet.uav[55] utilizationCountManeuversMaintenance 104
scalar OsgEarthNet.uav[55] utilizationCountChargeState 52
scalar OsgEarthNet.uav[55] utilizationCountOverdrawnAfterMission 0
scalar OsgEarthNet.uav[55] utilizationCountIdleState 52
scalar OsgEarthNet.uav[55] utilizationFail 0
scalar OsgEarthNet.uav[55] simulationTime 259200
scalar OsgEarthNet.uav[56] utilizationSecMission 16825.626373223
scalar OsgEarthNet.uav[56] utilizationSecMaintenance 11396.542694395
scalar OsgEarthNet.uav[56] utilizationSecCharge 105080
scalar OsgEarthNet.uav[56] utilizationSecIdle 125897.82993238
scalar OsgEarthNet.uav[56] utilizationEnergyMission 83212.132766724
scalar OsgEarthNet.uav[56] utilizationEnergyMaintenance 54505.02393341
scalar OsgEarthNet.uav[56] utilizationEnergyCharge 135390.51611328
scalar OsgEarthNet.uav[56] utilizationEnergyOverdrawMission 0
scalar OsgEarthNet.uav[56] utilizationEnergyOverdrawMaintenance 0
scalar OsgEarthNet.uav[56] utilizationCountMissions 30
scalar OsgEarthNet.uav[56] utilizationCountManeuversMission 607
scalar OsgEarthNet.uav[56] utilizationCountManeuversMaintenance 60
scalar OsgEarthNet.uav[56] utilizationCountChargeState 30
scalar OsgEarthNet.uav[56] utilizationCountOverdrawnAfterMission 0
scalar OsgEarthNet.uav[56] utilizationCountIdleState 31
scalar OsgEarthNet.uav[56] utilizationFail 0
scalar OsgEarthNet.uav[56] simulationTime 259200
scalar OsgEarthNet.uav[57] utilizationSecMission 31228.831110169
scalar OsgEarthNet.uav[57] utilizationSecMaintenance 16310.075210741
scalar OsgEarthNet.uav[57] utilizationSecCharge 180566.38698005
scalar OsgEarthNet.uav[57] utilizationSecIdle 31094.705699036
scalar OsgEarthNet.uav[57] utilizationEnergyMission 148394.24113464
scalar OsgEarthNet.uav[57] utilizationEnergyMaintenance 77769.583629608
scalar OsgEarthNet.uav[57] utilizationEnergyCharge 225958.46069336
scalar OsgEarthNet.uav[57] utilizationEnergyOverdrawMission 0
scalar OsgEarthNet.uav[57] utilizationEnergyOverdrawMaintenance 0
scalar OsgEarthNet.uav[57] utilizationCountMissions 56
scalar OsgEarthNet.uav[57] utilizationCountManeuversMission 799
scalar OsgEarthNet.uav[57] utilizationCountManeuversMaintenance 112
scalar OsgEarthNet.uav[57] utilizationCountChargeState 56
scalar OsgEarthNet.uav[57] utilizationCountOverdrawnAfterMission 0
scalar OsgEarthNet.uav[57] utilizationCountIdleState 55
scalar OsgEarthNet.uav[57] utilizationFail 0
scalar OsgEarthNet.uav[57] simulationTime 259200
scalar OsgEarthNet.uav[58] utilizationSecMission 32661.750408384
scalar OsgEarthNet.uav[58] utilizationSecMaintenance 17052.025419136
scalar OsgEarthNet.uav[58] utilizationSecCharge 186006.76482439
scalar OsgEarthNet.uav[58] utilizationSecIdle 23479.458348089
scalar OsgEarthNet.uav[58] utilizationEnergyMission 164851.62770844
scalar OsgEarthNet.uav[58] utilizationEnergyMaintenance 78037.272743225
scalar OsgEarthNet.uav[58] utilizationEnergyCharge 239660.3671875
scalar OsgEarthNet.uav[58] utilizationEnergyOverdrawMission 0
scalar OsgEarthNet.uav[58] utilizationEnergyOverdrawMaintenance 0
scalar OsgEarthNet.uav[58] utilizationCountMissions 53
scalar OsgEarthNet.uav[58] utilizationCountManeuversMission 1319
scalar OsgEarthNet.uav[58] utilizationCountManeuversMaintenance 106
scalar OsgEarthNet.uav[58] utilizationCountChargeState 53
scalar OsgEarthNet.uav[58] utilizationCountOverdrawnAfterMission 0
scalar OsgEarthNet.uav[58] utilizationCountIdleState 53
scalar OsgEarthNet.uav[58] utilizationFail 0
scalar OsgEarthNet.uav[58] simulationTime 259200
scalar OsgEarthNet.uav[59] utilizationSecMission 37151.164062602
scalar OsgEarthNet.uav[59] utilizationSecMaintenance 13589.581283069
scalar OsgEarthNet.uav[59] utilizationSecCharge 182927.25365433
scalar OsgEarthNet.uav[59] utilizationSecIdle 25532
scalar OsgEarthNet.uav[59] utilizationEnergyMission 177965.85594559
scalar OsgEarthNet.uav[59] utilizationEnergyMaintenance 62788.418838501
scalar OsgEarthNet.uav[59] utilizationEnergyCharge 238774.66918945
scalar OsgEarthNet.uav[59] utilizationEnergyOverdrawMission 0
scalar OsgEarthNet.uav[59] utilizationEnergyOverdrawMaintenance 0
scalar OsgEarthNet.uav[59] utilizationCountMissions 52
scalar OsgEarthNet.uav[59] utilizationCountManeuversMission 1029
scalar OsgEarthNet.uav[59] utilizationCountManeuversMaintenance 103
scalar OsgEarthNet.uav[59] utilizationCountChargeState 52
scalar OsgEarthNet.uav[59] utilizationCountOverdrawnAfterMission 0
scalar OsgEarthNet.uav[59] utilizationCountIdleState 51
scalar OsgEarthNet.uav[59] utilizationFail 0
scalar OsgEarthNet.uav[59] simulationTime 259200
scalar OsgEarthNet.uav[60] utilizationSecMission 17435.368334472
scalar OsgEarthNet.uav[60] utilizationSecMaintenance 12192.610665528
scalar OsgEarthNet.uav[60] utilizationSecCharge 108720
scalar OsgEarthNet.uav[60] utilizationSecIdle 120852.02
scalar OsgEarthNet.uav[60] utilizationEnergyMission 84985.651954651
scalar OsgEarthNet.uav[60] utilizationEnergyMaintenance 57853.42139445
scalar OsgEarthNet.uav[60] utilizationEnergyCharge 139881.20556641
scalar OsgEarthNet.uav[60] utilizationEnergyOverdrawMission 0
scalar OsgEarthNet.uav[60] utilizationEnergyOverdrawMaintenance 0
scalar OsgEarthNet.uav[60] utilizationCountMissions 32
scalar OsgEarthNet.uav[60] utilizationCountManeuversMission 642
scalar OsgEarthNet.uav[60] utilizationCountManeuversMaintenance 64
scalar OsgEarthNet.uav[60] utilizationCountChargeState 31
scalar OsgEarthNet.uav[60] utilizationCountOverdrawnAfterMission 0
scalar OsgEarthNet.uav[60] utilizationCountIdleState 32
scalar OsgEarthNet.uav[60] utilizationFail 0
scalar OsgEarthNet.uav[60] simulationTime 259200
scalar OsgEarthNet.uav[61] utilizationSecMission 29473.781256357
scalar OsgEarthNet.uav[61] utilizationSecMaintenance 18384.821025775
scalar OsgEarthNet.uav[61] utilizationSecCharge 182958.09029726
scalar OsgEarthNet.uav[61] utilizationSecIdle 28383.30642061
scalar OsgEarthNet.uav[61] utilizationEnergyMission 146177.19449997
scalar OsgEarthNet.uav[61] utilizationEnergyMaintenance 87491.604473114
scalar OsgEarthNet.uav[61] utilizationEnergyCharge 230882.26245117
scalar OsgEarthNet.uav[61] utilizationEnergyOverdrawMission 0
scalar OsgEarthNet.uav[61] utilizationEnergyOverdrawMaintenance 0
scalar OsgEarthNet.uav[61] utilizationCountMissions 56
scalar OsgEarthNet.uav[61] utilizationCountManeuversMission 974
scalar OsgEarthNet.uav[61] utilizationCountManeuversMaintenance 112
scalar OsgEarthNet.uav[61] utilizationCountChargeState 56
scalar OsgEarthNet.uav[61] utilizationCountOverdrawnAfterMission 0
scalar OsgEarthNet.uav[61] utilizationCountIdleState 56
scalar OsgEarthNet.uav[61] utilizationFail 0
scalar OsgEarthNet.uav[61] simulationTime 259200
scalar OsgEarthNet.uav[62] utilizationSecMission 35224.674456671
scalar OsgEarthNet.uav[62] utilizationSecMaintenance 14453.321543329
scalar OsgEarthNet.uav[62] utilizationSecCharge 181010
scalar OsgEarthNet.uav[62] utilizationSecIdle 28512.003
scalar OsgEarthNet.uav[62] utilizationEnergyMission 171453.45013708
scalar OsgEarthNet.uav[62] utilizationEnergyMaintenance 66876.955718994
scalar OsgEarthNet.uav[62] utilizationEnergyCharge 234425.87109375
scalar OsgEarthNet.uav[62] utilizationEnergyOverdrawMission 0
scalar OsgEarthNet.uav[62] utilizationEnergyOverdrawMaintenance 0
scalar OsgEarthNet.uav[62] utilizationCountMissions 51
scalar OsgEarthNet.uav[62] utilizationCountManeuversMission 1077
scalar OsgEarthNet.uav[62] utilizationCountManeuversMaintenance 103
scalar OsgEarthNet.uav[62] utilizationCountChargeState 51
scalar OsgEarthNet.uav[62] utilizationCountOverdrawnAfterMission 0
scalar OsgEarthNet.uav[62] utilizationCountIdleState 50
scalar OsgEarthNet.uav[62] utilizationFail 0
scalar OsgEarthNet.uav[62] simulationTime 259200
scalar OsgEarthNet.uav[63] utilizationSecMission 15437.134717134
scalar OsgEarthNet.uav[63] utilizationSecMaintenance 9075.2640743546
scalar OsgEarthNet.uav[63] utilizationSecCharge 89461.077330005
scalar OsgEarthNet.uav[63] utilizationSecIdle 145226.52287851
scalar OsgEarthNet.uav[63] utilizationEnergyMission 74941.813709259
scalar OsgEarthNet.uav[63] utilizationEnergyMaintenance 43067.823032379
scalar OsgEarthNet.uav[63] utilizationEnergyCharge 115808.53076172
scalar OsgEarthNet.uav[63] utilizationEnergyOverdrawMission 0
scalar OsgEarthNet.uav[63] utilizationEnergyOverdrawMaintenance 0
scalar OsgEarthNet.uav[63] utilizationCountMissions 26
scalar OsgEarthNet.uav[63] utilizationCountManeuversMission 481
scalar OsgEarthNet.uav[63] utilizationCountManeuversMaintenance 52
scalar OsgEarthNet.uav[63] utilizationCountChargeState 26
scalar OsgEarthNet.uav[63] utilizationCountOverdrawnAfterMission 0
scalar OsgEarthNet.uav[63] utilizationCountIdleState 26
scalar OsgEarthNet.uav[63] utilizationFail 0
scalar OsgEarthNet.uav[63] simulationTime 259200
scalar OsgEarthNet.uav[64] utilizationSecMission 30489.172914218
scalar OsgEarthNet.uav[64] utilizationSecMaintenance 17896.032955085
scalar OsgEarthNet.uav[64] utilizationSecCharge 182212.7911307
scalar OsgEarthNet.uav[64] utilizationSecIdle 28602.002
scalar OsgEarthNet.uav[64] utilizationEnergyMission 148014.86927032
scalar OsgEarthNet.uav[64] utilizationEnergyMaintenance 84306.838562012
scalar OsgEarthNet.uav[64] utilizationEnergyCharge 228988.8203125
scalar OsgEarthNet.uav[64] utilizationEnergyOverdrawMission 0
scalar OsgEarthNet.uav[64] utilizationEnergyOverdrawMaintenance 0
scalar OsgEarthNet.uav[64] utilizationCountMissions 56
scalar OsgEarthNet.uav[64] utilizationCountManeuversMission 974
scalar OsgEarthNet.uav[64] utilizationCountManeuversMaintenance 112
scalar OsgEarthNet.uav[64] utilizationCountChargeState 56
scalar OsgEarthNet.uav[64] utilizationCountOverdrawnAfterMission 0
scalar OsgEarthNet.uav[64] utilizationCountIdleState 56
scalar OsgEarthNet.uav[64] utilizationFail 0
scalar OsgEarthNet.uav[64] simulationTime 259200
scalar OsgEarthNet.uav[65] utilizationSecMission 34134.686545873
scalar OsgEarthNet.uav[65] utilizationSecMaintenance 16365.231687728
[...]
scalar OsgEarthNet.uav[69] utilizationEnergyOverdrawMaintenance 0
scalar OsgEarthNet.uav[69] utilizationCountMissions 34
scalar OsgEarthNet.uav[69] utilizationCountManeuversMission 594
scalar OsgEarthNet.uav[69] utilizationCountManeuversMaintenance 68
scalar OsgEarthNet.uav[69] utilizationCountChargeState 34
scalar OsgEarthNet.uav[69] utilizationCountOverdrawnAfterMission 0
scalar OsgEarthNet.uav[69] utilizationCountIdleState 34
scalar OsgEarthNet.uav[69] utilizationFail 0
scalar OsgEarthNet.uav[69] simulationTime 259200
scalar OsgEarthNet.uav[70] utilizationSecMission 19107.392755884
scalar OsgEarthNet.uav[70] utilizationSecMaintenance 12708.993211363
scalar OsgEarthNet.uav[70] utilizationSecCharge 119960
scalar OsgEarthNet.uav[70] utilizationSecIdle 107423.61303275
scalar OsgEarthNet.uav[70] utilizationEnergyMission 93978.739673615
scalar OsgEarthNet.uav[70] utilizationEnergyMaintenance 60815.177555084
scalar OsgEarthNet.uav[70] utilizationEnergyCharge 154549.18798828
scalar OsgEarthNet.uav[70] utilizationEnergyOverdrawMission 0
scalar OsgEarthNet.uav[70] utilizationEnergyOverdrawMaintenance 0
scalar OsgEarthNet.uav[70] utilizationCountMissions 34
scalar OsgEarthNet.uav[70] utilizationCountManeuversMission 660
scalar OsgEarthNet.uav[70] utilizationCountManeuversMaintenance 68
scalar OsgEarthNet.uav[70] utilizationCountChargeState 34
scalar OsgEarthNet.uav[70] utilizationCountOverdrawnAfterMission 0
scalar OsgEarthNet.uav[70] utilizationCountIdleState 35
scalar OsgEarthNet.uav[70] utilizationFail 0
scalar OsgEarthNet.uav[70] simulationTime 259200
scalar OsgEarthNet.uav[71] utilizationSecMission 30406.467275023
scalar OsgEarthNet.uav[71] utilizationSecMaintenance 17384.003575426
scalar OsgEarthNet.uav[71] utilizationSecCharge 181168.47035436
scalar OsgEarthNet.uav[71] utilizationSecIdle 30241.057795193
scalar OsgEarthNet.uav[71] utilizationEnergyMission 145197.72200012
scalar OsgEarthNet.uav[71] utilizationEnergyMaintenance 82558.674278259
scalar OsgEarthNet.uav[71] utilizationEnergyCharge 225637.87573242
scalar OsgEarthNet.uav[71] utilizationEnergyOverdrawMission 0
scalar OsgEarthNet.uav[71] utilizationEnergyOverdrawMaintenance 0
scalar OsgEarthNet.uav[71] utilizationCountMissions 57
scalar OsgEarthNet.uav[71] utilizationCountManeuversMission 828
scalar OsgEarthNet.uav[71] utilizationCountManeuversMaintenance 114
scalar OsgEarthNet.uav[71] utilizationCountChargeState 57
scalar OsgEarthNet.uav[71] utilizationCountOverdrawnAfterMission 0
scalar OsgEarthNet.uav[71] utilizationCountIdleState 57
scalar OsgEarthNet.uav[71] utilizationFail 0
scalar OsgEarthNet.uav[71] simulationTime 259200
scalar OsgEarthNet.uav[72] utilizationSecMission 35708.13657391
scalar OsgEarthNet.uav[72] utilizationSecMaintenance 14470.841778081
scalar OsgEarthNet.uav[72] utilizationSecCharge 185051.8455376
scalar OsgEarthNet.uav[72] utilizationSecIdle 23969.175110411
scalar OsgEarthNet.uav[72] utilizationEnergyMission 173959.88208008
scalar OsgEarthNet.uav[72] utilizationEnergyMaintenance 67146.749023438
scalar OsgEarthNet.uav[72] utilizationEnergyCharge 241173.52001953
scalar OsgEarthNet.uav[72] utilizationEnergyOverdrawMission 0
scalar OsgEarthNet.uav[72] utilizationEnergyOverdrawMaintenance 0
scalar OsgEarthNet.uav[72] utilizationCountMissions 52
scalar OsgEarthNet.uav[72] utilizationCountManeuversMission 1156
scalar OsgEarthNet.uav[72] utilizationCountManeuversMaintenance 104
scalar OsgEarthNet.uav[72] utilizationCountChargeState 52
scalar OsgEarthNet.uav[72] utilizationCountOverdrawnAfterMission 0
scalar OsgEarthNet.uav[72] utilizationCountIdleState 51
scalar OsgEarthNet.uav[72] utilizationFail 0
scalar OsgEarthNet.uav[72] simulationTime 259200
scalar OsgEarthNet.uav[73] utilizationSecMission 18418.901099795
scalar OsgEarthNet.uav[73] utilizationSecMaintenance 10912.450999056
scalar OsgEarthNet.uav[73] utilizationSecCharge 109110
scalar OsgEarthNet.uav[73] utilizationSecIdle 120758.64690115
scalar OsgEarthNet.uav[73] utilizationEnergyMission 87428.938877106
scalar OsgEarthNet.uav[73] utilizationEnergyMaintenance 51704.182861328
scalar OsgEarthNet.uav[73] utilizationEnergyCharge 140395.74267578
scalar OsgEarthNet.uav[73] utilizationEnergyOverdrawMission 0
scalar OsgEarthNet.uav[73] utilizationEnergyOverdrawMaintenance 0
scalar OsgEarthNet.uav[73] utilizationCountMissions 31
scalar OsgEarthNet.uav[73] utilizationCountManeuversMission 569
scalar OsgEarthNet.uav[73] utilizationCountManeuversMaintenance 62
scalar OsgEarthNet.uav[73] utilizationCountChargeState 31
scalar OsgEarthNet.uav[73] utilizationCountOverdrawnAfterMission 0
scalar OsgEarthNet.uav[73] utilizationCountIdleState 32
scalar OsgEarthNet.uav[73] utilizationFail 0
scalar OsgEarthNet.uav[73] simulationTime 259200
scalar OsgEarthNet.uav[74] utilizationSecMission 30170.412073308
scalar OsgEarthNet.uav[74] utilizationSecMaintenance 17242.498332916
scalar OsgEarthNet.uav[74] utilizationSecCharge 183895.08859378
scalar OsgEarthNet.uav[74] utilizationSecIdle 27892
scalar OsgEarthNet.uav[74] utilizationEnergyMission 141509.82484055
scalar OsgEarthNet.uav[74] utilizationEnergyMaintenance 82619.856082916
scalar OsgEarthNet.uav[74] utilizationEnergyCharge 225314.55004883
scalar OsgEarthNet.uav[74] utilizationEnergyOverdrawMission 0
scalar OsgEarthNet.uav[74] utilizationEnergyOverdrawMaintenance 0
scalar OsgEarthNet.uav[74] utilizationCountMissions 59
scalar OsgEarthNet.uav[74] utilizationCountManeuversMission 731
scalar OsgEarthNet.uav[74] utilizationCountManeuversMaintenance 117
scalar OsgEarthNet.uav[74] utilizationCountChargeState 59
scalar OsgEarthNet.uav[74] utilizationCountOverdrawnAfterMission 0
scalar OsgEarthNet.uav[74] utilizationCountIdleState 59
scalar OsgEarthNet.uav[74] utilizationFail 0
scalar OsgEarthNet.uav[74] simulationTime 259200
scalar OsgEarthNet.uav[75] utilizationSecMission 34846.663904551
scalar OsgEarthNet.uav[75] utilizationSecMaintenance 14885.824796606
scalar OsgEarthNet.uav[75] utilizationSecCharge 183400
scalar OsgEarthNet.uav[75] utilizationSecIdle 26067.510298843
scalar OsgEarthNet.uav[75] utilizationEnergyMission 169587.09322739
scalar OsgEarthNet.uav[75] utilizationEnergyMaintenance 68281.990539551
scalar OsgEarthNet.uav[75] utilizationEnergyCharge 238240.20068359
scalar OsgEarthNet.uav[75] utilizationEnergyOverdrawMission 0
scalar OsgEarthNet.uav[75] utilizationEnergyOverdrawMaintenance 0
scalar OsgEarthNet.uav[75] utilizationCountMissions 52
scalar OsgEarthNet.uav[75] utilizationCountManeuversMission 1116
scalar OsgEarthNet.uav[75] utilizationCountManeuversMaintenance 104
scalar OsgEarthNet.uav[75] utilizationCountChargeState 52
scalar OsgEarthNet.uav[75] utilizationCountOverdrawnAfterMission 0
scalar OsgEarthNet.uav[75] utilizationCountIdleState 52
scalar OsgEarthNet.uav[75] utilizationFail 0
scalar OsgEarthNet.uav[75] simulationTime 259200
scalar OsgEarthNet.uav[76] utilizationSecMission 19968.126983544
scalar OsgEarthNet.uav[76] utilizationSecMaintenance 12714.08658376
scalar OsgEarthNet.uav[76] utilizationSecCharge 123200
scalar OsgEarthNet.uav[76] utilizationSecIdle 103317.7854327
scalar OsgEarthNet.uav[76] utilizationEnergyMission 97340.776332855
scalar OsgEarthNet.uav[76] utilizationEnergyMaintenance 60832.266952514
scalar OsgEarthNet.uav[76] utilizationEnergyCharge 158783.35107422
scalar OsgEarthNet.uav[76] utilizationEnergyOverdrawMission 0
scalar OsgEarthNet.uav[76] utilizationEnergyOverdrawMaintenance 0
scalar OsgEarthNet.uav[76] utilizationCountMissions 35
scalar OsgEarthNet.uav[76] utilizationCountManeuversMission 660
scalar OsgEarthNet.uav[76] utilizationCountManeuversMaintenance 70
scalar OsgEarthNet.uav[76] utilizationCountChargeState 35
scalar OsgEarthNet.uav[76] utilizationCountOverdrawnAfterMission 0
scalar OsgEarthNet.uav[76] utilizationCountIdleState 36
scalar OsgEarthNet.uav[76] utilizationFail 0
scalar OsgEarthNet.uav[76] simulationTime 259200
scalar OsgEarthNet.uav[77] utilizationSecMission 30745.452491958
scalar OsgEarthNet.uav[77] utilizationSecMaintenance 17076.192905163
scalar OsgEarthNet.uav[77] utilizationSecCharge 182110
scalar OsgEarthNet.uav[77] utilizationSecIdle 29268.353602879
scalar OsgEarthNet.uav[77] utilizationEnergyMission 146699.30834976
scalar OsgEarthNet.uav[77] utilizationEnergyMaintenance 81493.915977478
scalar OsgEarthNet.uav[77] utilizationEnergyCharge 225377.51220703
scalar OsgEarthNet.uav[77] utilizationEnergyOverdrawMission 0
scalar OsgEarthNet.uav[77] utilizationEnergyOverdrawMaintenance 0
scalar OsgEarthNet.uav[77] utilizationCountMissions 57
scalar OsgEarthNet.uav[77] utilizationCountManeuversMission 795
scalar OsgEarthNet.uav[77] utilizationCountManeuversMaintenance 115
scalar OsgEarthNet.uav[77] utilizationCountChargeState 57
scalar OsgEarthNet.uav[77] utilizationCountOverdrawnAfterMission 0
scalar OsgEarthNet.uav[77] utilizationCountIdleState 58
scalar OsgEarthNet.uav[77] utilizationFail 0
scalar OsgEarthNet.uav[77] simulationTime 259200
scalar OsgEarthNet.uav[78] utilizationSecMission 36572.199723324
scalar OsgEarthNet.uav[78] utilizationSecMaintenance 13044.744961829
scalar OsgEarthNet.uav[78] utilizationSecCharge 180541.05031485
scalar OsgEarthNet.uav[78] utilizationSecIdle 29042.004
scalar OsgEarthNet.uav[78] utilizationEnergyMission 177277.51947403
scalar OsgEarthNet.uav[78] utilizationEnergyMaintenance 60514.141223907
scalar OsgEarthNet.uav[78] utilizationEnergyCharge 235073.37597656
scalar OsgEarthNet.uav[78] utilizationEnergyOverdrawMission 0
scalar OsgEarthNet.uav[78] utilizationEnergyOverdrawMaintenance 0
scalar OsgEarthNet.uav[78] utilizationCountMissions 51
scalar OsgEarthNet.uav[78] utilizationCountManeuversMission 1156
scalar OsgEarthNet.uav[78] utilizationCountManeuversMaintenance 102
scalar OsgEarthNet.uav[78] utilizationCountChargeState 51
scalar OsgEarthNet.uav[78] utilizationCountOverdrawnAfterMission 0
scalar OsgEarthNet.uav[78] utilizationCountIdleState 50
scalar OsgEarthNet.uav[78] utilizationFail 0
scalar OsgEarthNet.uav[78] simulationTime 259200
scalar OsgEarthNet.uav[79] utilizationSecMission 19187.501830963
scalar OsgEarthNet.uav[79] utilizationSecMaintenance 12290.480169037
scalar OsgEarthNet.uav[79] utilizationSecCharge 115710
scalar OsgEarthNet.uav[79] utilizationSecIdle 112012.017
scalar OsgEarthNet.uav[79] utilizationEnergyMission 92939.45533371
scalar OsgEarthNet.uav[79] utilizationEnergyMaintenance 58586.548711153
scalar OsgEarthNet.uav[79] utilizationEnergyCharge 148826.25683594
scalar OsgEarthNet.uav[79] utilizationEnergyOverdrawMission 0
scalar OsgEarthNet.uav[79] utilizationEnergyOverdrawMaintenance 0
scalar OsgEarthNet.uav[79] utilizationCountMissions 34
scalar OsgEarthNet.uav[79] utilizationCountManeuversMission 647
scalar OsgEarthNet.uav[79] utilizationCountManeuversMaintenance 68
scalar OsgEarthNet.uav[79] utilizationCountChargeState 33
scalar OsgEarthNet.uav[79] utilizationCountOverdrawnAfterMission 0
scalar OsgEarthNet.uav[79] utilizationCountIdleState 34
scalar OsgEarthNet.uav[79] utilizationFail 0
scalar OsgEarthNet.uav[79] simulationTime 259200
scalar OsgEarthNet.uav[80] utilizationSecMission 21747.497206766
scalar OsgEarthNet.uav[80] utilizationSecMaintenance 12462.106507216
scalar OsgEarthNet.uav[80] utilizationSecCharge 123328.39528602
scalar OsgEarthNet.uav[80] utilizationSecIdle 101662
scalar OsgEarthNet.uav[80] utilizationEnergyMission 104098.59488678
scalar OsgEarthNet.uav[80] utilizationEnergyMaintenance 58763.481826782
scalar OsgEarthNet.uav[80] utilizationEnergyCharge 158653.93621826
scalar OsgEarthNet.uav[80] utilizationEnergyOverdrawMission 0
scalar OsgEarthNet.uav[80] utilizationEnergyOverdrawMaintenance 0
scalar OsgEarthNet.uav[80] utilizationCountMissions 36
scalar OsgEarthNet.uav[80] utilizationCountManeuversMission 659
scalar OsgEarthNet.uav[80] utilizationCountManeuversMaintenance 71
scalar OsgEarthNet.uav[80] utilizationCountChargeState 36
scalar OsgEarthNet.uav[80] utilizationCountOverdrawnAfterMission 0
scalar OsgEarthNet.uav[80] utilizationCountIdleState 36
scalar OsgEarthNet.uav[80] utilizationFail 0
scalar OsgEarthNet.uav[80] simulationTime 259200
scalar OsgEarthNet.uav[81] utilizationSecMission 29294.062385005
scalar OsgEarthNet.uav[81] utilizationSecMaintenance 18503.935614995
scalar OsgEarthNet.uav[81] utilizationSecCharge 184890
scalar OsgEarthNet.uav[81] utilizationSecIdle 26512.001
scalar OsgEarthNet.uav[81] utilizationEnergyMission 142139.21656892
scalar OsgEarthNet.uav[81] utilizationEnergyMaintenance 87794.325992584
scalar OsgEarthNet.uav[81] utilizationEnergyCharge 228649.11914062
scalar OsgEarthNet.uav[81] utilizationEnergyOverdrawMission 0
scalar OsgEarthNet.uav[81] utilizationEnergyOverdrawMaintenance 0
scalar OsgEarthNet.uav[81] utilizationCountMissions 58
scalar OsgEarthNet.uav[81] utilizationCountManeuversMission 860
scalar OsgEarthNet.uav[81] utilizationCountManeuversMaintenance 117
scalar OsgEarthNet.uav[81] utilizationCountChargeState 58
scalar OsgEarthNet.uav[81] utilizationCountOverdrawnAfterMission 0
scalar OsgEarthNet.uav[81] utilizationCountIdleState 59
scalar OsgEarthNet.uav[81] utilizationFail 0
scalar OsgEarthNet.uav[81] simulationTime 259200
scalar OsgEarthNet.uav[82] utilizationSecMission 34671.535341459
scalar OsgEarthNet.uav[82] utilizationSecMaintenance 15900.556100636
scalar OsgEarthNet.uav[82] utilizationSecCharge 186015.9075579
scalar OsgEarthNet.uav[82] utilizationSecIdle 22612
scalar OsgEarthNet.uav[82] utilizationEnergyMission 170370.5764506
scalar OsgEarthNet.uav[82] utilizationEnergyMaintenance 72775.109951019
scalar OsgEarthNet.uav[82] utilizationEnergyCharge 242218.58300781
scalar OsgEarthNet.uav[82] utilizationEnergyOverdrawMission 0
scalar OsgEarthNet.uav[82] utilizationEnergyOverdrawMaintenance 0
scalar OsgEarthNet.uav[82] utilizationCountMissions 53
scalar OsgEarthNet.uav[82] utilizationCountManeuversMission 1224
scalar OsgEarthNet.uav[82] utilizationCountManeuversMaintenance 105
scalar OsgEarthNet.uav[82] utilizationCountChargeState 53
scalar OsgEarthNet.uav[82] utilizationCountOverdrawnAfterMission 0
scalar OsgEarthNet.uav[82] utilizationCountIdleState 51
scalar OsgEarthNet.uav[82] utilizationFail 0
scalar OsgEarthNet.uav[82] simulationTime 259200
scalar OsgEarthNet.uav[83] utilizationSecMission 17895.368334472
scalar OsgEarthNet.uav[83] utilizationSecMaintenance 12684.562552733
scalar OsgEarthNet.uav[83] utilizationSecCharge 113048.05611279
scalar OsgEarthNet.uav[83] utilizationSecIdle 115572.012
scalar OsgEarthNet.uav[83] utilizationEnergyMission 87641.230136871
scalar OsgEarthNet.uav[83] utilizationEnergyMaintenance 60024.489665985
scalar OsgEarthNet.uav[83] utilizationEnergyCharge 145974.6171875
scalar OsgEarthNet.uav[83] utilizationEnergyOverdrawMission 0
scalar OsgEarthNet.uav[83] utilizationEnergyOverdrawMaintenance 0
scalar OsgEarthNet.uav[83] utilizationCountMissions 33
scalar OsgEarthNet.uav[83] utilizationCountManeuversMission 665
scalar OsgEarthNet.uav[83] utilizationCountManeuversMaintenance 66
scalar OsgEarthNet.uav[83] utilizationCountChargeState 33
scalar OsgEarthNet.uav[83] utilizationCountOverdrawnAfterMission 0
scalar OsgEarthNet.uav[83] utilizationCountIdleState 33
scalar OsgEarthNet.uav[83] utilizationFail 0
scalar OsgEarthNet.uav[83] simulationTime 259200
scalar OsgEarthNet.uav[84] utilizationSecMission 21856.952246233
scalar OsgEarthNet.uav[84] utilizationSecMaintenance 15301.043753767
scalar OsgEarthNet.uav[84] utilizationSecCharge 141770
scalar OsgEarthNet.uav[84] utilizationSecIdle 80272.003
scalar OsgEarthNet.uav[84] utilizationEnergyMission 107213.03004391
scalar OsgEarthNet.uav[84] utilizationEnergyMaintenance 73189.37820816
scalar OsgEarthNet.uav[84] utilizationEnergyCharge 177976.54199219
scalar OsgEarthNet.uav[84] utilizationEnergyOverdrawMission 0
scalar OsgEarthNet.uav[84] utilizationEnergyOverdrawMaintenance 0
scalar OsgEarthNet.uav[84] utilizationCountMissions 43
scalar OsgEarthNet.uav[84] utilizationCountManeuversMission 709
scalar OsgEarthNet.uav[84] utilizationCountManeuversMaintenance 87
scalar OsgEarthNet.uav[84] utilizationCountChargeState 43
scalar OsgEarthNet.uav[84] utilizationCountOverdrawnAfterMission 0
scalar OsgEarthNet.uav[84] utilizationCountIdleState 44
scalar OsgEarthNet.uav[84] utilizationFail 0
scalar OsgEarthNet.uav[84] simulationTime 259200
scalar OsgEarthNet.uav[85] utilizationSecMission 35080.407906455
scalar OsgEarthNet.uav[85] utilizationSecMaintenance 15357.589093545
scalar OsgEarthNet.uav[85] utilizationSecCharge 184660
scalar OsgEarthNet.uav[85] utilizationSecIdle 24102.002
scalar OsgEarthNet.uav[85] utilizationEnergyMission 173642.4555237
scalar OsgEarthNet.uav[85] utilizationEnergyMaintenance 71184.354629517
scalar OsgEarthNet.uav[85] utilizationEnergyCharge 239275.24609375
scalar OsgEarthNet.uav[85] utilizationEnergyOverdrawMission 0
scalar OsgEarthNet.uav[85] utilizationEnergyOverdrawMaintenance 0
scalar OsgEarthNet.uav[85] utilizationCountMissions 52
scalar OsgEarthNet.uav[85] utilizationCountManeuversMission 1208
scalar OsgEarthNet.uav[85] utilizationCountManeuversMaintenance 105
scalar OsgEarthNet.uav[85] utilizationCountChargeState 52
scalar OsgEarthNet.uav[85] utilizationCountOverdrawnAfterMission 0
scalar OsgEarthNet.uav[85] utilizationCountIdleState 50
scalar OsgEarthNet.uav[85] utilizationFail 0
scalar OsgEarthNet.uav[85] simulationTime 259200
scalar OsgEarthNet.uav[86] utilizationSecMission 21536.618639633
scalar OsgEarthNet.uav[86] utilizationSecMaintenance 15610.195573161
scalar OsgEarthNet.uav[86] utilizationSecCharge 140270
scalar OsgEarthNet.uav[86] utilizationSecIdle 81783.184787206
scalar OsgEarthNet.uav[86] utilizationEnergyMission 104016.74541092
scalar OsgEarthNet.uav[86] utilizationEnergyMaintenance 74288.357925415
scalar OsgEarthNet.uav[86] utilizationEnergyCharge 180072.10205078
scalar OsgEarthNet.uav[86] utilizationEnergyOverdrawMission 0
scalar OsgEarthNet.uav[86] utilizationEnergyOverdrawMaintenance 0
scalar OsgEarthNet.uav[86] utilizationCountMissions 40
scalar OsgEarthNet.uav[86] utilizationCountManeuversMission 795
scalar OsgEarthNet.uav[86] utilizationCountManeuversMaintenance 80
scalar OsgEarthNet.uav[86] utilizationCountChargeState 40
scalar OsgEarthNet.uav[86] utilizationCountOverdrawnAfterMission 0
scalar OsgEarthNet.uav[86] utilizationCountIdleState 41
scalar OsgEarthNet.uav[86] utilizationFail 0
scalar OsgEarthNet.uav[86] simulationTime 259200
scalar OsgEarthNet.uav[87] utilizationSecMission 30091.38479818
scalar OsgEarthNet.uav[87] utilizationSecMaintenance 17042.277679411
scalar OsgEarthNet.uav[87] utilizationSecCharge 179238.92663106
scalar OsgEarthNet.uav[87] utilizationSecIdle 32827.40989135
scalar OsgEarthNet.uav[87] utilizationEnergyMission 143936.72480774
scalar OsgEarthNet.uav[87] utilizationEnergyMaintenance 80473.834911346
scalar OsgEarthNet.uav[87] utilizationEnergyCharge 223462.08618164
scalar OsgEarthNet.uav[87] utilizationEnergyOverdrawMission 0
scalar OsgEarthNet.uav[87] utilizationEnergyOverdrawMaintenance 0
scalar OsgEarthNet.uav[87] utilizationCountMissions 56
scalar OsgEarthNet.uav[87] utilizationCountManeuversMission 866
scalar OsgEarthNet.uav[87] utilizationCountManeuversMaintenance 112
scalar OsgEarthNet.uav[87] utilizationCountChargeState 56
scalar OsgEarthNet.uav[87] utilizationCountOverdrawnAfterMission 0
scalar OsgEarthNet.uav[87] utilizationCountIdleState 56
scalar OsgEarthNet.uav[87] utilizationFail 0
scalar OsgEarthNet.uav[87] simulationTime 259200
scalar OsgEarthNet.cs[0] usedPower 4000817.3768875
scalar OsgEarthNet.cs[0] chargedPower 4000817.3768875
scalar OsgEarthNet.cs[0] chargedMobileNodes 878
scalar OsgEarthNet.cs[0] reservations 892
scalar OsgEarthNet.cs[1] usedPower 5697381.0667513
scalar OsgEarthNet.cs[1] chargedPower 5697381.0667513
scalar OsgEarthNet.cs[1] chargedMobileNodes 1391
scalar OsgEarthNet.cs[1] reservations 1412
scalar OsgEarthNet.cs[2] usedPower 6962580.1301535
scalar OsgEarthNet.cs[2] chargedPower 6962580.1301535
scalar OsgEarthNet.cs[2] chargedMobileNodes 1470
scalar OsgEarthNet.cs[2] reservations 1519

