version 2
run Szenario_Hotel_Gabelbach-237-20180719-09:40:04-25676
attr configname Szenario_Hotel_Gabelbach
attr datetime 20180719-09:40:04
attr experiment Szenario_Hotel_Gabelbach
attr inifile omnetpp.ini
attr iterationvars "$replM=2, $biWeight=0.35, $replSearchM=1, $numUAVs=68"
attr iterationvarsf replM=2,biWeight=0.35,replSearchM=1,numUAVs=68-
attr measurement "$replM=2, $biWeight=0.35, $replSearchM=1, $numUAVs=68"
attr network OsgEarthNet
attr processid 25676
attr repetition 21
attr replication #21
attr resultdir results
attr runnumber 237
attr seedset 237
itervar biWeight 0.35
itervar numUAVs 68
itervar replM 2
itervar replSearchM 1
param *.osgEarthScene.scene "\"Szenario_Hotel_Gabelbach.earth\""
param *.playgroundLatitude 50.6830269
param *.playgroundLongitude 10.8538055
param *.playgroundWidth 3500m
param *.playgroundHeight 3500m
param *.cs[0].posX 3537m
param *.cs[0].posY 965m
param *.cs[0].posZ 538m
param *.cs[1].posX 312m
param *.cs[1].posY 1262m
param *.cs[1].posZ 539m
param *.cs[2].posX 2185m
param *.cs[2].posY 3026m
param *.cs[2].posZ 777m
param *.cs[3].posX 10m
param *.cs[3].posY 2200m
param *.cs[3].posZ 560m
param *.cs[4].posX 750m
param *.cs[4].posY 200m
param *.cs[4].posZ 540m
param *.cs[5].posX 2450m
param *.cs[5].posY 180m
param *.cs[5].posZ 524m
param *.cs[6].posX 3140m
param *.cs[6].posY 1790m
param *.cs[6].posZ 606m
param *.numCSs 3
param *.uav[*].replacementMethod 2
param *.uav[*].weightedSumWeight 0.35
param *.missionControl.replacementSearchMethod 1
param *.numUAVs 68
param *.*.timeStep 10s
param *.uav[*].commandPreviewCommandCount 20
param *.missionControl.missionFiles "\"missions\\\\Szenario_WB_Hotel_Gabelbach_Mission_Hotel.waypoints,missions\\\\Szenario_WB_Hotel_Gabelbach_Mission_Kickelhahn.waypoints,missions\\\\Szenario_WB_Hotel_Gabelbach_Mission_Ilmenau_Sportplatz.waypoints,missions\\\\Szenario_WB_Hotel_Gabelbach_Mission_Manebach_Mitte.waypoints,missions\\\\Szenario_WB_Hotel_Gabelbach_Mission_Manebach_Sued.waypoints,missions\\\\Szenario_WB_Hotel_Gabelbach_Hover_HoheSchlaufe.waypoints,missions\\\\Szenario_WB_Hotel_Gabelbach_Hover_Kickelhahn.waypoints,missions\\\\Szenario_WB_Hotel_Gabelbach_Hover_Gabelbachskopf.waypoints,missions\\\\Szenario_WB_Hotel_Gabelbach_Hover_Dachskopf.waypoints\""
param *.uav[0].startX 3537m
param *.uav[0].startY 965m
param *.uav[0].startZ 539m
param *.uav[1].startX 312m
param *.uav[1].startY 1262m
param *.uav[1].startZ 540m
param *.uav[2].startX 2185m
param *.uav[2].startY 3026m
param *.uav[2].startZ 778m
param *.uav[3].startX 3537m
param *.uav[3].startY 965m
param *.uav[3].startZ 539m
param *.uav[4].startX 312m
param *.uav[4].startY 1262m
param *.uav[4].startZ 540m
param *.uav[5].startX 2185m
param *.uav[5].startY 3026m
param *.uav[5].startZ 778m
param *.uav[6].startX 3537m
param *.uav[6].startY 965m
param *.uav[6].startZ 539m
param *.uav[7].startX 312m
param *.uav[7].startY 1262m
param *.uav[7].startZ 540m
param *.uav[8].startX 2185m
param *.uav[8].startY 3026m
param *.uav[8].startZ 778m
param *.uav[9].startX 3537m
param *.uav[9].startY 965m
param *.uav[9].startZ 539m
param *.uav[10].startX 3537m
param *.uav[10].startY 965m
param *.uav[10].startZ 539m
param *.uav[11].startX 312m
param *.uav[11].startY 1262m
param *.uav[11].startZ 540m
param *.uav[12].startX 2185m
param *.uav[12].startY 3026m
param *.uav[12].startZ 778m
param *.uav[13].startX 3537m
param *.uav[13].startY 965m
param *.uav[13].startZ 539m
param *.uav[14].startX 312m
param *.uav[14].startY 1262m
param *.uav[14].startZ 540m
param *.uav[15].startX 2185m
param *.uav[15].startY 3026m
param *.uav[15].startZ 778m
param *.uav[16].startX 3537m
param *.uav[16].startY 965m
param *.uav[16].startZ 539m
param *.uav[17].startX 312m
param *.uav[17].startY 1262m
param *.uav[17].startZ 540m
param *.uav[18].startX 2185m
param *.uav[18].startY 3026m
param *.uav[18].startZ 778m
param *.uav[19].startX 3537m
param *.uav[19].startY 965m
param *.uav[19].startZ 539m
param *.uav[20].startX 3537m
param *.uav[20].startY 965m
param *.uav[20].startZ 539m
param *.uav[21].startX 312m
param *.uav[21].startY 1262m
param *.uav[21].startZ 540m
param *.uav[22].startX 2185m
param *.uav[22].startY 3026m
param *.uav[22].startZ 778m
param *.uav[23].startX 3537m
param *.uav[23].startY 965m
param *.uav[23].startZ 539m
param *.uav[24].startX 312m
param *.uav[24].startY 1262m
param *.uav[24].startZ 540m
param *.uav[25].startX 2185m
param *.uav[25].startY 3026m
param *.uav[25].startZ 778m
param *.uav[26].startX 3537m
param *.uav[26].startY 965m
param *.uav[26].startZ 539m
param *.uav[27].startX 312m
param *.uav[27].startY 1262m
param *.uav[27].startZ 540m
param *.uav[28].startX 2185m
param *.uav[28].startY 3026m
param *.uav[28].startZ 778m
param *.uav[29].startX 3537m
param *.uav[29].startY 965m
param *.uav[29].startZ 539m
param *.uav[30].startX 3537m
param *.uav[30].startY 965m
param *.uav[30].startZ 539m
param *.uav[31].startX 312m
param *.uav[31].startY 1262m
param *.uav[31].startZ 540m
param *.uav[32].startX 2185m
param *.uav[32].startY 3026m
param *.uav[32].startZ 778m
param *.uav[33].startX 3537m
param *.uav[33].startY 965m
param *.uav[33].startZ 539m
param *.uav[34].startX 312m
param *.uav[34].startY 1262m
param *.uav[34].startZ 540m
param *.uav[35].startX 2185m
param *.uav[35].startY 3026m
param *.uav[35].startZ 778m
param *.uav[36].startX 3537m
param *.uav[36].startY 965m
param *.uav[36].startZ 539m
param *.uav[37].startX 312m
param *.uav[37].startY 1262m
param *.uav[37].startZ 540m
param *.uav[38].startX 2185m
param *.uav[38].startY 3026m
param *.uav[38].startZ 778m
param *.uav[39].startX 3537m
param *.uav[39].startY 965m
param *.uav[39].startZ 539m
param *.uav[40].startX 3537m
param *.uav[40].startY 965m
param *.uav[40].startZ 539m
param *.uav[41].startX 312m
param *.uav[41].startY 1262m
param *.uav[41].startZ 540m
param *.uav[42].startX 2185m
param *.uav[42].startY 3026m
param *.uav[42].startZ 778m
param *.uav[43].startX 3537m
param *.uav[43].startY 965m
param *.uav[43].startZ 539m
param *.uav[44].startX 312m
param *.uav[44].startY 1262m
param *.uav[44].startZ 540m
param *.uav[45].startX 2185m
param *.uav[45].startY 3026m
param *.uav[45].startZ 778m
param *.uav[46].startX 3537m
param *.uav[46].startY 965m
param *.uav[46].startZ 539m
param *.uav[47].startX 312m
param *.uav[47].startY 1262m
param *.uav[47].startZ 540m
param *.uav[48].startX 2185m
param *.uav[48].startY 3026m
param *.uav[48].startZ 778m
param *.uav[49].startX 3537m
param *.uav[49].startY 965m
param *.uav[49].startZ 539m
param *.uav[50].startX 3537m
param *.uav[50].startY 965m
param *.uav[50].startZ 539m
param *.uav[51].startX 312m
param *.uav[51].startY 1262m
param *.uav[51].startZ 540m
param *.uav[52].startX 2185m
param *.uav[52].startY 3026m
param *.uav[52].startZ 778m
param *.uav[53].startX 3537m
param *.uav[53].startY 965m
param *.uav[53].startZ 539m
param *.uav[54].startX 312m
param *.uav[54].startY 1262m
param *.uav[54].startZ 540m
param *.uav[55].startX 2185m
param *.uav[55].startY 3026m
param *.uav[55].startZ 778m
param *.uav[56].startX 3537m
param *.uav[56].startY 965m
param *.uav[56].startZ 539m
param *.uav[57].startX 312m
param *.uav[57].startY 1262m
param *.uav[57].startZ 540m
param *.uav[58].startX 2185m
param *.uav[58].startY 3026m
param *.uav[58].startZ 778m
param *.uav[59].startX 3537m
param *.uav[59].startY 965m
param *.uav[59].startZ 539m
param *.uav[60].startX 3537m
param *.uav[60].startY 965m
param *.uav[60].startZ 539m
param *.uav[61].startX 312m
param *.uav[61].startY 1262m
param *.uav[61].startZ 540m
param *.uav[62].startX 2185m
param *.uav[62].startY 3026m
param *.uav[62].startZ 778m
param *.uav[63].startX 3537m
param *.uav[63].startY 965m
param *.uav[63].startZ 539m
param *.uav[64].startX 312m
param *.uav[64].startY 1262m
param *.uav[64].startZ 540m
param *.uav[65].startX 2185m
param *.uav[65].startY 3026m
param *.uav[65].startZ 778m
param *.uav[66].startX 3537m
param *.uav[66].startY 965m
param *.uav[66].startZ 539m
param *.uav[67].startX 312m
param *.uav[67].startY 1262m
param *.uav[67].startZ 540m
param *.uav[68].startX 2185m
param *.uav[68].startY 3026m
param *.uav[68].startZ 778m
param *.uav[69].startX 3537m
param *.uav[69].startY 965m
param *.uav[69].startZ 539m
param *.uav[70].startX 3537m
param *.uav[70].startY 965m
param *.uav[70].startZ 539m
param *.uav[71].startX 312m
param *.uav[71].startY 1262m
param *.uav[71].startZ 540m
param *.uav[72].startX 2185m
param *.uav[72].startY 3026m
param *.uav[72].startZ 778m
param *.uav[73].startX 3537m
param *.uav[73].startY 965m
param *.uav[73].startZ 539m
param *.uav[74].startX 312m
param *.uav[74].startY 1262m
param *.uav[74].startZ 540m
param *.uav[75].startX 2185m
param *.uav[75].startY 3026m
param *.uav[75].startZ 778m
param *.uav[76].startX 3537m
param *.uav[76].startY 965m
param *.uav[76].startZ 539m
param *.uav[77].startX 312m
param *.uav[77].startY 1262m
param *.uav[77].startZ 540m
param *.uav[78].startX 2185m
param *.uav[78].startY 3026m
param *.uav[78].startZ 778m
param *.uav[79].startX 3537m
param *.uav[79].startY 965m
param *.uav[79].startZ 539m
param *.uav[80].startX 3537m
param *.uav[80].startY 965m
param *.uav[80].startZ 539m
param *.uav[81].startX 312m
param *.uav[81].startY 1262m
param *.uav[81].startZ 540m
param *.uav[82].startX 2185m
param *.uav[82].startY 3026m
param *.uav[82].startZ 778m
param *.uav[83].startX 3537m
param *.uav[83].startY 965m
param *.uav[83].startZ 539m
param *.uav[84].startX 312m
param *.uav[84].startY 1262m
param *.uav[84].startZ 540m
param *.uav[85].startX 2185m
param *.uav[85].startY 3026m
param *.uav[85].startZ 778m
param *.uav[86].startX 3537m
param *.uav[86].startY 965m
param *.uav[86].startZ 539m
param *.uav[87].startX 312m
param *.uav[87].startY 1262m
param *.uav[87].startZ 540m
param *.uav[88].startX 2185m
param *.uav[88].startY 3026m
param *.uav[88].startZ 778m
param *.uav[89].startX 3537m
param *.uav[89].startY 965m
param *.uav[89].startZ 539m
param *.uav[90].startX 3537m
param *.uav[90].startY 965m
param *.uav[90].startZ 539m
param *.uav[91].startX 312m
param *.uav[91].startY 1262m
param *.uav[91].startZ 540m
param *.uav[92].startX 2185m
param *.uav[92].startY 3026m
param *.uav[92].startZ 778m
param *.uav[93].startX 3537m
param *.uav[93].startY 965m
param *.uav[93].startZ 539m
param *.uav[94].startX 312m
param *.uav[94].startY 1262m
param *.uav[94].startZ 540m
param *.uav[95].startX 2185m
param *.uav[95].startY 3026m
param *.uav[95].startZ 778m
param *.uav[96].startX 3537m
param *.uav[96].startY 965m
param *.uav[96].startZ 539m
param *.uav[97].startX 312m
param *.uav[97].startY 1262m
param *.uav[97].startZ 540m
param *.uav[98].startX 2185m
param *.uav[98].startY 3026m
param *.uav[98].startZ 778m
param *.uav[99].startX 3537m
param *.uav[99].startY 965m
param *.uav[99].startZ 539m
param *.osgEarthScene.scene "\"boston.earth\""
param *.playgroundLatitude 42.3558
param *.playgroundLongitude -71.0677
param *.playgroundWidth 400m
param *.playgroundHeight 200m
param *.channelController.connectionColor "\"#0000FF40\""
param *.channelController.showConnections false
param *.uav[*].modelURL "\"quadrocopter.small.obj.15.scale.0,0,90.rot\""
param *.uav[*].labelColor "\"#FF7C00CC\""
param *.uav[*].label2Color "\"#FF7C00EE\""
param *.uav[*].batteryCapacity 5200mAh
param *.uav[*].batteryRemaining uav[index].batteryCapacity
param *.uav[*].predictionQuantile 0.95
param *.uav[*].replacementMethod 2
param *.uav[*].weightedSumWeight 0.5
param *.cs[*].modelURL "\"chargingstation_v1.osgt.2.scale.0,0,0.rot.0,0,-15e-1.trans\""
param *.cs[*].spotsWaiting 999
param *.cs[*].spotsCharging 999
param *.cs[*].chargeEffectivenessPercentage 100
param *.cs[*].nonLinearPhaseStartPercentage 85
param *.cs[*].chargeCurrent 6.0A
param *.cs[*].prioritizeFastCharge true
param *.missionControl.replacementSearchMethod 0
param *.*.timeStep 9s

scalar OsgEarthNet.uav[0] utilizationSecMission 31876.612267985
scalar OsgEarthNet.uav[0] utilizationSecMaintenance 17947.628158279
scalar OsgEarthNet.uav[0] utilizationSecCharge 188553.75357374
scalar OsgEarthNet.uav[0] utilizationSecIdle 20822.005
scalar OsgEarthNet.uav[0] utilizationEnergyMission 152576.01535797
scalar OsgEarthNet.uav[0] utilizationEnergyMaintenance 85655.44216156
scalar OsgEarthNet.uav[0] utilizationEnergyCharge 237681.43286133
scalar OsgEarthNet.uav[0] utilizationEnergyOverdrawMission 0
scalar OsgEarthNet.uav[0] utilizationEnergyOverdrawMaintenance 0
scalar OsgEarthNet.uav[0] utilizationCountMissions 58
scalar OsgEarthNet.uav[0] utilizationCountManeuversMission 873
scalar OsgEarthNet.uav[0] utilizationCountManeuversMaintenance 116
scalar OsgEarthNet.uav[0] utilizationCountChargeState 58
scalar OsgEarthNet.uav[0] utilizationCountOverdrawnAfterMission 0
scalar OsgEarthNet.uav[0] utilizationCountIdleState 56
scalar OsgEarthNet.uav[0] utilizationFail 0
scalar OsgEarthNet.uav[0] simulationTime 259200
scalar OsgEarthNet.uav[1] utilizationSecMission 32733.321117156
scalar OsgEarthNet.uav[1] utilizationSecMaintenance 17212.874969275
scalar OsgEarthNet.uav[1] utilizationSecCharge 186560
scalar OsgEarthNet.uav[1] utilizationSecIdle 22693.802913569
scalar OsgEarthNet.uav[1] utilizationEnergyMission 157005.81728363
scalar OsgEarthNet.uav[1] utilizationEnergyMaintenance 81883.282346278
scalar OsgEarthNet.uav[1] utilizationEnergyCharge 234315.07397461
scalar OsgEarthNet.uav[1] utilizationEnergyOverdrawMission 0
scalar OsgEarthNet.uav[1] utilizationEnergyOverdrawMaintenance 0
scalar OsgEarthNet.uav[1] utilizationCountMissions 57
scalar OsgEarthNet.uav[1] utilizationCountManeuversMission 881
scalar OsgEarthNet.uav[1] utilizationCountManeuversMaintenance 115
scalar OsgEarthNet.uav[1] utilizationCountChargeState 57
scalar OsgEarthNet.uav[1] utilizationCountOverdrawnAfterMission 0
scalar OsgEarthNet.uav[1] utilizationCountIdleState 56
scalar OsgEarthNet.uav[1] utilizationFail 0
scalar OsgEarthNet.uav[1] simulationTime 259200
scalar OsgEarthNet.uav[2] utilizationSecMission 36395.373387803
scalar OsgEarthNet.uav[2] utilizationSecMaintenance 15594.467417527
scalar OsgEarthNet.uav[2] utilizationSecCharge 190378.15519467
scalar OsgEarthNet.uav[2] utilizationSecIdle 16832.003
scalar OsgEarthNet.uav[2] utilizationEnergyMission 178422.56969452
scalar OsgEarthNet.uav[2] utilizationEnergyMaintenance 71472.976795197
scalar OsgEarthNet.uav[2] utilizationEnergyCharge 248965.55712891
scalar OsgEarthNet.uav[2] utilizationEnergyOverdrawMission 0
scalar OsgEarthNet.uav[2] utilizationEnergyOverdrawMaintenance 0
scalar OsgEarthNet.uav[2] utilizationCountMissions 54
scalar OsgEarthNet.uav[2] utilizationCountManeuversMission 1252
scalar OsgEarthNet.uav[2] utilizationCountManeuversMaintenance 108
scalar OsgEarthNet.uav[2] utilizationCountChargeState 54
scalar OsgEarthNet.uav[2] utilizationCountOverdrawnAfterMission 0
scalar OsgEarthNet.uav[2] utilizationCountIdleState 48
scalar OsgEarthNet.uav[2] utilizationFail 0
scalar OsgEarthNet.uav[2] simulationTime 259200
scalar OsgEarthNet.uav[3] utilizationSecMission 32505.052666951
scalar OsgEarthNet.uav[3] utilizationSecMaintenance 17428.423230248
scalar OsgEarthNet.uav[3] utilizationSecCharge 185141.87868347
scalar OsgEarthNet.uav[3] utilizationSecIdle 24124.64441933
scalar OsgEarthNet.uav[3] utilizationEnergyMission 156630.69356155
scalar OsgEarthNet.uav[3] utilizationEnergyMaintenance 82301.224029541
scalar OsgEarthNet.uav[3] utilizationEnergyCharge 237210.29003906
scalar OsgEarthNet.uav[3] utilizationEnergyOverdrawMission 0
scalar OsgEarthNet.uav[3] utilizationEnergyOverdrawMaintenance 0
scalar OsgEarthNet.uav[3] utilizationCountMissions 55
scalar OsgEarthNet.uav[3] utilizationCountManeuversMission 894
scalar OsgEarthNet.uav[3] utilizationCountManeuversMaintenance 110
scalar OsgEarthNet.uav[3] utilizationCountChargeState 55
scalar OsgEarthNet.uav[3] utilizationCountOverdrawnAfterMission 0
scalar OsgEarthNet.uav[3] utilizationCountIdleState 49
scalar OsgEarthNet.uav[3] utilizationFail 0
scalar OsgEarthNet.uav[3] simulationTime 259200
scalar OsgEarthNet.uav[4] utilizationSecMission 33455.153278562
scalar OsgEarthNet.uav[4] utilizationSecMaintenance 16868.421460215
scalar OsgEarthNet.uav[4] utilizationSecCharge 187350
scalar OsgEarthNet.uav[4] utilizationSecIdle 21526.424261223
scalar OsgEarthNet.uav[4] utilizationEnergyMission 159364.72386551
scalar OsgEarthNet.uav[4] utilizationEnergyMaintenance 80273.977532635
scalar OsgEarthNet.uav[4] utilizationEnergyCharge 238257.9296875
scalar OsgEarthNet.uav[4] utilizationEnergyOverdrawMission 0
scalar OsgEarthNet.uav[4] utilizationEnergyOverdrawMaintenance 0
scalar OsgEarthNet.uav[4] utilizationCountMissions 56
scalar OsgEarthNet.uav[4] utilizationCountManeuversMission 889
scalar OsgEarthNet.uav[4] utilizationCountManeuversMaintenance 113
scalar OsgEarthNet.uav[4] utilizationCountChargeState 56
scalar OsgEarthNet.uav[4] utilizationCountOverdrawnAfterMission 0
scalar OsgEarthNet.uav[4] utilizationCountIdleState 54
scalar OsgEarthNet.uav[4] utilizationFail 0
scalar OsgEarthNet.uav[4] simulationTime 259200
scalar OsgEarthNet.uav[5] utilizationSecMission 36410.469266898
scalar OsgEarthNet.uav[5] utilizationSecMaintenance 16117.42540424
scalar OsgEarthNet.uav[5] utilizationSecCharge 193890.10432886
scalar OsgEarthNet.uav[5] utilizationSecIdle 12782
scalar OsgEarthNet.uav[5] utilizationEnergyMission 179721.91730118
scalar OsgEarthNet.uav[5] utilizationEnergyMaintenance 74304.745037079
scalar OsgEarthNet.uav[5] utilizationEnergyCharge 253493.89599609
scalar OsgEarthNet.uav[5] utilizationEnergyOverdrawMission 0
scalar OsgEarthNet.uav[5] utilizationEnergyOverdrawMaintenance 0
scalar OsgEarthNet.uav[5] utilizationCountMissions 55
scalar OsgEarthNet.uav[5] utilizationCountManeuversMission 1264
scalar OsgEarthNet.uav[5] utilizationCountManeuversMaintenance 110
scalar OsgEarthNet.uav[5] utilizationCountChargeState 55
scalar OsgEarthNet.uav[5] utilizationCountOverdrawnAfterMission 0
scalar OsgEarthNet.uav[5] utilizationCountIdleState 48
scalar OsgEarthNet.uav[5] utilizationFail 0
scalar OsgEarthNet.uav[5] simulationTime 259200
scalar OsgEarthNet.uav[6] utilizationSecMission 33193.971506925
scalar OsgEarthNet.uav[6] utilizationSecMaintenance 19970.619211607
scalar OsgEarthNet.uav[6] utilizationSecCharge 191163.39828147
scalar OsgEarthNet.uav[6] utilizationSecIdle 14872.01
scalar OsgEarthNet.uav[6] utilizationEnergyMission 161148.984272
scalar OsgEarthNet.uav[6] utilizationEnergyMaintenance 95298.86082077
scalar OsgEarthNet.uav[6] utilizationEnergyCharge 251958.96588135
scalar OsgEarthNet.uav[6] utilizationEnergyOverdrawMission 0
scalar OsgEarthNet.uav[6] utilizationEnergyOverdrawMaintenance 0
scalar OsgEarthNet.uav[6] utilizationCountMissions 57
scalar OsgEarthNet.uav[6] utilizationCountManeuversMission 1053
scalar OsgEarthNet.uav[6] utilizationCountManeuversMaintenance 114
scalar OsgEarthNet.uav[6] utilizationCountChargeState 57
scalar OsgEarthNet.uav[6] utilizationCountOverdrawnAfterMission 0
scalar OsgEarthNet.uav[6] utilizationCountIdleState 37
scalar OsgEarthNet.uav[6] utilizationFail 0
scalar OsgEarthNet.uav[6] simulationTime 259200
scalar OsgEarthNet.uav[7] utilizationSecMission 36665.349347265
scalar OsgEarthNet.uav[7] utilizationSecMaintenance 15352.304295459
scalar OsgEarthNet.uav[7] utilizationSecCharge 189506.90226858
scalar OsgEarthNet.uav[7] utilizationSecIdle 17675.443088691
scalar OsgEarthNet.uav[7] utilizationEnergyMission 178226.02134323
scalar OsgEarthNet.uav[7] utilizationEnergyMaintenance 71142.162055969
scalar OsgEarthNet.uav[7] utilizationEnergyCharge 248086.12207031
scalar OsgEarthNet.uav[7] utilizationEnergyOverdrawMission 0
scalar OsgEarthNet.uav[7] utilizationEnergyOverdrawMaintenance 0
scalar OsgEarthNet.uav[7] utilizationCountMissions 54
scalar OsgEarthNet.uav[7] utilizationCountManeuversMission 1131
scalar OsgEarthNet.uav[7] utilizationCountManeuversMaintenance 108
scalar OsgEarthNet.uav[7] utilizationCountChargeState 54
scalar OsgEarthNet.uav[7] utilizationCountOverdrawnAfterMission 0
scalar OsgEarthNet.uav[7] utilizationCountIdleState 49
scalar OsgEarthNet.uav[7] utilizationFail 0
scalar OsgEarthNet.uav[7] simulationTime 259200
scalar OsgEarthNet.uav[8] utilizationSecMission 36738.957921145
scalar OsgEarthNet.uav[8] utilizationSecMaintenance 15883.528961782
scalar OsgEarthNet.uav[8] utilizationSecCharge 191620.06185304
scalar OsgEarthNet.uav[8] utilizationSecIdle 14957.450264031
scalar OsgEarthNet.uav[8] utilizationEnergyMission 179429.29825211
scalar OsgEarthNet.uav[8] utilizationEnergyMaintenance 74261.98059082
scalar OsgEarthNet.uav[8] utilizationEnergyCharge 250806.46099854
scalar OsgEarthNet.uav[8] utilizationEnergyOverdrawMission 0
scalar OsgEarthNet.uav[8] utilizationEnergyOverdrawMaintenance 0
scalar OsgEarthNet.uav[8] utilizationCountMissions 55
scalar OsgEarthNet.uav[8] utilizationCountManeuversMission 1187
scalar OsgEarthNet.uav[8] utilizationCountManeuversMaintenance 110
scalar OsgEarthNet.uav[8] utilizationCountChargeState 55
scalar OsgEarthNet.uav[8] utilizationCountOverdrawnAfterMission 0
scalar OsgEarthNet.uav[8] utilizationCountIdleState 46
scalar OsgEarthNet.uav[8] utilizationFail 0
scalar OsgEarthNet.uav[8] simulationTime 259200
scalar OsgEarthNet.uav[9] utilizationSecMission 34556.879119668
scalar OsgEarthNet.uav[9] utilizationSecMaintenance 19337.616628342
scalar OsgEarthNet.uav[9] utilizationSecCharge 192993.50025199
scalar OsgEarthNet.uav[9] utilizationSecIdle 12312.003
scalar OsgEarthNet.uav[9] utilizationEnergyMission 166563.97839737
scalar OsgEarthNet.uav[9] utilizationEnergyMaintenance 92587.896831512
scalar OsgEarthNet.uav[9] utilizationEnergyCharge 254781.29492188
scalar OsgEarthNet.uav[9] utilizationEnergyOverdrawMission 0
scalar OsgEarthNet.uav[9] utilizationEnergyOverdrawMaintenance 0
scalar OsgEarthNet.uav[9] utilizationCountMissions 57
scalar OsgEarthNet.uav[9] utilizationCountManeuversMission 1025
scalar OsgEarthNet.uav[9] utilizationCountManeuversMaintenance 114
scalar OsgEarthNet.uav[9] utilizationCountChargeState 57
scalar OsgEarthNet.uav[9] utilizationCountOverdrawnAfterMission 0
scalar OsgEarthNet.uav[9] utilizationCountIdleState 34
scalar OsgEarthNet.uav[9] utilizationFail 0
scalar OsgEarthNet.uav[9] simulationTime 259200
scalar OsgEarthNet.uav[10] utilizationSecMission 30856.081605029
scalar OsgEarthNet.uav[10] utilizationSecMaintenance 18363.346298723
scalar OsgEarthNet.uav[10] utilizationSecCharge 188548.57109625
scalar OsgEarthNet.uav[10] utilizationSecIdle 21432
scalar OsgEarthNet.uav[10] utilizationEnergyMission 149871.69497681
scalar OsgEarthNet.uav[10] utilizationEnergyMaintenance 87437.201145172
scalar OsgEarthNet.uav[10] utilizationEnergyCharge 235924.40258789
scalar OsgEarthNet.uav[10] utilizationEnergyOverdrawMission 0
scalar OsgEarthNet.uav[10] utilizationEnergyOverdrawMaintenance 0
scalar OsgEarthNet.uav[10] utilizationCountMissions 59
scalar OsgEarthNet.uav[10] utilizationCountManeuversMission 888
scalar OsgEarthNet.uav[10] utilizationCountManeuversMaintenance 118
scalar OsgEarthNet.uav[10] utilizationCountChargeState 59
scalar OsgEarthNet.uav[10] utilizationCountOverdrawnAfterMission 0
scalar OsgEarthNet.uav[10] utilizationCountIdleState 54
scalar OsgEarthNet.uav[10] utilizationFail 0
scalar OsgEarthNet.uav[10] simulationTime 259200
scalar OsgEarthNet.uav[11] utilizationSecMission 32962.866682039
scalar OsgEarthNet.uav[11] utilizationSecMaintenance 17356.39443446
scalar OsgEarthNet.uav[11] utilizationSecCharge 186912.38527996
scalar OsgEarthNet.uav[11] utilizationSecIdle 21968.35260354
scalar OsgEarthNet.uav[11] utilizationEnergyMission 156994.19643402
scalar OsgEarthNet.uav[11] utilizationEnergyMaintenance 81548.753574371
scalar OsgEarthNet.uav[11] utilizationEnergyCharge 234794.48944092
scalar OsgEarthNet.uav[11] utilizationEnergyOverdrawMission 0
scalar OsgEarthNet.uav[11] utilizationEnergyOverdrawMaintenance 0
scalar OsgEarthNet.uav[11] utilizationCountMissions 58
scalar OsgEarthNet.uav[11] utilizationCountManeuversMission 878
scalar OsgEarthNet.uav[11] utilizationCountManeuversMaintenance 116
scalar OsgEarthNet.uav[11] utilizationCountChargeState 58
scalar OsgEarthNet.uav[11] utilizationCountOverdrawnAfterMission 0
scalar OsgEarthNet.uav[11] utilizationCountIdleState 52
scalar OsgEarthNet.uav[11] utilizationFail 0
scalar OsgEarthNet.uav[11] simulationTime 259200
scalar OsgEarthNet.uav[12] utilizationSecMission 37728.956520288
scalar OsgEarthNet.uav[12] utilizationSecMaintenance 15529.655982802
scalar OsgEarthNet.uav[12] utilizationSecCharge 193072.2113865
scalar OsgEarthNet.uav[12] utilizationSecIdle 12869.175110411
scalar OsgEarthNet.uav[12] utilizationEnergyMission 181807.12758255
scalar OsgEarthNet.uav[12] utilizationEnergyMaintenance 71155.544452667
scalar OsgEarthNet.uav[12] utilizationEnergyCharge 252830.92553711
scalar OsgEarthNet.uav[12] utilizationEnergyOverdrawMission 0
scalar OsgEarthNet.uav[12] utilizationEnergyOverdrawMaintenance 0
scalar OsgEarthNet.uav[12] utilizationCountMissions 55
scalar OsgEarthNet.uav[12] utilizationCountManeuversMission 1157
scalar OsgEarthNet.uav[12] utilizationCountManeuversMaintenance 110
scalar OsgEarthNet.uav[12] utilizationCountChargeState 55
scalar OsgEarthNet.uav[12] utilizationCountOverdrawnAfterMission 0
scalar OsgEarthNet.uav[12] utilizationCountIdleState 40
scalar OsgEarthNet.uav[12] utilizationFail 0
scalar OsgEarthNet.uav[12] simulationTime 259200
scalar OsgEarthNet.uav[13] utilizationSecMission 30611.976073591
scalar OsgEarthNet.uav[13] utilizationSecMaintenance 17382.818984853
scalar OsgEarthNet.uav[13] utilizationSecCharge 184700
scalar OsgEarthNet.uav[13] utilizationSecIdle 26505.203941557
scalar OsgEarthNet.uav[13] utilizationEnergyMission 146645.93467712
scalar OsgEarthNet.uav[13] utilizationEnergyMaintenance 82136.343631744
scalar OsgEarthNet.uav[13] utilizationEnergyCharge 228954.86450195
scalar OsgEarthNet.uav[13] utilizationEnergyOverdrawMission 0
scalar OsgEarthNet.uav[13] utilizationEnergyOverdrawMaintenance 0
scalar OsgEarthNet.uav[13] utilizationCountMissions 58
scalar OsgEarthNet.uav[13] utilizationCountManeuversMission 852
scalar OsgEarthNet.uav[13] utilizationCountManeuversMaintenance 116
scalar OsgEarthNet.uav[13] utilizationCountChargeState 58
scalar OsgEarthNet.uav[13] utilizationCountOverdrawnAfterMission 0
scalar OsgEarthNet.uav[13] utilizationCountIdleState 56
scalar OsgEarthNet.uav[13] utilizationFail 0
scalar OsgEarthNet.uav[13] simulationTime 259200
scalar OsgEarthNet.uav[14] utilizationSecMission 31855.683698163
scalar OsgEarthNet.uav[14] utilizationSecMaintenance 18285.735920163
scalar OsgEarthNet.uav[14] utilizationSecCharge 190360
scalar OsgEarthNet.uav[14] utilizationSecIdle 18698.579381674
scalar OsgEarthNet.uav[14] utilizationEnergyMission 154508.24194717
scalar OsgEarthNet.uav[14] utilizationEnergyMaintenance 86622.097019196
scalar OsgEarthNet.uav[14] utilizationEnergyCharge 239901.84936523
scalar OsgEarthNet.uav[14] utilizationEnergyOverdrawMission 0
scalar OsgEarthNet.uav[14] utilizationEnergyOverdrawMaintenance 0
scalar OsgEarthNet.uav[14] utilizationCountMissions 58
scalar OsgEarthNet.uav[14] utilizationCountManeuversMission 962
scalar OsgEarthNet.uav[14] utilizationCountManeuversMaintenance 116
scalar OsgEarthNet.uav[14] utilizationCountChargeState 58
scalar OsgEarthNet.uav[14] utilizationCountOverdrawnAfterMission 0
scalar OsgEarthNet.uav[14] utilizationCountIdleState 53
scalar OsgEarthNet.uav[14] utilizationFail 0
scalar OsgEarthNet.uav[14] simulationTime 259200
scalar OsgEarthNet.uav[15] utilizationSecMission 35818.935870867
scalar OsgEarthNet.uav[15] utilizationSecMaintenance 15728.004110427
scalar OsgEarthNet.uav[15] utilizationSecCharge 190530
scalar OsgEarthNet.uav[15] utilizationSecIdle 17123.059018706
scalar OsgEarthNet.uav[15] utilizationEnergyMission 172485.6764679
scalar OsgEarthNet.uav[15] utilizationEnergyMaintenance 72382.634208679
scalar OsgEarthNet.uav[15] utilizationEnergyCharge 248033.23681641
scalar OsgEarthNet.uav[15] utilizationEnergyOverdrawMission 0
scalar OsgEarthNet.uav[15] utilizationEnergyOverdrawMaintenance 0
scalar OsgEarthNet.uav[15] utilizationCountMissions 54
scalar OsgEarthNet.uav[15] utilizationCountManeuversMission 1142
scalar OsgEarthNet.uav[15] utilizationCountManeuversMaintenance 108
scalar OsgEarthNet.uav[15] utilizationCountChargeState 54
scalar OsgEarthNet.uav[15] utilizationCountOverdrawnAfterMission 0
scalar OsgEarthNet.uav[15] utilizationCountIdleState 49
scalar OsgEarthNet.uav[15] utilizationFail 0
scalar OsgEarthNet.uav[15] simulationTime 259200
scalar OsgEarthNet.uav[16] utilizationSecMission 32252.87719767
scalar OsgEarthNet.uav[16] utilizationSecMaintenance 20961.851230805
scalar OsgEarthNet.uav[16] utilizationSecCharge 190980
scalar OsgEarthNet.uav[16] utilizationSecIdle 15005.270571525
scalar OsgEarthNet.uav[16] utilizationEnergyMission 155331.54498179
scalar OsgEarthNet.uav[16] utilizationEnergyMaintenance 99060.932048797
scalar OsgEarthNet.uav[16] utilizationEnergyCharge 253086.67382812
scalar OsgEarthNet.uav[16] utilizationEnergyOverdrawMission 0
scalar OsgEarthNet.uav[16] utilizationEnergyOverdrawMaintenance 0
scalar OsgEarthNet.uav[16] utilizationCountMissions 56
scalar OsgEarthNet.uav[16] utilizationCountManeuversMission 1113
scalar OsgEarthNet.uav[16] utilizationCountManeuversMaintenance 113
scalar OsgEarthNet.uav[16] utilizationCountChargeState 56
scalar OsgEarthNet.uav[16] utilizationCountOverdrawnAfterMission 0
scalar OsgEarthNet.uav[16] utilizationCountIdleState 33
scalar OsgEarthNet.uav[16] utilizationFail 0
scalar OsgEarthNet.uav[16] simulationTime 259200
scalar OsgEarthNet.uav[17] utilizationSecMission 29831.094812257
scalar OsgEarthNet.uav[17] utilizationSecMaintenance 18340.967251432
scalar OsgEarthNet.uav[17] utilizationSecCharge 185304.26975766
scalar OsgEarthNet.uav[17] utilizationSecIdle 25723.667178648
scalar OsgEarthNet.uav[17] utilizationEnergyMission 143609.34277344
scalar OsgEarthNet.uav[17] utilizationEnergyMaintenance 87296.472946167
scalar OsgEarthNet.uav[17] utilizationEnergyCharge 229963.75048828
scalar OsgEarthNet.uav[17] utilizationEnergyOverdrawMission 0
scalar OsgEarthNet.uav[17] utilizationEnergyOverdrawMaintenance 0
scalar OsgEarthNet.uav[17] utilizationCountMissions 59
scalar OsgEarthNet.uav[17] utilizationCountManeuversMission 910
scalar OsgEarthNet.uav[17] utilizationCountManeuversMaintenance 118
scalar OsgEarthNet.uav[17] utilizationCountChargeState 59
scalar OsgEarthNet.uav[17] utilizationCountOverdrawnAfterMission 0
scalar OsgEarthNet.uav[17] utilizationCountIdleState 56
scalar OsgEarthNet.uav[17] utilizationFail 0
scalar OsgEarthNet.uav[17] simulationTime 259200
scalar OsgEarthNet.uav[18] utilizationSecMission 36802.435135008
scalar OsgEarthNet.uav[18] utilizationSecMaintenance 15700.20405745
scalar OsgEarthNet.uav[18] utilizationSecCharge 189875.35880754
scalar OsgEarthNet.uav[18] utilizationSecIdle 16822.001
scalar OsgEarthNet.uav[18] utilizationEnergyMission 179345.59038544
scalar OsgEarthNet.uav[18] utilizationEnergyMaintenance 71845.973236084
scalar OsgEarthNet.uav[18] utilizationEnergyCharge 247987.1328125
scalar OsgEarthNet.uav[18] utilizationEnergyOverdrawMission 0
scalar OsgEarthNet.uav[18] utilizationEnergyOverdrawMaintenance 0
scalar OsgEarthNet.uav[18] utilizationCountMissions 55
scalar OsgEarthNet.uav[18] utilizationCountManeuversMission 1238
scalar OsgEarthNet.uav[18] utilizationCountManeuversMaintenance 110
scalar OsgEarthNet.uav[18] utilizationCountChargeState 55
scalar OsgEarthNet.uav[18] utilizationCountOverdrawnAfterMission 0
scalar OsgEarthNet.uav[18] utilizationCountIdleState 45
scalar OsgEarthNet.uav[18] utilizationFail 0
scalar OsgEarthNet.uav[18] simulationTime 259200
scalar OsgEarthNet.uav[19] utilizationSecMission 35849.412758608
scalar OsgEarthNet.uav[19] utilizationSecMaintenance 15979.636985727
scalar OsgEarthNet.uav[19] utilizationSecCharge 190220
scalar OsgEarthNet.uav[19] utilizationSecIdle 17150.949255665
scalar OsgEarthNet.uav[19] utilizationEnergyMission 175494.8368836
scalar OsgEarthNet.uav[19] utilizationEnergyMaintenance 73362.50308609
scalar OsgEarthNet.uav[19] utilizationEnergyCharge 247342.91894531
scalar OsgEarthNet.uav[19] utilizationEnergyOverdrawMission 0
scalar OsgEarthNet.uav[19] utilizationEnergyOverdrawMaintenance 0
scalar OsgEarthNet.uav[19] utilizationCountMissions 54
scalar OsgEarthNet.uav[19] utilizationCountManeuversMission 1175
scalar OsgEarthNet.uav[19] utilizationCountManeuversMaintenance 109
scalar OsgEarthNet.uav[19] utilizationCountChargeState 54
scalar OsgEarthNet.uav[19] utilizationCountOverdrawnAfterMission 0
scalar OsgEarthNet.uav[19] utilizationCountIdleState 48
scalar OsgEarthNet.uav[19] utilizationFail 0
scalar OsgEarthNet.uav[19] simulationTime 259200
scalar OsgEarthNet.uav[20] utilizationSecMission 34336.879119668
scalar OsgEarthNet.uav[20] utilizationSecMaintenance 19250.249306373
scalar OsgEarthNet.uav[20] utilizationSecCharge 193830.86957396
scalar OsgEarthNet.uav[20] utilizationSecIdle 11782.001
scalar OsgEarthNet.uav[20] utilizationEnergyMission 166834.52923203
scalar OsgEarthNet.uav[20] utilizationEnergyMaintenance 91571.420909881
scalar OsgEarthNet.uav[20] utilizationEnergyCharge 256025.77612305
scalar OsgEarthNet.uav[20] utilizationEnergyOverdrawMission 0
scalar OsgEarthNet.uav[20] utilizationEnergyOverdrawMaintenance 0
scalar OsgEarthNet.uav[20] utilizationCountMissions 57
scalar OsgEarthNet.uav[20] utilizationCountManeuversMission 1014
scalar OsgEarthNet.uav[20] utilizationCountManeuversMaintenance 114
scalar OsgEarthNet.uav[20] utilizationCountChargeState 57
scalar OsgEarthNet.uav[20] utilizationCountOverdrawnAfterMission 0
scalar OsgEarthNet.uav[20] utilizationCountIdleState 39
scalar OsgEarthNet.uav[20] utilizationFail 0
scalar OsgEarthNet.uav[20] simulationTime 259200
scalar OsgEarthNet.uav[21] utilizationSecMission 30355.480661674
scalar OsgEarthNet.uav[21] utilizationSecMaintenance 19193.555351992
scalar OsgEarthNet.uav[21] utilizationSecCharge 187850
scalar OsgEarthNet.uav[21] utilizationSecIdle 21800.962986334
scalar OsgEarthNet.uav[21] utilizationEnergyMission 148920.52497482
scalar OsgEarthNet.uav[21] utilizationEnergyMaintenance 91376.32662578
scalar OsgEarthNet.uav[21] utilizationEnergyCharge 235915.59130859
scalar OsgEarthNet.uav[21] utilizationEnergyOverdrawMission 0
scalar OsgEarthNet.uav[21] utilizationEnergyOverdrawMaintenance 0
scalar OsgEarthNet.uav[21] utilizationCountMissions 59
scalar OsgEarthNet.uav[21] utilizationCountManeuversMission 1032
scalar OsgEarthNet.uav[21] utilizationCountManeuversMaintenance 118
scalar OsgEarthNet.uav[21] utilizationCountChargeState 58
scalar OsgEarthNet.uav[21] utilizationCountOverdrawnAfterMission 0
scalar OsgEarthNet.uav[21] utilizationCountIdleState 56
scalar OsgEarthNet.uav[21] utilizationFail 0
scalar OsgEarthNet.uav[21] simulationTime 259200
scalar OsgEarthNet.uav[22] utilizationSecMission 36557.485263086
scalar OsgEarthNet.uav[22] utilizationSecMaintenance 14726.264111274
scalar OsgEarthNet.uav[22] utilizationSecCharge 191136.61854498
scalar OsgEarthNet.uav[22] utilizationSecIdle 16779.631080665
scalar OsgEarthNet.uav[22] utilizationEnergyMission 181478.70293808
scalar OsgEarthNet.uav[22] utilizationEnergyMaintenance 67369.186454773
scalar OsgEarthNet.uav[22] utilizationEnergyCharge 248984.40380859
scalar OsgEarthNet.uav[22] utilizationEnergyOverdrawMission 0
scalar OsgEarthNet.uav[22] utilizationEnergyOverdrawMaintenance 0
scalar OsgEarthNet.uav[22] utilizationCountMissions 54
scalar OsgEarthNet.uav[22] utilizationCountManeuversMission 1320
scalar OsgEarthNet.uav[22] utilizationCountManeuversMaintenance 108
scalar OsgEarthNet.uav[22] utilizationCountChargeState 54
scalar OsgEarthNet.uav[22] utilizationCountOverdrawnAfterMission 0
scalar OsgEarthNet.uav[22] utilizationCountIdleState 53
scalar OsgEarthNet.uav[22] utilizationFail 0
scalar OsgEarthNet.uav[22] simulationTime 259200
scalar OsgEarthNet.uav[23] utilizationSecMission 32492.503051606
scalar OsgEarthNet.uav[23] utilizationSecMaintenance 20952.63192194
scalar OsgEarthNet.uav[23] utilizationSecCharge 193300.84575932
scalar OsgEarthNet.uav[23] utilizationSecIdle 12454.018267135
scalar OsgEarthNet.uav[23] utilizationEnergyMission 158477.28001022
scalar OsgEarthNet.uav[23] utilizationEnergyMaintenance 99218.939659118
scalar OsgEarthNet.uav[23] utilizationEnergyCharge 255288.93505859
scalar OsgEarthNet.uav[23] utilizationEnergyOverdrawMission 0
scalar OsgEarthNet.uav[23] utilizationEnergyOverdrawMaintenance 0
scalar OsgEarthNet.uav[23] utilizationCountMissions 57
scalar OsgEarthNet.uav[23] utilizationCountManeuversMission 1104
scalar OsgEarthNet.uav[23] utilizationCountManeuversMaintenance 114
scalar OsgEarthNet.uav[23] utilizationCountChargeState 57
scalar OsgEarthNet.uav[23] utilizationCountOverdrawnAfterMission 0
scalar OsgEarthNet.uav[23] utilizationCountIdleState 32
scalar OsgEarthNet.uav[23] utilizationFail 0
scalar OsgEarthNet.uav[23] simulationTime 259200
scalar OsgEarthNet.uav[24] utilizationSecMission 30517.215459437
scalar OsgEarthNet.uav[24] utilizationSecMaintenance 18460.426136515
scalar OsgEarthNet.uav[24] utilizationSecCharge 189490
scalar OsgEarthNet.uav[24] utilizationSecIdle 20732.357404048
scalar OsgEarthNet.uav[24] utilizationEnergyMission 148063.73628998
scalar OsgEarthNet.uav[24] utilizationEnergyMaintenance 88030.235397339
scalar OsgEarthNet.uav[24] utilizationEnergyCharge 235879.42456055
scalar OsgEarthNet.uav[24] utilizationEnergyOverdrawMission 0
scalar OsgEarthNet.uav[24] utilizationEnergyOverdrawMaintenance 0
scalar OsgEarthNet.uav[24] utilizationCountMissions 59
scalar OsgEarthNet.uav[24] utilizationCountManeuversMission 913
scalar OsgEarthNet.uav[24] utilizationCountManeuversMaintenance 118
scalar OsgEarthNet.uav[24] utilizationCountChargeState 59
scalar OsgEarthNet.uav[24] utilizationCountOverdrawnAfterMission 0
scalar OsgEarthNet.uav[24] utilizationCountIdleState 57
scalar OsgEarthNet.uav[24] utilizationFail 0
scalar OsgEarthNet.uav[24] simulationTime 259200
scalar OsgEarthNet.uav[25] utilizationSecMission 36131.685026627
scalar OsgEarthNet.uav[25] utilizationSecMaintenance 16803.914551133
scalar OsgEarthNet.uav[25] utilizationSecCharge 192672.39742224
scalar OsgEarthNet.uav[25] utilizationSecIdle 13592.002
scalar OsgEarthNet.uav[25] utilizationEnergyMission 177812.65912628
scalar OsgEarthNet.uav[25] utilizationEnergyMaintenance 77131.300827026
scalar OsgEarthNet.uav[25] utilizationEnergyCharge 250953.80554199
scalar OsgEarthNet.uav[25] utilizationEnergyOverdrawMission 0
scalar OsgEarthNet.uav[25] utilizationEnergyOverdrawMaintenance 0
scalar OsgEarthNet.uav[25] utilizationCountMissions 56
scalar OsgEarthNet.uav[25] utilizationCountManeuversMission 1282
scalar OsgEarthNet.uav[25] utilizationCountManeuversMaintenance 112
scalar OsgEarthNet.uav[25] utilizationCountChargeState 56
scalar OsgEarthNet.uav[25] utilizationCountOverdrawnAfterMission 0
scalar OsgEarthNet.uav[25] utilizationCountIdleState 46
scalar OsgEarthNet.uav[25] utilizationFail 0
scalar OsgEarthNet.uav[25] simulationTime 259200
scalar OsgEarthNet.uav[26] utilizationSecMission 32001.619860275
scalar OsgEarthNet.uav[26] utilizationSecMaintenance 21142.570795899
scalar OsgEarthNet.uav[26] utilizationSecCharge 193213.80034383
scalar OsgEarthNet.uav[26] utilizationSecIdle 12842.008
scalar OsgEarthNet.uav[26] utilizationEnergyMission 157278.84195328
scalar OsgEarthNet.uav[26] utilizationEnergyMaintenance 100595.56193161
scalar OsgEarthNet.uav[26] utilizationEnergyCharge 256383.984375
scalar OsgEarthNet.uav[26] utilizationEnergyOverdrawMission 0
scalar OsgEarthNet.uav[26] utilizationEnergyOverdrawMaintenance 0
scalar OsgEarthNet.uav[26] utilizationCountMissions 57
scalar OsgEarthNet.uav[26] utilizationCountManeuversMission 1110
scalar OsgEarthNet.uav[26] utilizationCountManeuversMaintenance 114
scalar OsgEarthNet.uav[26] utilizationCountChargeState 57
scalar OsgEarthNet.uav[26] utilizationCountOverdrawnAfterMission 0
scalar OsgEarthNet.uav[26] utilizationCountIdleState 35
scalar OsgEarthNet.uav[26] utilizationFail 0
scalar OsgEarthNet.uav[26] simulationTime 259200
scalar OsgEarthNet.uav[27] utilizationSecMission 31624.546387768
scalar OsgEarthNet.uav[27] utilizationSecMaintenance 18024.538240719
scalar OsgEarthNet.uav[27] utilizationSecCharge 187158.91437151
scalar OsgEarthNet.uav[27] utilizationSecIdle 22392
scalar OsgEarthNet.uav[27] utilizationEnergyMission 152423.00037384
scalar OsgEarthNet.uav[27] utilizationEnergyMaintenance 85527.023117065
scalar OsgEarthNet.uav[27] utilizationEnergyCharge 233983.54699707
scalar OsgEarthNet.uav[27] utilizationEnergyOverdrawMission 0
scalar OsgEarthNet.uav[27] utilizationEnergyOverdrawMaintenance 0
scalar OsgEarthNet.uav[27] utilizationCountMissions 59
scalar OsgEarthNet.uav[27] utilizationCountManeuversMission 944
scalar OsgEarthNet.uav[27] utilizationCountManeuversMaintenance 118
scalar OsgEarthNet.uav[27] utilizationCountChargeState 59
scalar OsgEarthNet.uav[27] utilizationCountOverdrawnAfterMission 0
scalar OsgEarthNet.uav[27] utilizationCountIdleState 57
scalar OsgEarthNet.uav[27] utilizationFail 0
scalar OsgEarthNet.uav[27] simulationTime 259200
scalar OsgEarthNet.uav[28] utilizationSecMission 36776.971600039
scalar OsgEarthNet.uav[28] utilizationSecMaintenance 15159.731754129
scalar OsgEarthNet.uav[28] utilizationSecCharge 190390
scalar OsgEarthNet.uav[28] utilizationSecIdle 16873.295645831
scalar OsgEarthNet.uav[28] utilizationEnergyMission 178137.59467316
scalar OsgEarthNet.uav[28] utilizationEnergyMaintenance 70065.845283508
scalar OsgEarthNet.uav[28] utilizationEnergyCharge 248363.61035156
scalar OsgEarthNet.uav[28] utilizationEnergyOverdrawMission 0
scalar OsgEarthNet.uav[28] utilizationEnergyOverdrawMaintenance 0
scalar OsgEarthNet.uav[28] utilizationCountMissions 54
scalar OsgEarthNet.uav[28] utilizationCountManeuversMission 1111
scalar OsgEarthNet.uav[28] utilizationCountManeuversMaintenance 108
scalar OsgEarthNet.uav[28] utilizationCountChargeState 54
scalar OsgEarthNet.uav[28] utilizationCountOverdrawnAfterMission 0
scalar OsgEarthNet.uav[28] utilizationCountIdleState 45
scalar OsgEarthNet.uav[28] utilizationFail 0
scalar OsgEarthNet.uav[28] simulationTime 259200
scalar OsgEarthNet.uav[29] utilizationSecMission 30600.537734847
scalar OsgEarthNet.uav[29] utilizationSecMaintenance 18182.291446484
scalar OsgEarthNet.uav[29] utilizationSecCharge 185045.16081867
scalar OsgEarthNet.uav[29] utilizationSecIdle 25372.009
scalar OsgEarthNet.uav[29] utilizationEnergyMission 145682.61141968
scalar OsgEarthNet.uav[29] utilizationEnergyMaintenance 85583.143924713
scalar OsgEarthNet.uav[29] utilizationEnergyCharge 229837.9675293
scalar OsgEarthNet.uav[29] utilizationEnergyOverdrawMission 0
scalar OsgEarthNet.uav[29] utilizationEnergyOverdrawMaintenance 0
scalar OsgEarthNet.uav[29] utilizationCountMissions 59
scalar OsgEarthNet.uav[29] utilizationCountManeuversMission 868
scalar OsgEarthNet.uav[29] utilizationCountManeuversMaintenance 118
scalar OsgEarthNet.uav[29] utilizationCountChargeState 59
scalar OsgEarthNet.uav[29] utilizationCountOverdrawnAfterMission 0
scalar OsgEarthNet.uav[29] utilizationCountIdleState 56
scalar OsgEarthNet.uav[29] utilizationFail 0
scalar OsgEarthNet.uav[29] simulationTime 259200
scalar OsgEarthNet.uav[30] utilizationSecMission 30853.401353414
scalar OsgEarthNet.uav[30] utilizationSecMaintenance 22214.590646586
scalar OsgEarthNet.uav[30] utilizationSecCharge 194010
scalar OsgEarthNet.uav[30] utilizationSecIdle 12122.007
scalar OsgEarthNet.uav[30] utilizationEnergyMission 153537.25221466
scalar OsgEarthNet.uav[30] utilizationEnergyMaintenance 106144.27440643
scalar OsgEarthNet.uav[30] utilizationEnergyCharge 257039.27197266
scalar OsgEarthNet.uav[30] utilizationEnergyOverdrawMission 0
scalar OsgEarthNet.uav[30] utilizationEnergyOverdrawMaintenance 0
scalar OsgEarthNet.uav[30] utilizationCountMissions 57
scalar OsgEarthNet.uav[30] utilizationCountManeuversMission 1153
scalar OsgEarthNet.uav[30] utilizationCountManeuversMaintenance 115
scalar OsgEarthNet.uav[30] utilizationCountChargeState 57
scalar OsgEarthNet.uav[30] utilizationCountOverdrawnAfterMission 0
scalar OsgEarthNet.uav[30] utilizationCountIdleState 29
scalar OsgEarthNet.uav[30] utilizationFail 0
scalar OsgEarthNet.uav[30] simulationTime 259200
scalar OsgEarthNet.uav[31] utilizationSecMission 31396.714910278
scalar OsgEarthNet.uav[31] utilizationSecMaintenance 18112.037210321
scalar OsgEarthNet.uav[31] utilizationSecCharge 188666.5421797
scalar OsgEarthNet.uav[31] utilizationSecIdle 21024.704699697
scalar OsgEarthNet.uav[31] utilizationEnergyMission 150542.88264465
scalar OsgEarthNet.uav[31] utilizationEnergyMaintenance 85683.698978424
scalar OsgEarthNet.uav[31] utilizationEnergyCharge 236629.45703125
scalar OsgEarthNet.uav[31] utilizationEnergyOverdrawMission 0
scalar OsgEarthNet.uav[31] utilizationEnergyOverdrawMaintenance 0
scalar OsgEarthNet.uav[31] utilizationCountMissions 58
scalar OsgEarthNet.uav[31] utilizationCountManeuversMission 915
scalar OsgEarthNet.uav[31] utilizationCountManeuversMaintenance 116
scalar OsgEarthNet.uav[31] utilizationCountChargeState 58
scalar OsgEarthNet.uav[31] utilizationCountOverdrawnAfterMission 0
scalar OsgEarthNet.uav[31] utilizationCountIdleState 57
scalar OsgEarthNet.uav[31] utilizationFail 0
scalar OsgEarthNet.uav[31] simulationTime 259200
scalar OsgEarthNet.uav[32] utilizationSecMission 37218.979751863
scalar OsgEarthNet.uav[32] utilizationSecMaintenance 14911.148343286
scalar OsgEarthNet.uav[32] utilizationSecCharge 188857.16823713
scalar OsgEarthNet.uav[32] utilizationSecIdle 18212.702667718
scalar OsgEarthNet.uav[32] utilizationEnergyMission 180908.09552383
scalar OsgEarthNet.uav[32] utilizationEnergyMaintenance 68733.639213562
scalar OsgEarthNet.uav[32] utilizationEnergyCharge 247603.99462891
scalar OsgEarthNet.uav[32] utilizationEnergyOverdrawMission 0
scalar OsgEarthNet.uav[32] utilizationEnergyOverdrawMaintenance 0
scalar OsgEarthNet.uav[32] utilizationCountMissions 54
scalar OsgEarthNet.uav[32] utilizationCountManeuversMission 1154
scalar OsgEarthNet.uav[32] utilizationCountManeuversMaintenance 108
scalar OsgEarthNet.uav[32] utilizationCountChargeState 54
scalar OsgEarthNet.uav[32] utilizationCountOverdrawnAfterMission 0
scalar OsgEarthNet.uav[32] utilizationCountIdleState 48
scalar OsgEarthNet.uav[32] utilizationFail 0
scalar OsgEarthNet.uav[32] simulationTime 259200
scalar OsgEarthNet.uav[33] utilizationSecMission 33282.515175642
scalar OsgEarthNet.uav[33] utilizationSecMaintenance 21437.315340034
scalar OsgEarthNet.uav[33] utilizationSecCharge 195414.21924129
scalar OsgEarthNet.uav[33] utilizationSecIdle 9065.94924303
scalar OsgEarthNet.uav[33] utilizationEnergyMission 161544.22831345
scalar OsgEarthNet.uav[33] utilizationEnergyMaintenance 101822.53433609
scalar OsgEarthNet.uav[33] utilizationEnergyCharge 260184.05566406
scalar OsgEarthNet.uav[33] utilizationEnergyOverdrawMission 0
scalar OsgEarthNet.uav[33] utilizationEnergyOverdrawMaintenance 0
scalar OsgEarthNet.uav[33] utilizationCountMissions 58
scalar OsgEarthNet.uav[33] utilizationCountManeuversMission 1134
scalar OsgEarthNet.uav[33] utilizationCountManeuversMaintenance 116
scalar OsgEarthNet.uav[33] utilizationCountChargeState 58
scalar OsgEarthNet.uav[33] utilizationCountOverdrawnAfterMission 0
scalar OsgEarthNet.uav[33] utilizationCountIdleState 26
scalar OsgEarthNet.uav[33] utilizationFail 0
scalar OsgEarthNet.uav[33] simulationTime 259200
scalar OsgEarthNet.uav[34] utilizationSecMission 30487.001367299
scalar OsgEarthNet.uav[34] utilizationSecMaintenance 17926.572371478
scalar OsgEarthNet.uav[34] utilizationSecCharge 185980
scalar OsgEarthNet.uav[34] utilizationSecIdle 24806.425261223
scalar OsgEarthNet.uav[34] utilizationEnergyMission 144731.58080859
scalar OsgEarthNet.uav[34] utilizationEnergyMaintenance 85190.679416656
scalar OsgEarthNet.uav[34] utilizationEnergyCharge 229979.12036133
scalar OsgEarthNet.uav[34] utilizationEnergyOverdrawMission 0
scalar OsgEarthNet.uav[34] utilizationEnergyOverdrawMaintenance 0
scalar OsgEarthNet.uav[34] utilizationCountMissions 59
scalar OsgEarthNet.uav[34] utilizationCountManeuversMission 801
scalar OsgEarthNet.uav[34] utilizationCountManeuversMaintenance 119
scalar OsgEarthNet.uav[34] utilizationCountChargeState 59
scalar OsgEarthNet.uav[34] utilizationCountOverdrawnAfterMission 0
scalar OsgEarthNet.uav[34] utilizationCountIdleState 58
scalar OsgEarthNet.uav[34] utilizationFail 0
scalar OsgEarthNet.uav[34] simulationTime 259200
scalar OsgEarthNet.uav[35] utilizationSecMission 38233.271560354
scalar OsgEarthNet.uav[35] utilizationSecMaintenance 14636.499115949
scalar OsgEarthNet.uav[35] utilizationSecCharge 189300.80297641
scalar OsgEarthNet.uav[35] utilizationSecIdle 17029.42534729
scalar OsgEarthNet.uav[35] utilizationEnergyMission 185294.74589157
scalar OsgEarthNet.uav[35] utilizationEnergyMaintenance 66364.387931824
scalar OsgEarthNet.uav[35] utilizationEnergyCharge 248266.71850586
scalar OsgEarthNet.uav[35] utilizationEnergyOverdrawMission 0
scalar OsgEarthNet.uav[35] utilizationEnergyOverdrawMaintenance 0
scalar OsgEarthNet.uav[35] utilizationCountMissions 54
scalar OsgEarthNet.uav[35] utilizationCountManeuversMission 1248
scalar OsgEarthNet.uav[35] utilizationCountManeuversMaintenance 108
scalar OsgEarthNet.uav[35] utilizationCountChargeState 54
scalar OsgEarthNet.uav[35] utilizationCountOverdrawnAfterMission 0
scalar OsgEarthNet.uav[35] utilizationCountIdleState 46
scalar OsgEarthNet.uav[35] utilizationFail 0
scalar OsgEarthNet.uav[35] simulationTime 259200
scalar OsgEarthNet.uav[36] utilizationSecMission 32178.322087511
scalar OsgEarthNet.uav[36] utilizationSecMaintenance 17892.497741944
scalar OsgEarthNet.uav[36] utilizationSecCharge 186248.39299778
scalar OsgEarthNet.uav[36] utilizationSecIdle 22880.786172764
scalar OsgEarthNet.uav[36] utilizationEnergyMission 154425.01425934
scalar OsgEarthNet.uav[36] utilizationEnergyMaintenance 84466.192436218
scalar OsgEarthNet.uav[36] utilizationEnergyCharge 235340.55706787
scalar OsgEarthNet.uav[36] utilizationEnergyOverdrawMission 0
scalar OsgEarthNet.uav[36] utilizationEnergyOverdrawMaintenance 0
scalar OsgEarthNet.uav[36] utilizationCountMissions 57
scalar OsgEarthNet.uav[36] utilizationCountManeuversMission 913
scalar OsgEarthNet.uav[36] utilizationCountManeuversMaintenance 114
scalar OsgEarthNet.uav[36] utilizationCountChargeState 57
scalar OsgEarthNet.uav[36] utilizationCountOverdrawnAfterMission 0
scalar OsgEarthNet.uav[36] utilizationCountIdleState 53
scalar OsgEarthNet.uav[36] utilizationFail 0
scalar OsgEarthNet.uav[36] simulationTime 259200
scalar OsgEarthNet.uav[37] utilizationSecMission 30812.292822554
scalar OsgEarthNet.uav[37] utilizationSecMaintenance 17688.549800769
scalar OsgEarthNet.uav[37] utilizationSecCharge 186210
scalar OsgEarthNet.uav[37] utilizationSecIdle 24489.156376677
scalar OsgEarthNet.uav[37] utilizationEnergyMission 147819.3382988
scalar OsgEarthNet.uav[37] utilizationEnergyMaintenance 84301.86938858
scalar OsgEarthNet.uav[37] utilizationEnergyCharge 232671.91943359
scalar OsgEarthNet.uav[37] utilizationEnergyOverdrawMission 0
scalar OsgEarthNet.uav[37] utilizationEnergyOverdrawMaintenance 0
scalar OsgEarthNet.uav[37] utilizationCountMissions 58
scalar OsgEarthNet.uav[37] utilizationCountManeuversMission 870
scalar OsgEarthNet.uav[37] utilizationCountManeuversMaintenance 116
scalar OsgEarthNet.uav[37] utilizationCountChargeState 58
scalar OsgEarthNet.uav[37] utilizationCountOverdrawnAfterMission 0
scalar OsgEarthNet.uav[37] utilizationCountIdleState 54
scalar OsgEarthNet.uav[37] utilizationFail 0
scalar OsgEarthNet.uav[37] simulationTime 259200
scalar OsgEarthNet.uav[38] utilizationSecMission 38872.283196941
scalar OsgEarthNet.uav[38] utilizationSecMaintenance 13945.703905554
scalar OsgEarthNet.uav[38] utilizationSecCharge 188252.79228359
scalar OsgEarthNet.uav[38] utilizationSecIdle 18129.219613916
scalar OsgEarthNet.uav[38] utilizationEnergyMission 187592.14146805
scalar OsgEarthNet.uav[38] utilizationEnergyMaintenance 63492.14957428
scalar OsgEarthNet.uav[38] utilizationEnergyCharge 245559.68798828
scalar OsgEarthNet.uav[38] utilizationEnergyOverdrawMission 0
scalar OsgEarthNet.uav[38] utilizationEnergyOverdrawMaintenance 0
scalar OsgEarthNet.uav[38] utilizationCountMissions 54
scalar OsgEarthNet.uav[38] utilizationCountManeuversMission 1155
scalar OsgEarthNet.uav[38] utilizationCountManeuversMaintenance 108
scalar OsgEarthNet.uav[38] utilizationCountChargeState 54
scalar OsgEarthNet.uav[38] utilizationCountOverdrawnAfterMission 0
scalar OsgEarthNet.uav[38] utilizationCountIdleState 51
scalar OsgEarthNet.uav[38] utilizationFail 0
scalar OsgEarthNet.uav[38] simulationTime 259200
scalar OsgEarthNet.uav[39] utilizationSecMission 32051.361821524
scalar OsgEarthNet.uav[39] utilizationSecMaintenance 21273.061438169
scalar OsgEarthNet.uav[39] utilizationSecCharge 193792.80977756
scalar OsgEarthNet.uav[39] utilizationSecIdle 12082.765962746
scalar OsgEarthNet.uav[39] utilizationEnergyMission 160137.49366379
scalar OsgEarthNet.uav[39] utilizationEnergyMaintenance 100780.22994232
scalar OsgEarthNet.uav[39] utilizationEnergyCharge 257052.53710938
scalar OsgEarthNet.uav[39] utilizationEnergyOverdrawMission 0
scalar OsgEarthNet.uav[39] utilizationEnergyOverdrawMaintenance 0
scalar OsgEarthNet.uav[39] utilizationCountMissions 57
scalar OsgEarthNet.uav[39] utilizationCountManeuversMission 1117
scalar OsgEarthNet.uav[39] utilizationCountManeuversMaintenance 114
scalar OsgEarthNet.uav[39] utilizationCountChargeState 57
scalar OsgEarthNet.uav[39] utilizationCountOverdrawnAfterMission 0
scalar OsgEarthNet.uav[39] utilizationCountIdleState 29
scalar OsgEarthNet.uav[39] utilizationFail 0
scalar OsgEarthNet.uav[39] simulationTime 259200
scalar OsgEarthNet.uav[40] utilizationSecMission 36417.213775529
scalar OsgEarthNet.uav[40] utilizationSecMaintenance 16151.836968806
scalar OsgEarthNet.uav[40] utilizationSecCharge 190280
scalar OsgEarthNet.uav[40] utilizationSecIdle 16350.948255665
scalar OsgEarthNet.uav[40] utilizationEnergyMission 177251.17596792
scalar OsgEarthNet.uav[40] utilizationEnergyMaintenance 74351.222126007
scalar OsgEarthNet.uav[40] utilizationEnergyCharge 248099.59228516
scalar OsgEarthNet.uav[40] utilizationEnergyOverdrawMission 0
scalar OsgEarthNet.uav[40] utilizationEnergyOverdrawMaintenance 0
scalar OsgEarthNet.uav[40] utilizationCountMissions 54
scalar OsgEarthNet.uav[40] utilizationCountManeuversMission 1205
scalar OsgEarthNet.uav[40] utilizationCountManeuversMaintenance 109
scalar OsgEarthNet.uav[40] utilizationCountChargeState 54
scalar OsgEarthNet.uav[40] utilizationCountOverdrawnAfterMission 0
scalar OsgEarthNet.uav[40] utilizationCountIdleState 48
scalar OsgEarthNet.uav[40] utilizationFail 0
scalar OsgEarthNet.uav[40] simulationTime 259200
scalar OsgEarthNet.uav[41] utilizationSecMission 31640.364812153
scalar OsgEarthNet.uav[41] utilizationSecMaintenance 18321.98535893
scalar OsgEarthNet.uav[41] utilizationSecCharge 187715.64582892
scalar OsgEarthNet.uav[41] utilizationSecIdle 21522.003
scalar OsgEarthNet.uav[41] utilizationEnergyMission 152125.54656982
scalar OsgEarthNet.uav[41] utilizationEnergyMaintenance 86946.01738739
scalar OsgEarthNet.uav[41] utilizationEnergyCharge 237440.59765625
scalar OsgEarthNet.uav[41] utilizationEnergyOverdrawMission 0
scalar OsgEarthNet.uav[41] utilizationEnergyOverdrawMaintenance 0
scalar OsgEarthNet.uav[41] utilizationCountMissions 58
scalar OsgEarthNet.uav[41] utilizationCountManeuversMission 957
scalar OsgEarthNet.uav[41] utilizationCountManeuversMaintenance 116
scalar OsgEarthNet.uav[41] utilizationCountChargeState 58
scalar OsgEarthNet.uav[41] utilizationCountOverdrawnAfterMission 0
scalar OsgEarthNet.uav[41] utilizationCountIdleState 55
scalar OsgEarthNet.uav[41] utilizationFail 0
scalar OsgEarthNet.uav[41] simulationTime 259200
scalar OsgEarthNet.uav[42] utilizationSecMission 37991.796091428
scalar OsgEarthNet.uav[42] utilizationSecMaintenance 14910.993685153
scalar OsgEarthNet.uav[42] utilizationSecCharge 190645.20922342
scalar OsgEarthNet.uav[42] utilizationSecIdle 15652
scalar OsgEarthNet.uav[42] utilizationEnergyMission 183360.2756424
scalar OsgEarthNet.uav[42] utilizationEnergyMaintenance 67922.182266235
scalar OsgEarthNet.uav[42] utilizationEnergyCharge 248599.06787109
scalar OsgEarthNet.uav[42] utilizationEnergyOverdrawMission 0
scalar OsgEarthNet.uav[42] utilizationEnergyOverdrawMaintenance 0
scalar OsgEarthNet.uav[42] utilizationCountMissions 55
scalar OsgEarthNet.uav[42] utilizationCountManeuversMission 1192
scalar OsgEarthNet.uav[42] utilizationCountManeuversMaintenance 110
scalar OsgEarthNet.uav[42] utilizationCountChargeState 55
scalar OsgEarthNet.uav[42] utilizationCountOverdrawnAfterMission 0
scalar OsgEarthNet.uav[42] utilizationCountIdleState 49
scalar OsgEarthNet.uav[42] utilizationFail 0
scalar OsgEarthNet.uav[42] simulationTime 259200
scalar OsgEarthNet.uav[43] utilizationSecMission 34123.627533453
scalar OsgEarthNet.uav[43] utilizationSecMaintenance 19841.912056696
scalar OsgEarthNet.uav[43] utilizationSecCharge 195422.45940985
scalar OsgEarthNet.uav[43] utilizationSecIdle 9812
scalar OsgEarthNet.uav[43] utilizationEnergyMission 163392.1791954
scalar OsgEarthNet.uav[43] utilizationEnergyMaintenance 94102.164196014
scalar OsgEarthNet.uav[43] utilizationEnergyCharge 258222.58642578
scalar OsgEarthNet.uav[43] utilizationEnergyOverdrawMission 0
scalar OsgEarthNet.uav[43] utilizationEnergyOverdrawMaintenance 0
scalar OsgEarthNet.uav[43] utilizationCountMissions 57
scalar OsgEarthNet.uav[43] utilizationCountManeuversMission 1044
scalar OsgEarthNet.uav[43] utilizationCountManeuversMaintenance 113
scalar OsgEarthNet.uav[43] utilizationCountChargeState 57
scalar OsgEarthNet.uav[43] utilizationCountOverdrawnAfterMission 0
scalar OsgEarthNet.uav[43] utilizationCountIdleState 35
scalar OsgEarthNet.uav[43] utilizationFail 0
scalar OsgEarthNet.uav[43] simulationTime 259200
scalar OsgEarthNet.uav[44] utilizationSecMission 31327.273502965
scalar OsgEarthNet.uav[44] utilizationSecMaintenance 17787.730808235
scalar OsgEarthNet.uav[44] utilizationSecCharge 187672.9906888
scalar OsgEarthNet.uav[44] utilizationSecIdle 22412.004
scalar OsgEarthNet.uav[44] utilizationEnergyMission 148694.19348907
scalar OsgEarthNet.uav[44] utilizationEnergyMaintenance 84431.404514313
scalar OsgEarthNet.uav[44] utilizationEnergyCharge 234393.61962891
scalar OsgEarthNet.uav[44] utilizationEnergyOverdrawMission 0
scalar OsgEarthNet.uav[44] utilizationEnergyOverdrawMaintenance 0
scalar OsgEarthNet.uav[44] utilizationCountMissions 59
scalar OsgEarthNet.uav[44] utilizationCountManeuversMission 837
scalar OsgEarthNet.uav[44] utilizationCountManeuversMaintenance 118
scalar OsgEarthNet.uav[44] utilizationCountChargeState 59
scalar OsgEarthNet.uav[44] utilizationCountOverdrawnAfterMission 0
scalar OsgEarthNet.uav[44] utilizationCountIdleState 57
scalar OsgEarthNet.uav[44] utilizationFail 0
scalar OsgEarthNet.uav[44] simulationTime 259200
scalar OsgEarthNet.uav[45] utilizationSecMission 35980.366959662
scalar OsgEarthNet.uav[45] utilizationSecMaintenance 16580.233791852
scalar OsgEarthNet.uav[45] utilizationSecCharge 191197.39624849
scalar OsgEarthNet.uav[45] utilizationSecIdle 15442.002
scalar OsgEarthNet.uav[45] utilizationEnergyMission 175845.89107895
scalar OsgEarthNet.uav[45] utilizationEnergyMaintenance 77589.605854034
scalar OsgEarthNet.uav[45] utilizationEnergyCharge 250902.03466797
scalar OsgEarthNet.uav[45] utilizationEnergyOverdrawMission 0
scalar OsgEarthNet.uav[45] utilizationEnergyOverdrawMaintenance 0
scalar OsgEarthNet.uav[45] utilizationCountMissions 55
scalar OsgEarthNet.uav[45] utilizationCountManeuversMission 1111
scalar OsgEarthNet.uav[45] utilizationCountManeuversMaintenance 110
scalar OsgEarthNet.uav[45] utilizationCountChargeState 55
scalar OsgEarthNet.uav[45] utilizationCountOverdrawnAfterMission 0
scalar OsgEarthNet.uav[45] utilizationCountIdleState 45
scalar OsgEarthNet.uav[45] utilizationFail 0
scalar OsgEarthNet.uav[45] simulationTime 259200
scalar OsgEarthNet.uav[46] utilizationSecMission 32814.378509347
scalar OsgEarthNet.uav[46] utilizationSecMaintenance 20354.598695195
scalar OsgEarthNet.uav[46] utilizationSecCharge 194419.01979546
scalar OsgEarthNet.uav[46] utilizationSecIdle 11612.002
scalar OsgEarthNet.uav[46] utilizationEnergyMission 159231.86911392
scalar OsgEarthNet.uav[46] utilizationEnergyMaintenance 96081.080913543
scalar OsgEarthNet.uav[46] utilizationEnergyCharge 257859.66308594
scalar OsgEarthNet.uav[46] utilizationEnergyOverdrawMission 0
scalar OsgEarthNet.uav[46] utilizationEnergyOverdrawMaintenance 0
scalar OsgEarthNet.uav[46] utilizationCountMissions 57
scalar OsgEarthNet.uav[46] utilizationCountManeuversMission 1042
scalar OsgEarthNet.uav[46] utilizationCountManeuversMaintenance 114
scalar OsgEarthNet.uav[46] utilizationCountChargeState 57
scalar OsgEarthNet.uav[46] utilizationCountOverdrawnAfterMission 0
scalar OsgEarthNet.uav[46] utilizationCountIdleState 34
scalar OsgEarthNet.uav[46] utilizationFail 0
scalar OsgEarthNet.uav[46] simulationTime 259200
scalar OsgEarthNet.uav[47] utilizationSecMission 31796.146606779
scalar OsgEarthNet.uav[47] utilizationSecMaintenance 17381.759605129
scalar OsgEarthNet.uav[47] utilizationSecCharge 185144.28718097
scalar OsgEarthNet.uav[47] utilizationSecIdle 24877.80560712
scalar OsgEarthNet.uav[47] utilizationEnergyMission 153228.64103317
scalar OsgEarthNet.uav[47] utilizationEnergyMaintenance 81941.034488678
scalar OsgEarthNet.uav[47] utilizationEnergyCharge 231947.96948242
scalar OsgEarthNet.uav[47] utilizationEnergyOverdrawMission 0
scalar OsgEarthNet.uav[47] utilizationEnergyOverdrawMaintenance 0
scalar OsgEarthNet.uav[47] utilizationCountMissions 58
scalar OsgEarthNet.uav[47] utilizationCountManeuversMission 865
scalar OsgEarthNet.uav[47] utilizationCountManeuversMaintenance 116
scalar OsgEarthNet.uav[47] utilizationCountChargeState 58
scalar OsgEarthNet.uav[47] utilizationCountOverdrawnAfterMission 0
scalar OsgEarthNet.uav[47] utilizationCountIdleState 53
scalar OsgEarthNet.uav[47] utilizationFail 0
scalar OsgEarthNet.uav[47] simulationTime 259200
scalar OsgEarthNet.uav[48] utilizationSecMission 38825.097206269
scalar OsgEarthNet.uav[48] utilizationSecMaintenance 14113.228742145
scalar OsgEarthNet.uav[48] utilizationSecCharge 187620
scalar OsgEarthNet.uav[48] utilizationSecIdle 18641.673051586
scalar OsgEarthNet.uav[48] utilizationEnergyMission 185165.71390563
scalar OsgEarthNet.uav[48] utilizationEnergyMaintenance 65185.754859924
scalar OsgEarthNet.uav[48] utilizationEnergyCharge 245182.90478516
scalar OsgEarthNet.uav[48] utilizationEnergyOverdrawMission 0
scalar OsgEarthNet.uav[48] utilizationEnergyOverdrawMaintenance 0
scalar OsgEarthNet.uav[48] utilizationCountMissions 53
scalar OsgEarthNet.uav[48] utilizationCountManeuversMission 1108
scalar OsgEarthNet.uav[48] utilizationCountManeuversMaintenance 107
scalar OsgEarthNet.uav[48] utilizationCountChargeState 53
scalar OsgEarthNet.uav[48] utilizationCountOverdrawnAfterMission 0
scalar OsgEarthNet.uav[48] utilizationCountIdleState 44
scalar OsgEarthNet.uav[48] utilizationFail 0
scalar OsgEarthNet.uav[48] simulationTime 259200
scalar OsgEarthNet.uav[49] utilizationSecMission 32122.245012855
scalar OsgEarthNet.uav[49] utilizationSecMaintenance 20975.692601155
scalar OsgEarthNet.uav[49] utilizationSecCharge 191010.05038599
scalar OsgEarthNet.uav[49] utilizationSecIdle 15092.011
scalar OsgEarthNet.uav[49] utilizationEnergyMission 156145.60449982
scalar OsgEarthNet.uav[49] utilizationEnergyMaintenance 99499.46061325
scalar OsgEarthNet.uav[49] utilizationEnergyCharge 252213.40576172
scalar OsgEarthNet.uav[49] utilizationEnergyOverdrawMission 0
scalar OsgEarthNet.uav[49] utilizationEnergyOverdrawMaintenance 0
scalar OsgEarthNet.uav[49] utilizationCountMissions 57
scalar OsgEarthNet.uav[49] utilizationCountManeuversMission 1090
scalar OsgEarthNet.uav[49] utilizationCountManeuversMaintenance 114
scalar OsgEarthNet.uav[49] utilizationCountChargeState 57
scalar OsgEarthNet.uav[49] utilizationCountOverdrawnAfterMission 0
scalar OsgEarthNet.uav[49] utilizationCountIdleState 35
scalar OsgEarthNet.uav[49] utilizationFail 0
scalar OsgEarthNet.uav[49] simulationTime 259200
scalar OsgEarthNet.uav[50] utilizationSecMission 31941.510785196
scalar OsgEarthNet.uav[50] utilizationSecMaintenance 21952.798683885
scalar OsgEarthNet.uav[50] utilizationSecCharge 194973.68553092
scalar OsgEarthNet.uav[50] utilizationSecIdle 10332.004
scalar OsgEarthNet.uav[50] utilizationEnergyMission 155718.13050842
scalar OsgEarthNet.uav[50] utilizationEnergyMaintenance 104160.88930511
scalar OsgEarthNet.uav[50] utilizationEnergyCharge 259468.11279297
scalar OsgEarthNet.uav[50] utilizationEnergyOverdrawMission 0
scalar OsgEarthNet.uav[50] utilizationEnergyOverdrawMaintenance 0
scalar OsgEarthNet.uav[50] utilizationCountMissions 58
scalar OsgEarthNet.uav[50] utilizationCountManeuversMission 1124
scalar OsgEarthNet.uav[50] utilizationCountManeuversMaintenance 116
scalar OsgEarthNet.uav[50] utilizationCountChargeState 58
scalar OsgEarthNet.uav[50] utilizationCountOverdrawnAfterMission 0
scalar OsgEarthNet.uav[50] utilizationCountIdleState 28
scalar OsgEarthNet.uav[50] utilizationFail 0
scalar OsgEarthNet.uav[50] simulationTime 259200
scalar OsgEarthNet.uav[51] utilizationSecMission 30080.306658941
scalar OsgEarthNet.uav[51] utilizationSecMaintenance 18552.377258568
scalar OsgEarthNet.uav[51] utilizationSecCharge 187260
scalar OsgEarthNet.uav[51] utilizationSecIdle 23307.315082491
scalar OsgEarthNet.uav[51] utilizationEnergyMission 144907.78619083
scalar OsgEarthNet.uav[51] utilizationEnergyMaintenance 88699.019271851
scalar OsgEarthNet.uav[51] utilizationEnergyCharge 234914.81274414
scalar OsgEarthNet.uav[51] utilizationEnergyOverdrawMission 0
scalar OsgEarthNet.uav[51] utilizationEnergyOverdrawMaintenance 0
scalar OsgEarthNet.uav[51] utilizationCountMissions 58
scalar OsgEarthNet.uav[51] utilizationCountManeuversMission 920
scalar OsgEarthNet.uav[51] utilizationCountManeuversMaintenance 117
scalar OsgEarthNet.uav[51] utilizationCountChargeState 58
scalar OsgEarthNet.uav[51] utilizationCountOverdrawnAfterMission 0
scalar OsgEarthNet.uav[51] utilizationCountIdleState 55
scalar OsgEarthNet.uav[51] utilizationFail 0
scalar OsgEarthNet.uav[51] simulationTime 259200
scalar OsgEarthNet.uav[52] utilizationSecMission 37079.396487374
scalar OsgEarthNet.uav[52] utilizationSecMaintenance 15315.257521289
scalar OsgEarthNet.uav[52] utilizationSecCharge 191223.34399134
scalar OsgEarthNet.uav[52] utilizationSecIdle 15582.001
scalar OsgEarthNet.uav[52] utilizationEnergyMission 181881.45920563
scalar OsgEarthNet.uav[52] utilizationEnergyMaintenance 69521.010547638
scalar OsgEarthNet.uav[52] utilizationEnergyCharge 250047.63867188
scalar OsgEarthNet.uav[52] utilizationEnergyOverdrawMission 0
scalar OsgEarthNet.uav[52] utilizationEnergyOverdrawMaintenance 0
scalar OsgEarthNet.uav[52] utilizationCountMissions 55
scalar OsgEarthNet.uav[52] utilizationCountManeuversMission 1298
scalar OsgEarthNet.uav[52] utilizationCountManeuversMaintenance 110
scalar OsgEarthNet.uav[52] utilizationCountChargeState 55
scalar OsgEarthNet.uav[52] utilizationCountOverdrawnAfterMission 0
scalar OsgEarthNet.uav[52] utilizationCountIdleState 49
scalar OsgEarthNet.uav[52] utilizationFail 0
scalar OsgEarthNet.uav[52] simulationTime 259200
scalar OsgEarthNet.uav[53] utilizationSecMission 32462.761090356
scalar OsgEarthNet.uav[53] utilizationSecMaintenance 21105.231909644
scalar OsgEarthNet.uav[53] utilizationSecCharge 194280
scalar OsgEarthNet.uav[53] utilizationSecIdle 11352.006
scalar OsgEarthNet.uav[53] utilizationEnergyMission 158470.74201202
scalar OsgEarthNet.uav[53] utilizationEnergyMaintenance 100037.57540206
scalar OsgEarthNet.uav[53] utilizationEnergyCharge 257425.81152344
scalar OsgEarthNet.uav[53] utilizationEnergyOverdrawMission 0
scalar OsgEarthNet.uav[53] utilizationEnergyOverdrawMaintenance 0
scalar OsgEarthNet.uav[53] utilizationCountMissions 57
scalar OsgEarthNet.uav[53] utilizationCountManeuversMission 1098
scalar OsgEarthNet.uav[53] utilizationCountManeuversMaintenance 115
scalar OsgEarthNet.uav[53] utilizationCountChargeState 57
scalar OsgEarthNet.uav[53] utilizationCountOverdrawnAfterMission 0
scalar OsgEarthNet.uav[53] utilizationCountIdleState 30
scalar OsgEarthNet.uav[53] utilizationFail 0
scalar OsgEarthNet.uav[53] simulationTime 259200
scalar OsgEarthNet.uav[54] utilizationSecMission 31089.87498459
scalar OsgEarthNet.uav[54] utilizationSecMaintenance 18617.942975607
scalar OsgEarthNet.uav[54] utilizationSecCharge 188435.75477858
scalar OsgEarthNet.uav[54] utilizationSecIdle 21056.426261223
scalar OsgEarthNet.uav[54] utilizationEnergyMission 153841.00172043
scalar OsgEarthNet.uav[54] utilizationEnergyMaintenance 88187.869182587
scalar OsgEarthNet.uav[54] utilizationEnergyCharge 239821.88378906
scalar OsgEarthNet.uav[54] utilizationEnergyOverdrawMission 0
scalar OsgEarthNet.uav[54] utilizationEnergyOverdrawMaintenance 0
scalar OsgEarthNet.uav[54] utilizationCountMissions 57
scalar OsgEarthNet.uav[54] utilizationCountManeuversMission 1056
scalar OsgEarthNet.uav[54] utilizationCountManeuversMaintenance 114
scalar OsgEarthNet.uav[54] utilizationCountChargeState 57
scalar OsgEarthNet.uav[54] utilizationCountOverdrawnAfterMission 0
scalar OsgEarthNet.uav[54] utilizationCountIdleState 54
scalar OsgEarthNet.uav[54] utilizationFail 0
scalar OsgEarthNet.uav[54] simulationTime 259200
scalar OsgEarthNet.uav[55] utilizationSecMission 36837.074180115
scalar OsgEarthNet.uav[55] utilizationSecMaintenance 14933.789764436
scalar OsgEarthNet.uav[55] utilizationSecCharge 190360.28689566
scalar OsgEarthNet.uav[55] utilizationSecIdle 17068.848159794
scalar OsgEarthNet.uav[55] utilizationEnergyMission 180580.22223282
scalar OsgEarthNet.uav[55] utilizationEnergyMaintenance 68357.770202637
scalar OsgEarthNet.uav[55] utilizationEnergyCharge 249815.40576172
scalar OsgEarthNet.uav[55] utilizationEnergyOverdrawMission 0
scalar OsgEarthNet.uav[55] utilizationEnergyOverdrawMaintenance 0
scalar OsgEarthNet.uav[55] utilizationCountMissions 54
scalar OsgEarthNet.uav[55] utilizationCountManeuversMission 1213
scalar OsgEarthNet.uav[55] utilizationCountManeuversMaintenance 108
scalar OsgEarthNet.uav[55] utilizationCountChargeState 54
scalar OsgEarthNet.uav[55] utilizationCountOverdrawnAfterMission 0
scalar OsgEarthNet.uav[55] utilizationCountIdleState 46
scalar OsgEarthNet.uav[55] utilizationFail 0
scalar OsgEarthNet.uav[55] simulationTime 259200
scalar OsgEarthNet.uav[56] utilizationSecMission 36637.554433623
scalar OsgEarthNet.uav[56] utilizationSecMaintenance 15806.381324031
scalar OsgEarthNet.uav[56] utilizationSecCharge 192214.06324235
scalar OsgEarthNet.uav[56] utilizationSecIdle 14542
scalar OsgEarthNet.uav[56] utilizationEnergyMission 181507.59613419
scalar OsgEarthNet.uav[56] utilizationEnergyMaintenance 72431.02602005
scalar OsgEarthNet.uav[56] utilizationEnergyCharge 251079.18457031
scalar OsgEarthNet.uav[56] utilizationEnergyOverdrawMission 0
scalar OsgEarthNet.uav[56] utilizationEnergyOverdrawMaintenance 0
scalar OsgEarthNet.uav[56] utilizationCountMissions 55
scalar OsgEarthNet.uav[56] utilizationCountManeuversMission 1265
scalar OsgEarthNet.uav[56] utilizationCountManeuversMaintenance 109
scalar OsgEarthNet.uav[56] utilizationCountChargeState 55
scalar OsgEarthNet.uav[56] utilizationCountOverdrawnAfterMission 0
scalar OsgEarthNet.uav[56] utilizationCountIdleState 48
scalar OsgEarthNet.uav[56] utilizationFail 0
scalar OsgEarthNet.uav[56] simulationTime 259200
scalar OsgEarthNet.uav[57] utilizationSecMission 33002.874083976
scalar OsgEarthNet.uav[57] utilizationSecMaintenance 17253.090633635
scalar OsgEarthNet.uav[57] utilizationSecCharge 188902.03428239
scalar OsgEarthNet.uav[57] utilizationSecIdle 20042
scalar OsgEarthNet.uav[57] utilizationEnergyMission 158392.92220306
scalar OsgEarthNet.uav[57] utilizationEnergyMaintenance 81581.731712341
scalar OsgEarthNet.uav[57] utilizationEnergyCharge 238169.63696289
scalar OsgEarthNet.uav[57] utilizationEnergyOverdrawMission 0
scalar OsgEarthNet.uav[57] utilizationEnergyOverdrawMaintenance 0
scalar OsgEarthNet.uav[57] utilizationCountMissions 58
scalar OsgEarthNet.uav[57] utilizationCountManeuversMission 880
scalar OsgEarthNet.uav[57] utilizationCountManeuversMaintenance 115
scalar OsgEarthNet.uav[57] utilizationCountChargeState 58
scalar OsgEarthNet.uav[57] utilizationCountOverdrawnAfterMission 0
scalar OsgEarthNet.uav[57] utilizationCountIdleState 54
scalar OsgEarthNet.uav[57] utilizationFail 0
scalar OsgEarthNet.uav[57] simulationTime 259200
scalar OsgEarthNet.uav[58] utilizationSecMission 36418.149767609
scalar OsgEarthNet.uav[58] utilizationSecMaintenance 16072.461895024
scalar OsgEarthNet.uav[58] utilizationSecCharge 192027.38733737
scalar OsgEarthNet.uav[58] utilizationSecIdle 14682
scalar OsgEarthNet.uav[58] utilizationEnergyMission 180094.90560208
scalar OsgEarthNet.uav[58] utilizationEnergyMaintenance 72904.040447235
scalar OsgEarthNet.uav[58] utilizationEnergyCharge 250852.90771484
scalar OsgEarthNet.uav[58] utilizationEnergyOverdrawMission 0
scalar OsgEarthNet.uav[58] utilizationEnergyOverdrawMaintenance 0
scalar OsgEarthNet.uav[58] utilizationCountMissions 55
scalar OsgEarthNet.uav[58] utilizationCountManeuversMission 1250
scalar OsgEarthNet.uav[58] utilizationCountManeuversMaintenance 109
scalar OsgEarthNet.uav[58] utilizationCountChargeState 55
scalar OsgEarthNet.uav[58] utilizationCountOverdrawnAfterMission 0
scalar OsgEarthNet.uav[58] utilizationCountIdleState 49
scalar OsgEarthNet.uav[58] utilizationFail 0
scalar OsgEarthNet.uav[58] simulationTime 259200
scalar OsgEarthNet.uav[59] utilizationSecMission 35714.937888756
scalar OsgEarthNet.uav[59] utilizationSecMaintenance 15702.916371295
scalar OsgEarthNet.uav[59] utilizationSecCharge 190230
scalar OsgEarthNet.uav[59] utilizationSecIdle 17552.144739949
scalar OsgEarthNet.uav[59] utilizationEnergyMission 175975.05378342
scalar OsgEarthNet.uav[59] utilizationEnergyMaintenance 70370.426858466
scalar OsgEarthNet.uav[59] utilizationEnergyCharge 247966.37988281
scalar OsgEarthNet.uav[59] utilizationEnergyOverdrawMission 0
scalar OsgEarthNet.uav[59] utilizationEnergyOverdrawMaintenance 0
scalar OsgEarthNet.uav[59] utilizationCountMissions 54
scalar OsgEarthNet.uav[59] utilizationCountManeuversMission 1283
scalar OsgEarthNet.uav[59] utilizationCountManeuversMaintenance 109
scalar OsgEarthNet.uav[59] utilizationCountChargeState 54
scalar OsgEarthNet.uav[59] utilizationCountOverdrawnAfterMission 0
scalar OsgEarthNet.uav[59] utilizationCountIdleState 46
scalar OsgEarthNet.uav[59] utilizationFail 0
scalar OsgEarthNet.uav[59] simulationTime 259200
scalar OsgEarthNet.uav[60] utilizationSecMission 31483.982352136
scalar OsgEarthNet.uav[60] utilizationSecMaintenance 17583.238093823
scalar OsgEarthNet.uav[60] utilizationSecCharge 186118.34447743
scalar OsgEarthNet.uav[60] utilizationSecIdle 24014.434076607
scalar OsgEarthNet.uav[60] utilizationEnergyMission 151180.00398636
scalar OsgEarthNet.uav[60] utilizationEnergyMaintenance 83729.043746948
scalar OsgEarthNet.uav[60] utilizationEnergyCharge 231186.21728516
scalar OsgEarthNet.uav[60] utilizationEnergyOverdrawMission 0
scalar OsgEarthNet.uav[60] utilizationEnergyOverdrawMaintenance 0
scalar OsgEarthNet.uav[60] utilizationCountMissions 59
scalar OsgEarthNet.uav[60] utilizationCountManeuversMission 810
scalar OsgEarthNet.uav[60] utilizationCountManeuversMaintenance 118
scalar OsgEarthNet.uav[60] utilizationCountChargeState 59
scalar OsgEarthNet.uav[60] utilizationCountOverdrawnAfterMission 0
scalar OsgEarthNet.uav[60] utilizationCountIdleState 57
scalar OsgEarthNet.uav[60] utilizationFail 0
scalar OsgEarthNet.uav[60] simulationTime 259200
scalar OsgEarthNet.uav[61] utilizationSecMission 33251.331464778
scalar OsgEarthNet.uav[61] utilizationSecMaintenance 16836.153079742
scalar OsgEarthNet.uav[61] utilizationSecCharge 186140.51245548
scalar OsgEarthNet.uav[61] utilizationSecIdle 22972.002
scalar OsgEarthNet.uav[61] utilizationEnergyMission 158593.85579681
scalar OsgEarthNet.uav[61] utilizationEnergyMaintenance 79718.369915009
scalar OsgEarthNet.uav[61] utilizationEnergyCharge 235368.67333984
scalar OsgEarthNet.uav[61] utilizationEnergyOverdrawMission 0
scalar OsgEarthNet.uav[61] utilizationEnergyOverdrawMaintenance 0
scalar OsgEarthNet.uav[61] utilizationCountMissions 57
scalar OsgEarthNet.uav[61] utilizationCountManeuversMission 910
scalar OsgEarthNet.uav[61] utilizationCountManeuversMaintenance 114
scalar OsgEarthNet.uav[61] utilizationCountChargeState 57
scalar OsgEarthNet.uav[61] utilizationCountOverdrawnAfterMission 0
scalar OsgEarthNet.uav[61] utilizationCountIdleState 54
scalar OsgEarthNet.uav[61] utilizationFail 0
scalar OsgEarthNet.uav[61] simulationTime 259200
scalar OsgEarthNet.uav[62] utilizationSecMission 37177.176006134
scalar OsgEarthNet.uav[62] utilizationSecMaintenance 14690.822993866
scalar OsgEarthNet.uav[62] utilizationSecCharge 190090
scalar OsgEarthNet.uav[62] utilizationSecIdle 17242
scalar OsgEarthNet.uav[62] utilizationEnergyMission 179941.54437716
scalar OsgEarthNet.uav[62] utilizationEnergyMaintenance 68712.049507141
scalar OsgEarthNet.uav[62] utilizationEnergyCharge 248309.46826172
scalar OsgEarthNet.uav[62] utilizationEnergyOverdrawMission 0
scalar OsgEarthNet.uav[62] utilizationEnergyOverdrawMaintenance 0
scalar OsgEarthNet.uav[62] utilizationCountMissions 53
scalar OsgEarthNet.uav[62] utilizationCountManeuversMission 1114
scalar OsgEarthNet.uav[62] utilizationCountManeuversMaintenance 106
scalar OsgEarthNet.uav[62] utilizationCountChargeState 53
scalar OsgEarthNet.uav[62] utilizationCountOverdrawnAfterMission 0
scalar OsgEarthNet.uav[62] utilizationCountIdleState 52
scalar OsgEarthNet.uav[62] utilizationFail 0
scalar OsgEarthNet.uav[62] simulationTime 259200
scalar OsgEarthNet.uav[63] utilizationSecMission 34106.512005838
scalar OsgEarthNet.uav[63] utilizationSecMaintenance 19090.094879221
scalar OsgEarthNet.uav[63] utilizationSecCharge 192390
scalar OsgEarthNet.uav[63] utilizationSecIdle 13613.392114941
scalar OsgEarthNet.uav[63] utilizationEnergyMission 164113.01610947
scalar OsgEarthNet.uav[63] utilizationEnergyMaintenance 91317.409705753
scalar OsgEarthNet.uav[63] utilizationEnergyCharge 251541.21582031
scalar OsgEarthNet.uav[63] utilizationEnergyOverdrawMission 0
scalar OsgEarthNet.uav[63] utilizationEnergyOverdrawMaintenance 0
scalar OsgEarthNet.uav[63] utilizationCountMissions 57
scalar OsgEarthNet.uav[63] utilizationCountManeuversMission 1024
scalar OsgEarthNet.uav[63] utilizationCountManeuversMaintenance 114
scalar OsgEarthNet.uav[63] utilizationCountChargeState 56
scalar OsgEarthNet.uav[63] utilizationCountOverdrawnAfterMission 0
scalar OsgEarthNet.uav[63] utilizationCountIdleState 40
scalar OsgEarthNet.uav[63] utilizationFail 0
scalar OsgEarthNet.uav[63] simulationTime 259200
scalar OsgEarthNet.uav[64] utilizationSecMission 36990.585150683
scalar OsgEarthNet.uav[64] utilizationSecMaintenance 15183.735548552
scalar OsgEarthNet.uav[64] utilizationSecCharge 188660.23621207
scalar OsgEarthNet.uav[64] utilizationSecIdle 18365.442088691
scalar OsgEarthNet.uav[64] utilizationEnergyMission 178524.78619385
scalar OsgEarthNet.uav[64] utilizationEnergyMaintenance 70083.163703918
scalar OsgEarthNet.uav[64] utilizationEnergyCharge 246579.60668945
scalar OsgEarthNet.uav[64] utilizationEnergyOverdrawMission 0
scalar OsgEarthNet.uav[64] utilizationEnergyOverdrawMaintenance 0
scalar OsgEarthNet.uav[64] utilizationCountMissions 54
scalar OsgEarthNet.uav[64] utilizationCountManeuversMission 1171
scalar OsgEarthNet.uav[64] utilizationCountManeuversMaintenance 108
scalar OsgEarthNet.uav[64] utilizationCountChargeState 54
scalar OsgEarthNet.uav[64] utilizationCountOverdrawnAfterMission 0
scalar OsgEarthNet.uav[64] utilizationCountIdleState 48
scalar OsgEarthNet.uav[64] utilizationFail 0
scalar OsgEarthNet.uav[64] simulationTime 259200
scalar OsgEarthNet.uav[65] utilizationSecMission 36922.419028373
scalar OsgEarthNet.uav[65] utilizationSecMaintenance 15154.628222786
scalar OsgEarthNet.uav[65] utilizationSecCharge 189096.2463863
scalar OsgEarthNet.uav[65] utilizationSecIdle 18026.705362542
scalar OsgEarthNet.uav[65] utilizationEnergyMission 179228.45036697
scalar OsgEarthNet.uav[65] utilizationEnergyMaintenance 69548.467445374
scalar OsgEarthNet.uav[65] utilizationEnergyCharge 246762.20092773
scalar OsgEarthNet.uav[65] utilizationEnergyOverdrawMission 0
scalar OsgEarthNet.uav[65] utilizationEnergyOverdrawMaintenance 0
scalar OsgEarthNet.uav[65] utilizationCountMissions 54
scalar OsgEarthNet.uav[65] utilizationCountManeuversMission 1117
scalar OsgEarthNet.uav[65] utilizationCountManeuversMaintenance 108
scalar OsgEarthNet.uav[65] utilizationCountChargeState 54
scalar OsgEarthNet.uav[65] utilizationCountOverdrawnAfterMission 0
scalar OsgEarthNet.uav[65] utilizationCountIdleState 50
scalar OsgEarthNet.uav[65] utilizationFail 0
scalar OsgEarthNet.uav[65] simulationTime 259200
scalar OsgEarthNet.uav[66] utilizationSecMission 36668.955483823
scalar OsgEarthNet.uav[66] utilizationSecMaintenance 15011.95405256
scalar OsgEarthNet.uav[66] utilizationSecCharge 188198.13920795
scalar OsgEarthNet.uav[66] utilizationSecIdle 19320.950255665
scalar OsgEarthNet.uav[66] utilizationEnergyMission 179363.14769363
scalar OsgEarthNet.uav[66] utilizationEnergyMaintenance 69723.887653351
scalar OsgEarthNet.uav[66] utilizationEnergyCharge 245581.74255371
scalar OsgEarthNet.uav[66] utilizationEnergyOverdrawMission 0
scalar OsgEarthNet.uav[66] utilizationEnergyOverdrawMaintenance 0
scalar OsgEarthNet.uav[66] utilizationCountMissions 54
scalar OsgEarthNet.uav[66] utilizationCountManeuversMission 1098
scalar OsgEarthNet.uav[66] utilizationCountManeuversMaintenance 108
scalar OsgEarthNet.uav[66] utilizationCountChargeState 54
scalar OsgEarthNet.uav[66] utilizationCountOverdrawnAfterMission 0
scalar OsgEarthNet.uav[66] utilizationCountIdleState 48
scalar OsgEarthNet.uav[66] utilizationFail 0
scalar OsgEarthNet.uav[66] simulationTime 259200
scalar OsgEarthNet.uav[67] utilizationSecMission 36137.472736052
scalar OsgEarthNet.uav[67] utilizationSecMaintenance 15644.266327805
scalar OsgEarthNet.uav[67] utilizationSecCharge 190632.81584745
scalar OsgEarthNet.uav[67] utilizationSecIdle 16785.444088691
scalar OsgEarthNet.uav[67] utilizationEnergyMission 178347.24781799
scalar OsgEarthNet.uav[67] utilizationEnergyMaintenance 71355.932090759
scalar OsgEarthNet.uav[67] utilizationEnergyCharge 248356.32519531
scalar OsgEarthNet.uav[67] utilizationEnergyOverdrawMission 0
scalar OsgEarthNet.uav[67] utilizationEnergyOverdrawMaintenance 0
scalar OsgEarthNet.uav[67] utilizationCountMissions 54
scalar OsgEarthNet.uav[67] utilizationCountManeuversMission 1345
scalar OsgEarthNet.uav[67] utilizationCountManeuversMaintenance 108
scalar OsgEarthNet.uav[67] utilizationCountChargeState 54
scalar OsgEarthNet.uav[67] utilizationCountOverdrawnAfterMission 0
scalar OsgEarthNet.uav[67] utilizationCountIdleState 50
scalar OsgEarthNet.uav[67] utilizationFail 0
scalar OsgEarthNet.uav[67] simulationTime 259200
scalar OsgEarthNet.cs[0] usedPower 3995959.359532
scalar OsgEarthNet.cs[0] chargedPower 3995959.359532
scalar OsgEarthNet.cs[0] chargedMobileNodes 517
scalar OsgEarthNet.cs[0] reservations 891
scalar OsgEarthNet.cs[1] usedPower 5713722.0154716
scalar OsgEarthNet.cs[1] chargedPower 5713722.0154716
scalar OsgEarthNet.cs[1] chargedMobileNodes 1323
scalar OsgEarthNet.cs[1] reservations 1415
scalar OsgEarthNet.cs[2] usedPower 6965901.4705292
scalar OsgEarthNet.cs[2] chargedPower 6965901.4705292
scalar OsgEarthNet.cs[2] chargedMobileNodes 1314
scalar OsgEarthNet.cs[2] reservations 1521

