version 2
run Szenario_Hotel_Gabelbach-393-20180719-16:16:54-4752
attr configname Szenario_Hotel_Gabelbach
attr datetime 20180719-16:16:54
attr experiment Szenario_Hotel_Gabelbach
attr inifile omnetpp.ini
attr iterationvars "$replM=2, $biWeight=0.35, $replSearchM=1, $numUAVs=85"
attr iterationvarsf replM=2,biWeight=0.35,replSearchM=1,numUAVs=85-
attr measurement "$replM=2, $biWeight=0.35, $replSearchM=1, $numUAVs=85"
attr network OsgEarthNet
attr processid 4752
attr repetition 9
attr replication #9
attr resultdir results
attr runnumber 393
attr seedset 393
itervar biWeight 0.35
itervar numUAVs 85
itervar replM 2
itervar replSearchM 1
param *.osgEarthScene.scene "\"Szenario_Hotel_Gabelbach.earth\""
param *.playgroundLatitude 50.6830269
param *.playgroundLongitude 10.8538055
param *.playgroundWidth 3500m
param *.playgroundHeight 3500m
param *.cs[0].posX 3537m
param *.cs[0].posY 965m
param *.cs[0].posZ 538m
param *.cs[1].posX 312m
param *.cs[1].posY 1262m
param *.cs[1].posZ 539m
param *.cs[2].posX 2185m
param *.cs[2].posY 3026m
param *.cs[2].posZ 777m
param *.cs[3].posX 10m
param *.cs[3].posY 2200m
param *.cs[3].posZ 560m
param *.cs[4].posX 750m
param *.cs[4].posY 200m
param *.cs[4].posZ 540m
param *.cs[5].posX 2450m
param *.cs[5].posY 180m
param *.cs[5].posZ 524m
param *.cs[6].posX 3140m
param *.cs[6].posY 1790m
param *.cs[6].posZ 606m
param *.numCSs 3
param *.uav[*].replacementMethod 2
param *.uav[*].weightedSumWeight 0.35
param *.missionControl.replacementSearchMethod 1
param *.numUAVs 85
param *.*.timeStep 10s
param *.uav[*].commandPreviewCommandCount 20
param *.missionControl.missionFiles "\"missions\\\\Szenario_WB_Hotel_Gabelbach_Mission_Hotel.waypoints,missions\\\\Szenario_WB_Hotel_Gabelbach_Mission_Kickelhahn.waypoints,missions\\\\Szenario_WB_Hotel_Gabelbach_Mission_Ilmenau_Sportplatz.waypoints,missions\\\\Szenario_WB_Hotel_Gabelbach_Mission_Manebach_Mitte.waypoints,missions\\\\Szenario_WB_Hotel_Gabelbach_Mission_Manebach_Sued.waypoints,missions\\\\Szenario_WB_Hotel_Gabelbach_Hover_HoheSchlaufe.waypoints,missions\\\\Szenario_WB_Hotel_Gabelbach_Hover_Kickelhahn.waypoints,missions\\\\Szenario_WB_Hotel_Gabelbach_Hover_Gabelbachskopf.waypoints,missions\\\\Szenario_WB_Hotel_Gabelbach_Hover_Dachskopf.waypoints\""
param *.uav[0].startX 3537m
param *.uav[0].startY 965m
param *.uav[0].startZ 539m
param *.uav[1].startX 312m
param *.uav[1].startY 1262m
param *.uav[1].startZ 540m
param *.uav[2].startX 2185m
param *.uav[2].startY 3026m
param *.uav[2].startZ 778m
param *.uav[3].startX 3537m
param *.uav[3].startY 965m
param *.uav[3].startZ 539m
param *.uav[4].startX 312m
param *.uav[4].startY 1262m
param *.uav[4].startZ 540m
param *.uav[5].startX 2185m
param *.uav[5].startY 3026m
param *.uav[5].startZ 778m
param *.uav[6].startX 3537m
param *.uav[6].startY 965m
param *.uav[6].startZ 539m
param *.uav[7].startX 312m
param *.uav[7].startY 1262m
param *.uav[7].startZ 540m
param *.uav[8].startX 2185m
param *.uav[8].startY 3026m
param *.uav[8].startZ 778m
param *.uav[9].startX 3537m
param *.uav[9].startY 965m
param *.uav[9].startZ 539m
param *.uav[10].startX 3537m
param *.uav[10].startY 965m
param *.uav[10].startZ 539m
param *.uav[11].startX 312m
param *.uav[11].startY 1262m
param *.uav[11].startZ 540m
param *.uav[12].startX 2185m
param *.uav[12].startY 3026m
param *.uav[12].startZ 778m
param *.uav[13].startX 3537m
param *.uav[13].startY 965m
param *.uav[13].startZ 539m
param *.uav[14].startX 312m
param *.uav[14].startY 1262m
param *.uav[14].startZ 540m
param *.uav[15].startX 2185m
param *.uav[15].startY 3026m
param *.uav[15].startZ 778m
param *.uav[16].startX 3537m
param *.uav[16].startY 965m
param *.uav[16].startZ 539m
param *.uav[17].startX 312m
param *.uav[17].startY 1262m
param *.uav[17].startZ 540m
param *.uav[18].startX 2185m
param *.uav[18].startY 3026m
param *.uav[18].startZ 778m
param *.uav[19].startX 3537m
param *.uav[19].startY 965m
param *.uav[19].startZ 539m
param *.uav[20].startX 3537m
param *.uav[20].startY 965m
param *.uav[20].startZ 539m
param *.uav[21].startX 312m
param *.uav[21].startY 1262m
param *.uav[21].startZ 540m
param *.uav[22].startX 2185m
param *.uav[22].startY 3026m
param *.uav[22].startZ 778m
param *.uav[23].startX 3537m
param *.uav[23].startY 965m
param *.uav[23].startZ 539m
param *.uav[24].startX 312m
param *.uav[24].startY 1262m
param *.uav[24].startZ 540m
param *.uav[25].startX 2185m
param *.uav[25].startY 3026m
param *.uav[25].startZ 778m
param *.uav[26].startX 3537m
param *.uav[26].startY 965m
param *.uav[26].startZ 539m
param *.uav[27].startX 312m
param *.uav[27].startY 1262m
param *.uav[27].startZ 540m
param *.uav[28].startX 2185m
param *.uav[28].startY 3026m
param *.uav[28].startZ 778m
param *.uav[29].startX 3537m
param *.uav[29].startY 965m
param *.uav[29].startZ 539m
param *.uav[30].startX 3537m
param *.uav[30].startY 965m
param *.uav[30].startZ 539m
param *.uav[31].startX 312m
param *.uav[31].startY 1262m
param *.uav[31].startZ 540m
param *.uav[32].startX 2185m
param *.uav[32].startY 3026m
param *.uav[32].startZ 778m
param *.uav[33].startX 3537m
param *.uav[33].startY 965m
param *.uav[33].startZ 539m
param *.uav[34].startX 312m
param *.uav[34].startY 1262m
param *.uav[34].startZ 540m
param *.uav[35].startX 2185m
param *.uav[35].startY 3026m
param *.uav[35].startZ 778m
param *.uav[36].startX 3537m
param *.uav[36].startY 965m
param *.uav[36].startZ 539m
param *.uav[37].startX 312m
param *.uav[37].startY 1262m
param *.uav[37].startZ 540m
param *.uav[38].startX 2185m
param *.uav[38].startY 3026m
param *.uav[38].startZ 778m
param *.uav[39].startX 3537m
param *.uav[39].startY 965m
param *.uav[39].startZ 539m
param *.uav[40].startX 3537m
param *.uav[40].startY 965m
param *.uav[40].startZ 539m
param *.uav[41].startX 312m
param *.uav[41].startY 1262m
param *.uav[41].startZ 540m
param *.uav[42].startX 2185m
param *.uav[42].startY 3026m
param *.uav[42].startZ 778m
param *.uav[43].startX 3537m
param *.uav[43].startY 965m
param *.uav[43].startZ 539m
param *.uav[44].startX 312m
param *.uav[44].startY 1262m
param *.uav[44].startZ 540m
param *.uav[45].startX 2185m
param *.uav[45].startY 3026m
param *.uav[45].startZ 778m
param *.uav[46].startX 3537m
param *.uav[46].startY 965m
param *.uav[46].startZ 539m
param *.uav[47].startX 312m
param *.uav[47].startY 1262m
param *.uav[47].startZ 540m
param *.uav[48].startX 2185m
param *.uav[48].startY 3026m
param *.uav[48].startZ 778m
param *.uav[49].startX 3537m
param *.uav[49].startY 965m
param *.uav[49].startZ 539m
param *.uav[50].startX 3537m
param *.uav[50].startY 965m
param *.uav[50].startZ 539m
param *.uav[51].startX 312m
param *.uav[51].startY 1262m
param *.uav[51].startZ 540m
param *.uav[52].startX 2185m
param *.uav[52].startY 3026m
param *.uav[52].startZ 778m
param *.uav[53].startX 3537m
param *.uav[53].startY 965m
param *.uav[53].startZ 539m
param *.uav[54].startX 312m
param *.uav[54].startY 1262m
param *.uav[54].startZ 540m
param *.uav[55].startX 2185m
param *.uav[55].startY 3026m
param *.uav[55].startZ 778m
param *.uav[56].startX 3537m
param *.uav[56].startY 965m
param *.uav[56].startZ 539m
param *.uav[57].startX 312m
param *.uav[57].startY 1262m
param *.uav[57].startZ 540m
param *.uav[58].startX 2185m
param *.uav[58].startY 3026m
param *.uav[58].startZ 778m
param *.uav[59].startX 3537m
param *.uav[59].startY 965m
param *.uav[59].startZ 539m
param *.uav[60].startX 3537m
param *.uav[60].startY 965m
param *.uav[60].startZ 539m
param *.uav[61].startX 312m
param *.uav[61].startY 1262m
param *.uav[61].startZ 540m
param *.uav[62].startX 2185m
param *.uav[62].startY 3026m
param *.uav[62].startZ 778m
param *.uav[63].startX 3537m
param *.uav[63].startY 965m
param *.uav[63].startZ 539m
param *.uav[64].startX 312m
param *.uav[64].startY 1262m
param *.uav[64].startZ 540m
param *.uav[65].startX 2185m
param *.uav[65].startY 3026m
param *.uav[65].startZ 778m
param *.uav[66].startX 3537m
param *.uav[66].startY 965m
param *.uav[66].startZ 539m
param *.uav[67].startX 312m
param *.uav[67].startY 1262m
param *.uav[67].startZ 540m
param *.uav[68].startX 2185m
param *.uav[68].startY 3026m
param *.uav[68].startZ 778m
param *.uav[69].startX 3537m
param *.uav[69].startY 965m
param *.uav[69].startZ 539m
param *.uav[70].startX 3537m
param *.uav[70].startY 965m
param *.uav[70].startZ 539m
param *.uav[71].startX 312m
param *.uav[71].startY 1262m
param *.uav[71].startZ 540m
param *.uav[72].startX 2185m
param *.uav[72].startY 3026m
param *.uav[72].startZ 778m
param *.uav[73].startX 3537m
param *.uav[73].startY 965m
param *.uav[73].startZ 539m
param *.uav[74].startX 312m
param *.uav[74].startY 1262m
param *.uav[74].startZ 540m
param *.uav[75].startX 2185m
param *.uav[75].startY 3026m
param *.uav[75].startZ 778m
param *.uav[76].startX 3537m
param *.uav[76].startY 965m
param *.uav[76].startZ 539m
param *.uav[77].startX 312m
param *.uav[77].startY 1262m
param *.uav[77].startZ 540m
param *.uav[78].startX 2185m
param *.uav[78].startY 3026m
param *.uav[78].startZ 778m
param *.uav[79].startX 3537m
param *.uav[79].startY 965m
param *.uav[79].startZ 539m
param *.uav[80].startX 3537m
param *.uav[80].startY 965m
param *.uav[80].startZ 539m
param *.uav[81].startX 312m
param *.uav[81].startY 1262m
param *.uav[81].startZ 540m
param *.uav[82].startX 2185m
param *.uav[82].startY 3026m
param *.uav[82].startZ 778m
param *.uav[83].startX 3537m
param *.uav[83].startY 965m
param *.uav[83].startZ 539m
param *.uav[84].startX 312m
param *.uav[84].startY 1262m
param *.uav[84].startZ 540m
param *.uav[85].startX 2185m
param *.uav[85].startY 3026m
param *.uav[85].startZ 778m
param *.uav[86].startX 3537m
param *.uav[86].startY 965m
param *.uav[86].startZ 539m
param *.uav[87].startX 312m
param *.uav[87].startY 1262m
param *.uav[87].startZ 540m
param *.uav[88].startX 2185m
param *.uav[88].startY 3026m
param *.uav[88].startZ 778m
param *.uav[89].startX 3537m
param *.uav[89].startY 965m
param *.uav[89].startZ 539m
param *.uav[90].startX 3537m
param *.uav[90].startY 965m
param *.uav[90].startZ 539m
param *.uav[91].startX 312m
param *.uav[91].startY 1262m
param *.uav[91].startZ 540m
param *.uav[92].startX 2185m
param *.uav[92].startY 3026m
param *.uav[92].startZ 778m
param *.uav[93].startX 3537m
param *.uav[93].startY 965m
param *.uav[93].startZ 539m
param *.uav[94].startX 312m
param *.uav[94].startY 1262m
param *.uav[94].startZ 540m
param *.uav[95].startX 2185m
param *.uav[95].startY 3026m
param *.uav[95].startZ 778m
param *.uav[96].startX 3537m
param *.uav[96].startY 965m
param *.uav[96].startZ 539m
param *.uav[97].startX 312m
param *.uav[97].startY 1262m
param *.uav[97].startZ 540m
param *.uav[98].startX 2185m
param *.uav[98].startY 3026m
param *.uav[98].startZ 778m
param *.uav[99].startX 3537m
param *.uav[99].startY 965m
param *.uav[99].startZ 539m
param *.osgEarthScene.scene "\"boston.earth\""
param *.playgroundLatitude 42.3558
param *.playgroundLongitude -71.0677
param *.playgroundWidth 400m
param *.playgroundHeight 200m
param *.channelController.connectionColor "\"#0000FF40\""
param *.channelController.showConnections false
param *.uav[*].modelURL "\"quadrocopter.small.obj.15.scale.0,0,90.rot\""
param *.uav[*].labelColor "\"#FF7C00CC\""
param *.uav[*].label2Color "\"#FF7C00EE\""
param *.uav[*].batteryCapacity 5200mAh
param *.uav[*].batteryRemaining uav[index].batteryCapacity
param *.uav[*].predictionQuantile 0.95
param *.uav[*].replacementMethod 2
param *.uav[*].weightedSumWeight 0.5
param *.cs[*].modelURL "\"chargingstation_v1.osgt.2.scale.0,0,0.rot.0,0,-15e-1.trans\""
param *.cs[*].spotsWaiting 999
param *.cs[*].spotsCharging 999
param *.cs[*].chargeEffectivenessPercentage 100
param *.cs[*].nonLinearPhaseStartPercentage 85
param *.cs[*].chargeCurrent 6.0A
param *.cs[*].prioritizeFastCharge true
param *.missionControl.replacementSearchMethod 0
param *.*.timeStep 9s

scalar OsgEarthNet.uav[0] utilizationSecMission 1700.6251525803
scalar OsgEarthNet.uav[0] utilizationSecMaintenance 1087.7482372535
scalar OsgEarthNet.uav[0] utilizationSecCharge 10430
scalar OsgEarthNet.uav[0] utilizationSecIdle 245981.62561017
scalar OsgEarthNet.uav[0] utilizationEnergyMission 7920.5312194824
scalar OsgEarthNet.uav[0] utilizationEnergyMaintenance 5140.5678138733
scalar OsgEarthNet.uav[0] utilizationEnergyCharge 13434.068359375
scalar OsgEarthNet.uav[0] utilizationEnergyOverdrawMission 0
scalar OsgEarthNet.uav[0] utilizationEnergyOverdrawMaintenance 0
scalar OsgEarthNet.uav[0] utilizationCountMissions 3
scalar OsgEarthNet.uav[0] utilizationCountManeuversMission 59
scalar OsgEarthNet.uav[0] utilizationCountManeuversMaintenance 6
scalar OsgEarthNet.uav[0] utilizationCountChargeState 3
scalar OsgEarthNet.uav[0] utilizationCountOverdrawnAfterMission 0
scalar OsgEarthNet.uav[0] utilizationCountIdleState 4
scalar OsgEarthNet.uav[0] utilizationFail 0
scalar OsgEarthNet.uav[0] simulationTime 259200
scalar OsgEarthNet.uav[1] utilizationSecMission 39947.621913996
scalar OsgEarthNet.uav[1] utilizationSecMaintenance 18389.021376592
scalar OsgEarthNet.uav[1] utilizationSecCharge 195560.10243956
scalar OsgEarthNet.uav[1] utilizationSecIdle 5303.2532698524
scalar OsgEarthNet.uav[1] utilizationEnergyMission 193195.49162292
scalar OsgEarthNet.uav[1] utilizationEnergyMaintenance 85935.363876343
scalar OsgEarthNet.uav[1] utilizationEnergyCharge 276563.88745117
scalar OsgEarthNet.uav[1] utilizationEnergyOverdrawMission 0
scalar OsgEarthNet.uav[1] utilizationEnergyOverdrawMaintenance 0
scalar OsgEarthNet.uav[1] utilizationCountMissions 60
scalar OsgEarthNet.uav[1] utilizationCountManeuversMission 1174
scalar OsgEarthNet.uav[1] utilizationCountManeuversMaintenance 120
scalar OsgEarthNet.uav[1] utilizationCountChargeState 60
scalar OsgEarthNet.uav[1] utilizationCountOverdrawnAfterMission 0
scalar OsgEarthNet.uav[1] utilizationCountIdleState 13
scalar OsgEarthNet.uav[1] utilizationFail 0
scalar OsgEarthNet.uav[1] simulationTime 259200
scalar OsgEarthNet.uav[2] utilizationSecMission 41280.578671743
scalar OsgEarthNet.uav[2] utilizationSecMaintenance 18115.569544223
scalar OsgEarthNet.uav[2] utilizationSecCharge 197951.84878403
scalar OsgEarthNet.uav[2] utilizationSecIdle 1852.002
scalar OsgEarthNet.uav[2] utilizationEnergyMission 195601.67599106
scalar OsgEarthNet.uav[2] utilizationEnergyMaintenance 84074.960079193
scalar OsgEarthNet.uav[2] utilizationEnergyCharge 280593.54003906
scalar OsgEarthNet.uav[2] utilizationEnergyOverdrawMission 0
scalar OsgEarthNet.uav[2] utilizationEnergyOverdrawMaintenance 0
scalar OsgEarthNet.uav[2] utilizationCountMissions 61
scalar OsgEarthNet.uav[2] utilizationCountManeuversMission 1122
scalar OsgEarthNet.uav[2] utilizationCountManeuversMaintenance 122
scalar OsgEarthNet.uav[2] utilizationCountChargeState 61
scalar OsgEarthNet.uav[2] utilizationCountOverdrawnAfterMission 0
scalar OsgEarthNet.uav[2] utilizationCountIdleState 9
scalar OsgEarthNet.uav[2] utilizationFail 0
scalar OsgEarthNet.uav[2] simulationTime 259200
scalar OsgEarthNet.uav[3] utilizationSecMission 1740.6251525803
scalar OsgEarthNet.uav[3] utilizationSecMaintenance 1175.1356214302
scalar OsgEarthNet.uav[3] utilizationSecCharge 10780
scalar OsgEarthNet.uav[3] utilizationSecIdle 245504.23822599
scalar OsgEarthNet.uav[3] utilizationEnergyMission 8749.7004814148
scalar OsgEarthNet.uav[3] utilizationEnergyMaintenance 5610.0067481995
scalar OsgEarthNet.uav[3] utilizationEnergyCharge 13993.715820312
scalar OsgEarthNet.uav[3] utilizationEnergyOverdrawMission 0
scalar OsgEarthNet.uav[3] utilizationEnergyOverdrawMaintenance 0
scalar OsgEarthNet.uav[3] utilizationCountMissions 3
scalar OsgEarthNet.uav[3] utilizationCountManeuversMission 61
scalar OsgEarthNet.uav[3] utilizationCountManeuversMaintenance 6
scalar OsgEarthNet.uav[3] utilizationCountChargeState 3
scalar OsgEarthNet.uav[3] utilizationCountOverdrawnAfterMission 0
scalar OsgEarthNet.uav[3] utilizationCountIdleState 4
scalar OsgEarthNet.uav[3] utilizationFail 0
scalar OsgEarthNet.uav[3] simulationTime 259200
scalar OsgEarthNet.uav[4] utilizationSecMission 1202.9478315036
scalar OsgEarthNet.uav[4] utilizationSecMaintenance 693.64054514173
scalar OsgEarthNet.uav[4] utilizationSecCharge 7050
scalar OsgEarthNet.uav[4] utilizationSecIdle 250253.41062335
scalar OsgEarthNet.uav[4] utilizationEnergyMission 5787.1384429932
scalar OsgEarthNet.uav[4] utilizationEnergyMaintenance 3239.0669898987
scalar OsgEarthNet.uav[4] utilizationEnergyCharge 9072.9799804688
scalar OsgEarthNet.uav[4] utilizationEnergyOverdrawMission 0
scalar OsgEarthNet.uav[4] utilizationEnergyOverdrawMaintenance 0
scalar OsgEarthNet.uav[4] utilizationCountMissions 2
scalar OsgEarthNet.uav[4] utilizationCountManeuversMission 38
scalar OsgEarthNet.uav[4] utilizationCountManeuversMaintenance 4
scalar OsgEarthNet.uav[4] utilizationCountChargeState 2
scalar OsgEarthNet.uav[4] utilizationCountOverdrawnAfterMission 0
scalar OsgEarthNet.uav[4] utilizationCountIdleState 3
scalar OsgEarthNet.uav[4] utilizationFail 0
scalar OsgEarthNet.uav[4] simulationTime 259200
scalar OsgEarthNet.uav[5] utilizationSecMission 41283.584250739
scalar OsgEarthNet.uav[5] utilizationSecMaintenance 17054.486608438
scalar OsgEarthNet.uav[5] utilizationSecCharge 196229.92314082
scalar OsgEarthNet.uav[5] utilizationSecIdle 4632.005
scalar OsgEarthNet.uav[5] utilizationEnergyMission 197291.89173126
scalar OsgEarthNet.uav[5] utilizationEnergyMaintenance 79437.247909546
scalar OsgEarthNet.uav[5] utilizationEnergyCharge 274941.20727539
scalar OsgEarthNet.uav[5] utilizationEnergyOverdrawMission 0
scalar OsgEarthNet.uav[5] utilizationEnergyOverdrawMaintenance 0
scalar OsgEarthNet.uav[5] utilizationCountMissions 60
scalar OsgEarthNet.uav[5] utilizationCountManeuversMission 1201
scalar OsgEarthNet.uav[5] utilizationCountManeuversMaintenance 120
scalar OsgEarthNet.uav[5] utilizationCountChargeState 60
scalar OsgEarthNet.uav[5] utilizationCountOverdrawnAfterMission 0
scalar OsgEarthNet.uav[5] utilizationCountIdleState 16
scalar OsgEarthNet.uav[5] utilizationFail 0
scalar OsgEarthNet.uav[5] simulationTime 259200
scalar OsgEarthNet.uav[6] utilizationSecMission 38963.955388053
scalar OsgEarthNet.uav[6] utilizationSecMaintenance 19384.051868527
scalar OsgEarthNet.uav[6] utilizationSecCharge 196890
scalar OsgEarthNet.uav[6] utilizationSecIdle 3961.9917434202
scalar OsgEarthNet.uav[6] utilizationEnergyMission 189606.71968242
scalar OsgEarthNet.uav[6] utilizationEnergyMaintenance 89721.218860626
scalar OsgEarthNet.uav[6] utilizationEnergyCharge 280061.55664062
scalar OsgEarthNet.uav[6] utilizationEnergyOverdrawMission 0
scalar OsgEarthNet.uav[6] utilizationEnergyOverdrawMaintenance 0
scalar OsgEarthNet.uav[6] utilizationCountMissions 61
scalar OsgEarthNet.uav[6] utilizationCountManeuversMission 1323
scalar OsgEarthNet.uav[6] utilizationCountManeuversMaintenance 123
scalar OsgEarthNet.uav[6] utilizationCountChargeState 61
scalar OsgEarthNet.uav[6] utilizationCountOverdrawnAfterMission 0
scalar OsgEarthNet.uav[6] utilizationCountIdleState 5
scalar OsgEarthNet.uav[6] utilizationFail 0
scalar OsgEarthNet.uav[6] simulationTime 259200
scalar OsgEarthNet.uav[7] utilizationSecMission 23892.551275619
scalar OsgEarthNet.uav[7] utilizationSecMaintenance 16533.198350682
scalar OsgEarthNet.uav[7] utilizationSecCharge 154909.63748418
scalar OsgEarthNet.uav[7] utilizationSecIdle 63864.611889516
scalar OsgEarthNet.uav[7] utilizationEnergyMission 116038.09708023
scalar OsgEarthNet.uav[7] utilizationEnergyMaintenance 78109.70955658
scalar OsgEarthNet.uav[7] utilizationEnergyCharge 192560.78540039
scalar OsgEarthNet.uav[7] utilizationEnergyOverdrawMission 0
scalar OsgEarthNet.uav[7] utilizationEnergyOverdrawMaintenance 0
scalar OsgEarthNet.uav[7] utilizationCountMissions 49
scalar OsgEarthNet.uav[7] utilizationCountManeuversMission 807
scalar OsgEarthNet.uav[7] utilizationCountManeuversMaintenance 98
scalar OsgEarthNet.uav[7] utilizationCountChargeState 49
scalar OsgEarthNet.uav[7] utilizationCountOverdrawnAfterMission 0
scalar OsgEarthNet.uav[7] utilizationCountIdleState 49
scalar OsgEarthNet.uav[7] utilizationFail 0
scalar OsgEarthNet.uav[7] simulationTime 259200
scalar OsgEarthNet.uav[8] utilizationSecMission 41177.675546537
scalar OsgEarthNet.uav[8] utilizationSecMaintenance 17555.718407219
scalar OsgEarthNet.uav[8] utilizationSecCharge 197503.90237853
scalar OsgEarthNet.uav[8] utilizationSecIdle 2962.7026677176
scalar OsgEarthNet.uav[8] utilizationEnergyMission 199470.70418549
scalar OsgEarthNet.uav[8] utilizationEnergyMaintenance 82002.40189743
scalar OsgEarthNet.uav[8] utilizationEnergyCharge 279391.87841797
scalar OsgEarthNet.uav[8] utilizationEnergyOverdrawMission 0
scalar OsgEarthNet.uav[8] utilizationEnergyOverdrawMaintenance 0
scalar OsgEarthNet.uav[8] utilizationCountMissions 61
scalar OsgEarthNet.uav[8] utilizationCountManeuversMission 1313
scalar OsgEarthNet.uav[8] utilizationCountManeuversMaintenance 122
scalar OsgEarthNet.uav[8] utilizationCountChargeState 61
scalar OsgEarthNet.uav[8] utilizationCountOverdrawnAfterMission 0
scalar OsgEarthNet.uav[8] utilizationCountIdleState 10
scalar OsgEarthNet.uav[8] utilizationFail 0
scalar OsgEarthNet.uav[8] simulationTime 259200
scalar OsgEarthNet.uav[9] utilizationSecMission 480
scalar OsgEarthNet.uav[9] utilizationSecMaintenance 447.1303002674
scalar OsgEarthNet.uav[9] utilizationSecCharge 3580
scalar OsgEarthNet.uav[9] utilizationSecIdle 254692.86869973
scalar OsgEarthNet.uav[9] utilizationEnergyMission 2621.1190948486
scalar OsgEarthNet.uav[9] utilizationEnergyMaintenance 2172.5669670105
scalar OsgEarthNet.uav[9] utilizationEnergyCharge 4604.4350585938
scalar OsgEarthNet.uav[9] utilizationEnergyOverdrawMission 0
scalar OsgEarthNet.uav[9] utilizationEnergyOverdrawMaintenance 0
scalar OsgEarthNet.uav[9] utilizationCountMissions 1
scalar OsgEarthNet.uav[9] utilizationCountManeuversMission 24
scalar OsgEarthNet.uav[9] utilizationCountManeuversMaintenance 2
scalar OsgEarthNet.uav[9] utilizationCountChargeState 1
scalar OsgEarthNet.uav[9] utilizationCountOverdrawnAfterMission 0
scalar OsgEarthNet.uav[9] utilizationCountIdleState 2
scalar OsgEarthNet.uav[9] utilizationFail 0
scalar OsgEarthNet.uav[9] simulationTime 259200
scalar OsgEarthNet.uav[10] utilizationSecMission 2501.3593802398
scalar OsgEarthNet.uav[10] utilizationSecMaintenance 1092.8729301922
scalar OsgEarthNet.uav[10] utilizationSecCharge 13680
scalar OsgEarthNet.uav[10] utilizationSecIdle 241925.76668957
scalar OsgEarthNet.uav[10] utilizationEnergyMission 12394.039791107
scalar OsgEarthNet.uav[10] utilizationEnergyMaintenance 5238.0720672607
scalar OsgEarthNet.uav[10] utilizationEnergyCharge 17579.316894531
scalar OsgEarthNet.uav[10] utilizationEnergyOverdrawMission 0
scalar OsgEarthNet.uav[10] utilizationEnergyOverdrawMaintenance 0
scalar OsgEarthNet.uav[10] utilizationCountMissions 4
scalar OsgEarthNet.uav[10] utilizationCountManeuversMission 56
scalar OsgEarthNet.uav[10] utilizationCountManeuversMaintenance 8
scalar OsgEarthNet.uav[10] utilizationCountChargeState 4
scalar OsgEarthNet.uav[10] utilizationCountOverdrawnAfterMission 0
scalar OsgEarthNet.uav[10] utilizationCountIdleState 5
scalar OsgEarthNet.uav[10] utilizationFail 0
scalar OsgEarthNet.uav[10] simulationTime 259200
scalar OsgEarthNet.uav[11] utilizationSecMission 17404.40985148
scalar OsgEarthNet.uav[11] utilizationSecMaintenance 12457.235049711
scalar OsgEarthNet.uav[11] utilizationSecCharge 117470
scalar OsgEarthNet.uav[11] utilizationSecIdle 111868.35409881
scalar OsgEarthNet.uav[11] utilizationEnergyMission 84867.902862549
scalar OsgEarthNet.uav[11] utilizationEnergyMaintenance 59881.320808411
scalar OsgEarthNet.uav[11] utilizationEnergyCharge 145311.25537109
scalar OsgEarthNet.uav[11] utilizationEnergyOverdrawMission 0
scalar OsgEarthNet.uav[11] utilizationEnergyOverdrawMaintenance 0
scalar OsgEarthNet.uav[11] utilizationCountMissions 37
scalar OsgEarthNet.uav[11] utilizationCountManeuversMission 601
scalar OsgEarthNet.uav[11] utilizationCountManeuversMaintenance 74
scalar OsgEarthNet.uav[11] utilizationCountChargeState 37
scalar OsgEarthNet.uav[11] utilizationCountOverdrawnAfterMission 0
scalar OsgEarthNet.uav[11] utilizationCountIdleState 38
scalar OsgEarthNet.uav[11] utilizationFail 0
scalar OsgEarthNet.uav[11] simulationTime 259200
scalar OsgEarthNet.uav[12] utilizationSecMission 41278.769587815
scalar OsgEarthNet.uav[12] utilizationSecMaintenance 17449.791199006
scalar OsgEarthNet.uav[12] utilizationSecCharge 198663.98794915
scalar OsgEarthNet.uav[12] utilizationSecIdle 1807.4502640309
scalar OsgEarthNet.uav[12] utilizationEnergyMission 198793.05124283
scalar OsgEarthNet.uav[12] utilizationEnergyMaintenance 80271.383399963
scalar OsgEarthNet.uav[12] utilizationEnergyCharge 280284.36962891
scalar OsgEarthNet.uav[12] utilizationEnergyOverdrawMission 0
scalar OsgEarthNet.uav[12] utilizationEnergyOverdrawMaintenance 0
scalar OsgEarthNet.uav[12] utilizationCountMissions 61
scalar OsgEarthNet.uav[12] utilizationCountManeuversMission 1271
scalar OsgEarthNet.uav[12] utilizationCountManeuversMaintenance 122
scalar OsgEarthNet.uav[12] utilizationCountChargeState 61
scalar OsgEarthNet.uav[12] utilizationCountOverdrawnAfterMission 0
scalar OsgEarthNet.uav[12] utilizationCountIdleState 13
scalar OsgEarthNet.uav[12] utilizationFail 0
scalar OsgEarthNet.uav[12] simulationTime 259200
scalar OsgEarthNet.uav[13] utilizationSecMission 1660.6251525803
scalar OsgEarthNet.uav[13] utilizationSecMaintenance 1175.1356214302
scalar OsgEarthNet.uav[13] utilizationSecCharge 10740
scalar OsgEarthNet.uav[13] utilizationSecIdle 245624.23822599
scalar OsgEarthNet.uav[13] utilizationEnergyMission 8168.1767349243
scalar OsgEarthNet.uav[13] utilizationEnergyMaintenance 5620.9583473205
scalar OsgEarthNet.uav[13] utilizationEnergyCharge 13787.489257812
scalar OsgEarthNet.uav[13] utilizationEnergyOverdrawMission 0
scalar OsgEarthNet.uav[13] utilizationEnergyOverdrawMaintenance 0
scalar OsgEarthNet.uav[13] utilizationCountMissions 3
scalar OsgEarthNet.uav[13] utilizationCountManeuversMission 57
scalar OsgEarthNet.uav[13] utilizationCountManeuversMaintenance 6
scalar OsgEarthNet.uav[13] utilizationCountChargeState 3
scalar OsgEarthNet.uav[13] utilizationCountOverdrawnAfterMission 0
scalar OsgEarthNet.uav[13] utilizationCountIdleState 4
scalar OsgEarthNet.uav[13] utilizationFail 0
scalar OsgEarthNet.uav[13] simulationTime 259200
scalar OsgEarthNet.uav[14] utilizationSecMission 24887.274372114
scalar OsgEarthNet.uav[14] utilizationSecMaintenance 15540.324879506
scalar OsgEarthNet.uav[14] utilizationSecCharge 151660.39974838
scalar OsgEarthNet.uav[14] utilizationSecIdle 67112
scalar OsgEarthNet.uav[14] utilizationEnergyMission 119495.53729248
scalar OsgEarthNet.uav[14] utilizationEnergyMaintenance 73925.971221924
scalar OsgEarthNet.uav[14] utilizationEnergyCharge 188751.59289551
scalar OsgEarthNet.uav[14] utilizationEnergyOverdrawMission 0
scalar OsgEarthNet.uav[14] utilizationEnergyOverdrawMaintenance 0
scalar OsgEarthNet.uav[14] utilizationCountMissions 48
scalar OsgEarthNet.uav[14] utilizationCountManeuversMission 743
scalar OsgEarthNet.uav[14] utilizationCountManeuversMaintenance 95
scalar OsgEarthNet.uav[14] utilizationCountChargeState 48
scalar OsgEarthNet.uav[14] utilizationCountOverdrawnAfterMission 0
scalar OsgEarthNet.uav[14] utilizationCountIdleState 48
scalar OsgEarthNet.uav[14] utilizationFail 0
scalar OsgEarthNet.uav[14] simulationTime 259200
scalar OsgEarthNet.uav[15] utilizationSecMission 41838.117162476
scalar OsgEarthNet.uav[15] utilizationSecMaintenance 17180.743714909
scalar OsgEarthNet.uav[15] utilizationSecCharge 196884.43276007
scalar OsgEarthNet.uav[15] utilizationSecIdle 3296.705362542
scalar OsgEarthNet.uav[15] utilizationEnergyMission 198852.99672318
scalar OsgEarthNet.uav[15] utilizationEnergyMaintenance 79667.239528656
scalar OsgEarthNet.uav[15] utilizationEnergyCharge 276036.1315918
scalar OsgEarthNet.uav[15] utilizationEnergyOverdrawMission 0
scalar OsgEarthNet.uav[15] utilizationEnergyOverdrawMaintenance 0
scalar OsgEarthNet.uav[15] utilizationCountMissions 60
scalar OsgEarthNet.uav[15] utilizationCountManeuversMission 1034
scalar OsgEarthNet.uav[15] utilizationCountManeuversMaintenance 120
scalar OsgEarthNet.uav[15] utilizationCountChargeState 60
scalar OsgEarthNet.uav[15] utilizationCountOverdrawnAfterMission 0
scalar OsgEarthNet.uav[15] utilizationCountIdleState 9
scalar OsgEarthNet.uav[15] utilizationFail 0
scalar OsgEarthNet.uav[15] simulationTime 259200
scalar OsgEarthNet.uav[16] utilizationSecMission 16302.403895637
scalar OsgEarthNet.uav[16] utilizationSecMaintenance 10110.126357042
scalar OsgEarthNet.uav[16] utilizationSecCharge 95314.842586532
scalar OsgEarthNet.uav[16] utilizationSecIdle 137472.62616079
scalar OsgEarthNet.uav[16] utilizationEnergyMission 78076.185977936
scalar OsgEarthNet.uav[16] utilizationEnergyMaintenance 47602.160385132
scalar OsgEarthNet.uav[16] utilizationEnergyCharge 123230.14819336
scalar OsgEarthNet.uav[16] utilizationEnergyOverdrawMission 0
scalar OsgEarthNet.uav[16] utilizationEnergyOverdrawMaintenance 0
scalar OsgEarthNet.uav[16] utilizationCountMissions 28
scalar OsgEarthNet.uav[16] utilizationCountManeuversMission 512
scalar OsgEarthNet.uav[16] utilizationCountManeuversMaintenance 56
scalar OsgEarthNet.uav[16] utilizationCountChargeState 28
scalar OsgEarthNet.uav[16] utilizationCountOverdrawnAfterMission 0
scalar OsgEarthNet.uav[16] utilizationCountIdleState 28
scalar OsgEarthNet.uav[16] utilizationFail 0
scalar OsgEarthNet.uav[16] simulationTime 259200
scalar OsgEarthNet.uav[17] utilizationSecMission 18295.359557106
scalar OsgEarthNet.uav[17] utilizationSecMaintenance 13873.910302532
scalar OsgEarthNet.uav[17] utilizationSecCharge 126940
scalar OsgEarthNet.uav[17] utilizationSecIdle 100090.72914036
scalar OsgEarthNet.uav[17] utilizationEnergyMission 91483.375392914
scalar OsgEarthNet.uav[17] utilizationEnergyMaintenance 65995.157459259
scalar OsgEarthNet.uav[17] utilizationEnergyCharge 158595.77050781
scalar OsgEarthNet.uav[17] utilizationEnergyOverdrawMission 0
scalar OsgEarthNet.uav[17] utilizationEnergyOverdrawMaintenance 0
scalar OsgEarthNet.uav[17] utilizationCountMissions 39
scalar OsgEarthNet.uav[17] utilizationCountManeuversMission 735
scalar OsgEarthNet.uav[17] utilizationCountManeuversMaintenance 78
scalar OsgEarthNet.uav[17] utilizationCountChargeState 39
scalar OsgEarthNet.uav[17] utilizationCountOverdrawnAfterMission 0
scalar OsgEarthNet.uav[17] utilizationCountIdleState 40
scalar OsgEarthNet.uav[17] utilizationFail 0
scalar OsgEarthNet.uav[17] simulationTime 259200
scalar OsgEarthNet.uav[18] utilizationSecMission 43209.432612803
scalar OsgEarthNet.uav[18] utilizationSecMaintenance 16555.613423644
scalar OsgEarthNet.uav[18] utilizationSecCharge 198332.95296355
scalar OsgEarthNet.uav[18] utilizationSecIdle 1102
scalar OsgEarthNet.uav[18] utilizationEnergyMission 208095.15775583
scalar OsgEarthNet.uav[18] utilizationEnergyMaintenance 76154.189937592
scalar OsgEarthNet.uav[18] utilizationEnergyCharge 278387.88006592
scalar OsgEarthNet.uav[18] utilizationEnergyOverdrawMission 0
scalar OsgEarthNet.uav[18] utilizationEnergyOverdrawMaintenance 0
scalar OsgEarthNet.uav[18] utilizationCountMissions 61
scalar OsgEarthNet.uav[18] utilizationCountManeuversMission 1245
scalar OsgEarthNet.uav[18] utilizationCountManeuversMaintenance 121
scalar OsgEarthNet.uav[18] utilizationCountChargeState 61
scalar OsgEarthNet.uav[18] utilizationCountOverdrawnAfterMission 0
scalar OsgEarthNet.uav[18] utilizationCountIdleState 15
scalar OsgEarthNet.uav[18] utilizationFail 0
scalar OsgEarthNet.uav[18] simulationTime 259200
scalar OsgEarthNet.uav[19] utilizationSecMission 12867.501830963
scalar OsgEarthNet.uav[19] utilizationSecMaintenance 6246.8561977278
scalar OsgEarthNet.uav[19] utilizationSecCharge 71160
scalar OsgEarthNet.uav[19] utilizationSecIdle 168925.64097131
scalar OsgEarthNet.uav[19] utilizationEnergyMission 62270.408111572
scalar OsgEarthNet.uav[19] utilizationEnergyMaintenance 30169.073104858
scalar OsgEarthNet.uav[19] utilizationEnergyCharge 92066.518066406
scalar OsgEarthNet.uav[19] utilizationEnergyOverdrawMission 0
scalar OsgEarthNet.uav[19] utilizationEnergyOverdrawMaintenance 0
scalar OsgEarthNet.uav[19] utilizationCountMissions 20
scalar OsgEarthNet.uav[19] utilizationCountManeuversMission 331
scalar OsgEarthNet.uav[19] utilizationCountManeuversMaintenance 40
scalar OsgEarthNet.uav[19] utilizationCountChargeState 20
scalar OsgEarthNet.uav[19] utilizationCountOverdrawnAfterMission 0
scalar OsgEarthNet.uav[19] utilizationCountIdleState 21
scalar OsgEarthNet.uav[19] utilizationFail 0
scalar OsgEarthNet.uav[19] simulationTime 259200
scalar OsgEarthNet.uav[20] utilizationSecMission 12205.001220642
scalar OsgEarthNet.uav[20] utilizationSecMaintenance 7798.6373133996
scalar OsgEarthNet.uav[20] utilizationSecCharge 73929.15078698
scalar OsgEarthNet.uav[20] utilizationSecIdle 165267.20967898
scalar OsgEarthNet.uav[20] utilizationEnergyMission 60249.590335846
scalar OsgEarthNet.uav[20] utilizationEnergyMaintenance 37278.304988861
scalar OsgEarthNet.uav[20] utilizationEnergyCharge 96507.702636719
scalar OsgEarthNet.uav[20] utilizationEnergyOverdrawMission 0
scalar OsgEarthNet.uav[20] utilizationEnergyOverdrawMaintenance 0
scalar OsgEarthNet.uav[20] utilizationCountMissions 21
scalar OsgEarthNet.uav[20] utilizationCountManeuversMission 402
scalar OsgEarthNet.uav[20] utilizationCountManeuversMaintenance 42
scalar OsgEarthNet.uav[20] utilizationCountChargeState 21
scalar OsgEarthNet.uav[20] utilizationCountOverdrawnAfterMission 0
scalar OsgEarthNet.uav[20] utilizationCountIdleState 21
scalar OsgEarthNet.uav[20] utilizationFail 0
scalar OsgEarthNet.uav[20] simulationTime 259200
scalar OsgEarthNet.uav[21] utilizationSecMission 21516.201177494
scalar OsgEarthNet.uav[21] utilizationSecMaintenance 14775.415074588
scalar OsgEarthNet.uav[21] utilizationSecCharge 139304.71456993
scalar OsgEarthNet.uav[21] utilizationSecIdle 83603.668177988
scalar OsgEarthNet.uav[21] utilizationEnergyMission 105490.9431839
scalar OsgEarthNet.uav[21] utilizationEnergyMaintenance 69864.143184662
scalar OsgEarthNet.uav[21] utilizationEnergyCharge 173683.81616211
scalar OsgEarthNet.uav[21] utilizationEnergyOverdrawMission 0
scalar OsgEarthNet.uav[21] utilizationEnergyOverdrawMaintenance 0
scalar OsgEarthNet.uav[21] utilizationCountMissions 44
scalar OsgEarthNet.uav[21] utilizationCountManeuversMission 718
scalar OsgEarthNet.uav[21] utilizationCountManeuversMaintenance 88
scalar OsgEarthNet.uav[21] utilizationCountChargeState 44
scalar OsgEarthNet.uav[21] utilizationCountOverdrawnAfterMission 0
scalar OsgEarthNet.uav[21] utilizationCountIdleState 44
scalar OsgEarthNet.uav[21] utilizationFail 0
scalar OsgEarthNet.uav[21] simulationTime 259200
scalar OsgEarthNet.uav[22] utilizationSecMission 41764.907172584
scalar OsgEarthNet.uav[22] utilizationSecMaintenance 16511.178888312
scalar OsgEarthNet.uav[22] utilizationSecCharge 197781.9099391
scalar OsgEarthNet.uav[22] utilizationSecIdle 3142.003
scalar OsgEarthNet.uav[22] utilizationEnergyMission 201003.52656174
scalar OsgEarthNet.uav[22] utilizationEnergyMaintenance 76637.513214111
scalar OsgEarthNet.uav[22] utilizationEnergyCharge 276897.01220703
scalar OsgEarthNet.uav[22] utilizationEnergyOverdrawMission 0
scalar OsgEarthNet.uav[22] utilizationEnergyOverdrawMaintenance 0
scalar OsgEarthNet.uav[22] utilizationCountMissions 60
scalar OsgEarthNet.uav[22] utilizationCountManeuversMission 1171
scalar OsgEarthNet.uav[22] utilizationCountManeuversMaintenance 120
scalar OsgEarthNet.uav[22] utilizationCountChargeState 60
scalar OsgEarthNet.uav[22] utilizationCountOverdrawnAfterMission 0
scalar OsgEarthNet.uav[22] utilizationCountIdleState 17
scalar OsgEarthNet.uav[22] utilizationFail 0
scalar OsgEarthNet.uav[22] simulationTime 259200
scalar OsgEarthNet.uav[23] utilizationSecMission 21685.623567285
scalar OsgEarthNet.uav[23] utilizationSecMaintenance 11596.39564012
scalar OsgEarthNet.uav[23] utilizationSecCharge 122945.97979259
scalar OsgEarthNet.uav[23] utilizationSecIdle 102972
scalar OsgEarthNet.uav[23] utilizationEnergyMission 104231.94775772
scalar OsgEarthNet.uav[23] utilizationEnergyMaintenance 55175.735019684
scalar OsgEarthNet.uav[23] utilizationEnergyCharge 158723.52441406
scalar OsgEarthNet.uav[23] utilizationEnergyOverdrawMission 0
scalar OsgEarthNet.uav[23] utilizationEnergyOverdrawMaintenance 0
scalar OsgEarthNet.uav[23] utilizationCountMissions 35
scalar OsgEarthNet.uav[23] utilizationCountManeuversMission 598
scalar OsgEarthNet.uav[23] utilizationCountManeuversMaintenance 69
scalar OsgEarthNet.uav[23] utilizationCountChargeState 35
scalar OsgEarthNet.uav[23] utilizationCountOverdrawnAfterMission 0
scalar OsgEarthNet.uav[23] utilizationCountIdleState 35
scalar OsgEarthNet.uav[23] utilizationFail 0
scalar OsgEarthNet.uav[23] simulationTime 259200
scalar OsgEarthNet.uav[24] utilizationSecMission 21499.149008998
scalar OsgEarthNet.uav[24] utilizationSecMaintenance 14658.550687378
scalar OsgEarthNet.uav[24] utilizationSecCharge 137475.8730424
scalar OsgEarthNet.uav[24] utilizationSecIdle 85566.426261223
scalar OsgEarthNet.uav[24] utilizationEnergyMission 103586.33055496
scalar OsgEarthNet.uav[24] utilizationEnergyMaintenance 69734.359054565
scalar OsgEarthNet.uav[24] utilizationEnergyCharge 170103.92651367
scalar OsgEarthNet.uav[24] utilizationEnergyOverdrawMission 0
scalar OsgEarthNet.uav[24] utilizationEnergyOverdrawMaintenance 0
scalar OsgEarthNet.uav[24] utilizationCountMissions 44
scalar OsgEarthNet.uav[24] utilizationCountManeuversMission 695
scalar OsgEarthNet.uav[24] utilizationCountManeuversMaintenance 88
scalar OsgEarthNet.uav[24] utilizationCountChargeState 44
scalar OsgEarthNet.uav[24] utilizationCountOverdrawnAfterMission 0
scalar OsgEarthNet.uav[24] utilizationCountIdleState 44
scalar OsgEarthNet.uav[24] utilizationFail 0
scalar OsgEarthNet.uav[24] simulationTime 259200
scalar OsgEarthNet.uav[25] utilizationSecMission 42251.288164379
scalar OsgEarthNet.uav[25] utilizationSecMaintenance 16426.706835621
scalar OsgEarthNet.uav[25] utilizationSecCharge 196740
scalar OsgEarthNet.uav[25] utilizationSecIdle 3782.004
scalar OsgEarthNet.uav[25] utilizationEnergyMission 203889.66347504
scalar OsgEarthNet.uav[25] utilizationEnergyMaintenance 75203.322864944
scalar OsgEarthNet.uav[25] utilizationEnergyCharge 276189.68261719
scalar OsgEarthNet.uav[25] utilizationEnergyOverdrawMission 0
scalar OsgEarthNet.uav[25] utilizationEnergyOverdrawMaintenance 0
scalar OsgEarthNet.uav[25] utilizationCountMissions 60
scalar OsgEarthNet.uav[25] utilizationCountManeuversMission 1160
scalar OsgEarthNet.uav[25] utilizationCountManeuversMaintenance 121
scalar OsgEarthNet.uav[25] utilizationCountChargeState 60
scalar OsgEarthNet.uav[25] utilizationCountOverdrawnAfterMission 0
scalar OsgEarthNet.uav[25] utilizationCountIdleState 11
scalar OsgEarthNet.uav[25] utilizationFail 0
scalar OsgEarthNet.uav[25] simulationTime 259200
scalar OsgEarthNet.uav[26] utilizationSecMission 17443.750915482
scalar OsgEarthNet.uav[26] utilizationSecMaintenance 13949.006151934
scalar OsgEarthNet.uav[26] utilizationSecCharge 117040.04225361
scalar OsgEarthNet.uav[26] utilizationSecIdle 110767.19967898
scalar OsgEarthNet.uav[26] utilizationEnergyMission 87132.298282623
scalar OsgEarthNet.uav[26] utilizationEnergyMaintenance 66724.684654236
scalar OsgEarthNet.uav[26] utilizationEnergyCharge 151376.33898926
scalar OsgEarthNet.uav[26] utilizationEnergyOverdrawMission 0
scalar OsgEarthNet.uav[26] utilizationEnergyOverdrawMaintenance 0
scalar OsgEarthNet.uav[26] utilizationCountMissions 34
scalar OsgEarthNet.uav[26] utilizationCountManeuversMission 716
scalar OsgEarthNet.uav[26] utilizationCountManeuversMaintenance 68
scalar OsgEarthNet.uav[26] utilizationCountChargeState 34
scalar OsgEarthNet.uav[26] utilizationCountOverdrawnAfterMission 0
scalar OsgEarthNet.uav[26] utilizationCountIdleState 34
scalar OsgEarthNet.uav[26] utilizationFail 0
scalar OsgEarthNet.uav[26] simulationTime 259200
scalar OsgEarthNet.uav[27] utilizationSecMission 22592.344475756
scalar OsgEarthNet.uav[27] utilizationSecMaintenance 15289.525972759
scalar OsgEarthNet.uav[27] utilizationSecCharge 147380
scalar OsgEarthNet.uav[27] utilizationSecIdle 73938.128551484
scalar OsgEarthNet.uav[27] utilizationEnergyMission 111807.37298965
scalar OsgEarthNet.uav[27] utilizationEnergyMaintenance 72893.361701965
scalar OsgEarthNet.uav[27] utilizationEnergyCharge 184324.48852539
scalar OsgEarthNet.uav[27] utilizationEnergyOverdrawMission 0
scalar OsgEarthNet.uav[27] utilizationEnergyOverdrawMaintenance 0
scalar OsgEarthNet.uav[27] utilizationCountMissions 45
scalar OsgEarthNet.uav[27] utilizationCountManeuversMission 765
scalar OsgEarthNet.uav[27] utilizationCountManeuversMaintenance 90
scalar OsgEarthNet.uav[27] utilizationCountChargeState 45
scalar OsgEarthNet.uav[27] utilizationCountOverdrawnAfterMission 0
scalar OsgEarthNet.uav[27] utilizationCountIdleState 46
scalar OsgEarthNet.uav[27] utilizationFail 0
scalar OsgEarthNet.uav[27] simulationTime 259200
scalar OsgEarthNet.uav[28] utilizationSecMission 41798.403528284
scalar OsgEarthNet.uav[28] utilizationSecMaintenance 17295.233058089
scalar OsgEarthNet.uav[28] utilizationSecCharge 198554.36141363
scalar OsgEarthNet.uav[28] utilizationSecIdle 1552.001
scalar OsgEarthNet.uav[28] utilizationEnergyMission 201384.78952408
scalar OsgEarthNet.uav[28] utilizationEnergyMaintenance 79024.749931335
scalar OsgEarthNet.uav[28] utilizationEnergyCharge 280500.89550781
scalar OsgEarthNet.uav[28] utilizationEnergyOverdrawMission 0
scalar OsgEarthNet.uav[28] utilizationEnergyOverdrawMaintenance 0
scalar OsgEarthNet.uav[28] utilizationCountMissions 61
scalar OsgEarthNet.uav[28] utilizationCountManeuversMission 1309
scalar OsgEarthNet.uav[28] utilizationCountManeuversMaintenance 122
scalar OsgEarthNet.uav[28] utilizationCountChargeState 61
scalar OsgEarthNet.uav[28] utilizationCountOverdrawnAfterMission 0
scalar OsgEarthNet.uav[28] utilizationCountIdleState 9
scalar OsgEarthNet.uav[28] utilizationFail 0
scalar OsgEarthNet.uav[28] simulationTime 259200
scalar OsgEarthNet.uav[29] utilizationSecMission 20128.017908464
scalar OsgEarthNet.uav[29] utilizationSecMaintenance 12892.168163165
scalar OsgEarthNet.uav[29] utilizationSecCharge 122480
scalar OsgEarthNet.uav[29] utilizationSecIdle 103699.81292837
scalar OsgEarthNet.uav[29] utilizationEnergyMission 97964.496257782
scalar OsgEarthNet.uav[29] utilizationEnergyMaintenance 61442.44940567
scalar OsgEarthNet.uav[29] utilizationEnergyCharge 158172.55615234
scalar OsgEarthNet.uav[29] utilizationEnergyOverdrawMission 0
scalar OsgEarthNet.uav[29] utilizationEnergyOverdrawMaintenance 0
scalar OsgEarthNet.uav[29] utilizationCountMissions 35
scalar OsgEarthNet.uav[29] utilizationCountManeuversMission 685
scalar OsgEarthNet.uav[29] utilizationCountManeuversMaintenance 70
scalar OsgEarthNet.uav[29] utilizationCountChargeState 35
scalar OsgEarthNet.uav[29] utilizationCountOverdrawnAfterMission 0
scalar OsgEarthNet.uav[29] utilizationCountIdleState 36
scalar OsgEarthNet.uav[29] utilizationFail 0
scalar OsgEarthNet.uav[29] simulationTime 259200
scalar OsgEarthNet.uav[30] utilizationSecMission 18349.268213625
scalar OsgEarthNet.uav[30] utilizationSecMaintenance 10321.23307722
scalar OsgEarthNet.uav[30] utilizationSecCharge 105550
scalar OsgEarthNet.uav[30] utilizationSecIdle 124979.49770915
scalar OsgEarthNet.uav[30] utilizationEnergyMission 88194.685623169
scalar OsgEarthNet.uav[30] utilizationEnergyMaintenance 49074.260780334
scalar OsgEarthNet.uav[30] utilizationEnergyCharge 136356.5546875
scalar OsgEarthNet.uav[30] utilizationEnergyOverdrawMission 0
scalar OsgEarthNet.uav[30] utilizationEnergyOverdrawMaintenance 0
scalar OsgEarthNet.uav[30] utilizationCountMissions 30
scalar OsgEarthNet.uav[30] utilizationCountManeuversMission 544
scalar OsgEarthNet.uav[30] utilizationCountManeuversMaintenance 60
scalar OsgEarthNet.uav[30] utilizationCountChargeState 30
scalar OsgEarthNet.uav[30] utilizationCountOverdrawnAfterMission 0
scalar OsgEarthNet.uav[30] utilizationCountIdleState 31
scalar OsgEarthNet.uav[30] utilizationFail 0
scalar OsgEarthNet.uav[30] simulationTime 259200
scalar OsgEarthNet.uav[31] utilizationSecMission 21599.85107937
scalar OsgEarthNet.uav[31] utilizationSecMaintenance 14984.972855918
scalar OsgEarthNet.uav[31] utilizationSecCharge 141213.16906471
scalar OsgEarthNet.uav[31] utilizationSecIdle 81402.006
scalar OsgEarthNet.uav[31] utilizationEnergyMission 107150.03353119
scalar OsgEarthNet.uav[31] utilizationEnergyMaintenance 71557.807662964
scalar OsgEarthNet.uav[31] utilizationEnergyCharge 176996.58349609
scalar OsgEarthNet.uav[31] utilizationEnergyOverdrawMission 0
scalar OsgEarthNet.uav[31] utilizationEnergyOverdrawMaintenance 0
scalar OsgEarthNet.uav[31] utilizationCountMissions 44
scalar OsgEarthNet.uav[31] utilizationCountManeuversMission 752
scalar OsgEarthNet.uav[31] utilizationCountManeuversMaintenance 88
scalar OsgEarthNet.uav[31] utilizationCountChargeState 44
scalar OsgEarthNet.uav[31] utilizationCountOverdrawnAfterMission 0
scalar OsgEarthNet.uav[31] utilizationCountIdleState 44
scalar OsgEarthNet.uav[31] utilizationFail 0
scalar OsgEarthNet.uav[31] simulationTime 259200
scalar OsgEarthNet.uav[32] utilizationSecMission 41205.974876561
scalar OsgEarthNet.uav[32] utilizationSecMaintenance 18327.974196607
scalar OsgEarthNet.uav[32] utilizationSecCharge 197976.83031292
scalar OsgEarthNet.uav[32] utilizationSecIdle 1689.2196139157
scalar OsgEarthNet.uav[32] utilizationEnergyMission 197025.49584579
scalar OsgEarthNet.uav[32] utilizationEnergyMaintenance 84070.772163391
scalar OsgEarthNet.uav[32] utilizationEnergyCharge 279550.09814453
scalar OsgEarthNet.uav[32] utilizationEnergyOverdrawMission 0
scalar OsgEarthNet.uav[32] utilizationEnergyOverdrawMaintenance 0
scalar OsgEarthNet.uav[32] utilizationCountMissions 61
scalar OsgEarthNet.uav[32] utilizationCountManeuversMission 1232
scalar OsgEarthNet.uav[32] utilizationCountManeuversMaintenance 122
scalar OsgEarthNet.uav[32] utilizationCountChargeState 61
scalar OsgEarthNet.uav[32] utilizationCountOverdrawnAfterMission 0
scalar OsgEarthNet.uav[32] utilizationCountIdleState 8
scalar OsgEarthNet.uav[32] utilizationFail 0
scalar OsgEarthNet.uav[32] simulationTime 259200
scalar OsgEarthNet.uav[33] utilizationSecMission 18009.377288704
scalar OsgEarthNet.uav[33] utilizationSecMaintenance 9860.4744771111
scalar OsgEarthNet.uav[33] utilizationSecCharge 101980
scalar OsgEarthNet.uav[33] utilizationSecIdle 129350.14723418
scalar OsgEarthNet.uav[33] utilizationEnergyMission 84295.174114227
scalar OsgEarthNet.uav[33] utilizationEnergyMaintenance 47292.172054291
scalar OsgEarthNet.uav[33] utilizationEnergyCharge 131699.74755859
scalar OsgEarthNet.uav[33] utilizationEnergyOverdrawMission 0
scalar OsgEarthNet.uav[33] utilizationEnergyOverdrawMaintenance 0
scalar OsgEarthNet.uav[33] utilizationCountMissions 29
scalar OsgEarthNet.uav[33] utilizationCountManeuversMission 510
scalar OsgEarthNet.uav[33] utilizationCountManeuversMaintenance 58
scalar OsgEarthNet.uav[33] utilizationCountChargeState 29
scalar OsgEarthNet.uav[33] utilizationCountOverdrawnAfterMission 0
scalar OsgEarthNet.uav[33] utilizationCountIdleState 30
scalar OsgEarthNet.uav[33] utilizationFail 0
scalar OsgEarthNet.uav[33] simulationTime 259200
scalar OsgEarthNet.uav[34] utilizationSecMission 40774.37155229
scalar OsgEarthNet.uav[34] utilizationSecMaintenance 18373.942982315
scalar OsgEarthNet.uav[34] utilizationSecCharge 196706.2413767
scalar OsgEarthNet.uav[34] utilizationSecIdle 3345.4430886909
scalar OsgEarthNet.uav[34] utilizationEnergyMission 195930.63599396
scalar OsgEarthNet.uav[34] utilizationEnergyMaintenance 84505.060359955
scalar OsgEarthNet.uav[34] utilizationEnergyCharge 276122.65036011
scalar OsgEarthNet.uav[34] utilizationEnergyOverdrawMission 0
scalar OsgEarthNet.uav[34] utilizationEnergyOverdrawMaintenance 0
scalar OsgEarthNet.uav[34] utilizationCountMissions 61
scalar OsgEarthNet.uav[34] utilizationCountManeuversMission 1169
scalar OsgEarthNet.uav[34] utilizationCountManeuversMaintenance 122
scalar OsgEarthNet.uav[34] utilizationCountChargeState 61
scalar OsgEarthNet.uav[34] utilizationCountOverdrawnAfterMission 0
scalar OsgEarthNet.uav[34] utilizationCountIdleState 8
scalar OsgEarthNet.uav[34] utilizationFail 0
scalar OsgEarthNet.uav[34] simulationTime 259200
scalar OsgEarthNet.uav[35] utilizationSecMission 41087.823490871
scalar OsgEarthNet.uav[35] utilizationSecMaintenance 17682.731654731
scalar OsgEarthNet.uav[35] utilizationSecCharge 198907.4438544
scalar OsgEarthNet.uav[35] utilizationSecIdle 1522
scalar OsgEarthNet.uav[35] utilizationEnergyMission 199249.09652735
scalar OsgEarthNet.uav[35] utilizationEnergyMaintenance 80412.176582336
scalar OsgEarthNet.uav[35] utilizationEnergyCharge 279163.94433594
scalar OsgEarthNet.uav[35] utilizationEnergyOverdrawMission 0
scalar OsgEarthNet.uav[35] utilizationEnergyOverdrawMaintenance 0
scalar OsgEarthNet.uav[35] utilizationCountMissions 61
scalar OsgEarthNet.uav[35] utilizationCountManeuversMission 1254
scalar OsgEarthNet.uav[35] utilizationCountManeuversMaintenance 121
scalar OsgEarthNet.uav[35] utilizationCountChargeState 61
scalar OsgEarthNet.uav[35] utilizationCountOverdrawnAfterMission 0
scalar OsgEarthNet.uav[35] utilizationCountIdleState 13
scalar OsgEarthNet.uav[35] utilizationFail 0
scalar OsgEarthNet.uav[35] simulationTime 259200
scalar OsgEarthNet.uav[36] utilizationSecMission 19497.759869714
scalar OsgEarthNet.uav[36] utilizationSecMaintenance 12662.543017803
scalar OsgEarthNet.uav[36] utilizationSecCharge 120300
scalar OsgEarthNet.uav[36] utilizationSecIdle 106739.69611248
scalar OsgEarthNet.uav[36] utilizationEnergyMission 94955.303966522
scalar OsgEarthNet.uav[36] utilizationEnergyMaintenance 59797.872501373
scalar OsgEarthNet.uav[36] utilizationEnergyCharge 155220.17822266
scalar OsgEarthNet.uav[36] utilizationEnergyOverdrawMission 0
scalar OsgEarthNet.uav[36] utilizationEnergyOverdrawMaintenance 0
scalar OsgEarthNet.uav[36] utilizationCountMissions 34
scalar OsgEarthNet.uav[36] utilizationCountManeuversMission 658
scalar OsgEarthNet.uav[36] utilizationCountManeuversMaintenance 68
scalar OsgEarthNet.uav[36] utilizationCountChargeState 34
scalar OsgEarthNet.uav[36] utilizationCountOverdrawnAfterMission 0
scalar OsgEarthNet.uav[36] utilizationCountIdleState 35
scalar OsgEarthNet.uav[36] utilizationFail 0
scalar OsgEarthNet.uav[36] simulationTime 259200
scalar OsgEarthNet.uav[37] utilizationSecMission 22891.147134875
scalar OsgEarthNet.uav[37] utilizationSecMaintenance 15089.378309637
scalar OsgEarthNet.uav[37] utilizationSecCharge 145032.50925031
scalar OsgEarthNet.uav[37] utilizationSecIdle 76186.964305182
scalar OsgEarthNet.uav[37] utilizationEnergyMission 110277.44726181
scalar OsgEarthNet.uav[37] utilizationEnergyMaintenance 71825.726501465
scalar OsgEarthNet.uav[37] utilizationEnergyCharge 178410.34082031
scalar OsgEarthNet.uav[37] utilizationEnergyOverdrawMission 0
scalar OsgEarthNet.uav[37] utilizationEnergyOverdrawMaintenance 0
scalar OsgEarthNet.uav[37] utilizationCountMissions 47
scalar OsgEarthNet.uav[37] utilizationCountManeuversMission 653
scalar OsgEarthNet.uav[37] utilizationCountManeuversMaintenance 94
scalar OsgEarthNet.uav[37] utilizationCountChargeState 47
scalar OsgEarthNet.uav[37] utilizationCountOverdrawnAfterMission 0
scalar OsgEarthNet.uav[37] utilizationCountIdleState 47
scalar OsgEarthNet.uav[37] utilizationFail 0
scalar OsgEarthNet.uav[37] simulationTime 259200
scalar OsgEarthNet.uav[38] utilizationSecMission 28037.120363087
scalar OsgEarthNet.uav[38] utilizationSecMaintenance 16559.051932736
scalar OsgEarthNet.uav[38] utilizationSecCharge 166783.11864681
scalar OsgEarthNet.uav[38] utilizationSecIdle 47820.708057366
scalar OsgEarthNet.uav[38] utilizationEnergyMission 133599.4107399
scalar OsgEarthNet.uav[38] utilizationEnergyMaintenance 78093.246353149
scalar OsgEarthNet.uav[38] utilizationEnergyCharge 211827.0534668
scalar OsgEarthNet.uav[38] utilizationEnergyOverdrawMission 0
scalar OsgEarthNet.uav[38] utilizationEnergyOverdrawMaintenance 0
scalar OsgEarthNet.uav[38] utilizationCountMissions 52
scalar OsgEarthNet.uav[38] utilizationCountManeuversMission 749
scalar OsgEarthNet.uav[38] utilizationCountManeuversMaintenance 104
scalar OsgEarthNet.uav[38] utilizationCountChargeState 52
scalar OsgEarthNet.uav[38] utilizationCountOverdrawnAfterMission 0
scalar OsgEarthNet.uav[38] utilizationCountIdleState 44
scalar OsgEarthNet.uav[38] utilizationFail 0
scalar OsgEarthNet.uav[38] simulationTime 259200
scalar OsgEarthNet.uav[39] utilizationSecMission 18488.643061045
scalar OsgEarthNet.uav[39] utilizationSecMaintenance 11372.379608659
scalar OsgEarthNet.uav[39] utilizationSecCharge 108481.76565132
scalar OsgEarthNet.uav[39] utilizationSecIdle 120857.21067898
scalar OsgEarthNet.uav[39] utilizationEnergyMission 88908.690608978
scalar OsgEarthNet.uav[39] utilizationEnergyMaintenance 53844.180866241
scalar OsgEarthNet.uav[39] utilizationEnergyCharge 141574.06811523
scalar OsgEarthNet.uav[39] utilizationEnergyOverdrawMission 0
scalar OsgEarthNet.uav[39] utilizationEnergyOverdrawMaintenance 0
scalar OsgEarthNet.uav[39] utilizationCountMissions 31
scalar OsgEarthNet.uav[39] utilizationCountManeuversMission 577
scalar OsgEarthNet.uav[39] utilizationCountManeuversMaintenance 62
scalar OsgEarthNet.uav[39] utilizationCountChargeState 31
scalar OsgEarthNet.uav[39] utilizationCountOverdrawnAfterMission 0
scalar OsgEarthNet.uav[39] utilizationCountIdleState 31
scalar OsgEarthNet.uav[39] utilizationFail 0
scalar OsgEarthNet.uav[39] simulationTime 259200
scalar OsgEarthNet.uav[40] utilizationSecMission 17495.259259393
scalar OsgEarthNet.uav[40] utilizationSecMaintenance 12687.294308988
scalar OsgEarthNet.uav[40] utilizationSecCharge 113570
scalar OsgEarthNet.uav[40] utilizationSecIdle 115447.44543162
scalar OsgEarthNet.uav[40] utilizationEnergyMission 87626.540782928
scalar OsgEarthNet.uav[40] utilizationEnergyMaintenance 60332.368499756
scalar OsgEarthNet.uav[40] utilizationEnergyCharge 147176.65332031
scalar OsgEarthNet.uav[40] utilizationEnergyOverdrawMission 0
scalar OsgEarthNet.uav[40] utilizationEnergyOverdrawMaintenance 0
scalar OsgEarthNet.uav[40] utilizationCountMissions 32
scalar OsgEarthNet.uav[40] utilizationCountManeuversMission 662
scalar OsgEarthNet.uav[40] utilizationCountManeuversMaintenance 64
scalar OsgEarthNet.uav[40] utilizationCountChargeState 32
scalar OsgEarthNet.uav[40] utilizationCountOverdrawnAfterMission 0
scalar OsgEarthNet.uav[40] utilizationCountIdleState 33
scalar OsgEarthNet.uav[40] utilizationFail 0
scalar OsgEarthNet.uav[40] simulationTime 259200
scalar OsgEarthNet.uav[41] utilizationSecMission 24501.601569993
scalar OsgEarthNet.uav[41] utilizationSecMaintenance 16664.815735915
scalar OsgEarthNet.uav[41] utilizationSecCharge 159701.58018737
scalar OsgEarthNet.uav[41] utilizationSecIdle 58332.001506722
scalar OsgEarthNet.uav[41] utilizationEnergyMission 119394.77390671
scalar OsgEarthNet.uav[41] utilizationEnergyMaintenance 78772.370864868
scalar OsgEarthNet.uav[41] utilizationEnergyCharge 197128.46679688
scalar OsgEarthNet.uav[41] utilizationEnergyOverdrawMission 0
scalar OsgEarthNet.uav[41] utilizationEnergyOverdrawMaintenance 0
scalar OsgEarthNet.uav[41] utilizationCountMissions 51
scalar OsgEarthNet.uav[41] utilizationCountManeuversMission 748
scalar OsgEarthNet.uav[41] utilizationCountManeuversMaintenance 102
scalar OsgEarthNet.uav[41] utilizationCountChargeState 51
scalar OsgEarthNet.uav[41] utilizationCountOverdrawnAfterMission 0
scalar OsgEarthNet.uav[41] utilizationCountIdleState 51
scalar OsgEarthNet.uav[41] utilizationFail 0
scalar OsgEarthNet.uav[41] simulationTime 259200
scalar OsgEarthNet.uav[42] utilizationSecMission 41707.116475927
scalar OsgEarthNet.uav[42] utilizationSecMaintenance 17157.158445113
scalar OsgEarthNet.uav[42] utilizationSecCharge 196567.15049667
scalar OsgEarthNet.uav[42] utilizationSecIdle 3768.5735822918
scalar OsgEarthNet.uav[42] utilizationEnergyMission 200961.18288803
scalar OsgEarthNet.uav[42] utilizationEnergyMaintenance 79122.835643768
scalar OsgEarthNet.uav[42] utilizationEnergyCharge 276501.00878906
scalar OsgEarthNet.uav[42] utilizationEnergyOverdrawMission 0
scalar OsgEarthNet.uav[42] utilizationEnergyOverdrawMaintenance 0
scalar OsgEarthNet.uav[42] utilizationCountMissions 60
scalar OsgEarthNet.uav[42] utilizationCountManeuversMission 1087
scalar OsgEarthNet.uav[42] utilizationCountManeuversMaintenance 120
scalar OsgEarthNet.uav[42] utilizationCountChargeState 60
scalar OsgEarthNet.uav[42] utilizationCountOverdrawnAfterMission 0
scalar OsgEarthNet.uav[42] utilizationCountIdleState 14
scalar OsgEarthNet.uav[42] utilizationFail 0
scalar OsgEarthNet.uav[42] simulationTime 259200
scalar OsgEarthNet.uav[43] utilizationSecMission 16235.884411973
scalar OsgEarthNet.uav[43] utilizationSecMaintenance 11100.773673934
scalar OsgEarthNet.uav[43] utilizationSecCharge 102330
scalar OsgEarthNet.uav[43] utilizationSecIdle 129533.34091409
scalar OsgEarthNet.uav[43] utilizationEnergyMission 79582.278453827
scalar OsgEarthNet.uav[43] utilizationEnergyMaintenance 52578.37134552
scalar OsgEarthNet.uav[43] utilizationEnergyCharge 132370.48291016
scalar OsgEarthNet.uav[43] utilizationEnergyOverdrawMission 0
scalar OsgEarthNet.uav[43] utilizationEnergyOverdrawMaintenance 0
scalar OsgEarthNet.uav[43] utilizationCountMissions 29
scalar OsgEarthNet.uav[43] utilizationCountManeuversMission 573
scalar OsgEarthNet.uav[43] utilizationCountManeuversMaintenance 58
scalar OsgEarthNet.uav[43] utilizationCountChargeState 29
scalar OsgEarthNet.uav[43] utilizationCountOverdrawnAfterMission 0
scalar OsgEarthNet.uav[43] utilizationCountIdleState 30
scalar OsgEarthNet.uav[43] utilizationFail 0
scalar OsgEarthNet.uav[43] simulationTime 259200
scalar OsgEarthNet.uav[44] utilizationSecMission 22566.862412474
scalar OsgEarthNet.uav[44] utilizationSecMaintenance 16397.963120354
scalar OsgEarthNet.uav[44] utilizationSecCharge 151303.16846717
scalar OsgEarthNet.uav[44] utilizationSecIdle 68932.005
scalar OsgEarthNet.uav[44] utilizationEnergyMission 110478.38558578
scalar OsgEarthNet.uav[44] utilizationEnergyMaintenance 77717.725383759
scalar OsgEarthNet.uav[44] utilizationEnergyCharge 186086.62915039
scalar OsgEarthNet.uav[44] utilizationEnergyOverdrawMission 0
scalar OsgEarthNet.uav[44] utilizationEnergyOverdrawMaintenance 0
scalar OsgEarthNet.uav[44] utilizationCountMissions 49
scalar OsgEarthNet.uav[44] utilizationCountManeuversMission 762
scalar OsgEarthNet.uav[44] utilizationCountManeuversMaintenance 98
scalar OsgEarthNet.uav[44] utilizationCountChargeState 49
scalar OsgEarthNet.uav[44] utilizationCountOverdrawnAfterMission 0
scalar OsgEarthNet.uav[44] utilizationCountIdleState 49
scalar OsgEarthNet.uav[44] utilizationFail 0
scalar OsgEarthNet.uav[44] simulationTime 259200
scalar OsgEarthNet.uav[45] utilizationSecMission 40054.494688909
scalar OsgEarthNet.uav[45] utilizationSecMaintenance 19168.392549068
scalar OsgEarthNet.uav[45] utilizationSecCharge 198395.11076202
scalar OsgEarthNet.uav[45] utilizationSecIdle 1582.001
scalar OsgEarthNet.uav[45] utilizationEnergyMission 198056.41779327
scalar OsgEarthNet.uav[45] utilizationEnergyMaintenance 88959.935916901
scalar OsgEarthNet.uav[45] utilizationEnergyCharge 283943.86572266
scalar OsgEarthNet.uav[45] utilizationEnergyOverdrawMission 0
scalar OsgEarthNet.uav[45] utilizationEnergyOverdrawMaintenance 0
scalar OsgEarthNet.uav[45] utilizationCountMissions 62
scalar OsgEarthNet.uav[45] utilizationCountManeuversMission 1418
scalar OsgEarthNet.uav[45] utilizationCountManeuversMaintenance 124
scalar OsgEarthNet.uav[45] utilizationCountChargeState 62
scalar OsgEarthNet.uav[45] utilizationCountOverdrawnAfterMission 0
scalar OsgEarthNet.uav[45] utilizationCountIdleState 9
scalar OsgEarthNet.uav[45] utilizationFail 0
scalar OsgEarthNet.uav[45] simulationTime 259200
scalar OsgEarthNet.uav[46] utilizationSecMission 21730.627593865
scalar OsgEarthNet.uav[46] utilizationSecMaintenance 12571.372853601
scalar OsgEarthNet.uav[46] utilizationSecCharge 127380
scalar OsgEarthNet.uav[46] utilizationSecIdle 97517.998552534
scalar OsgEarthNet.uav[46] utilizationEnergyMission 105052.19671631
scalar OsgEarthNet.uav[46] utilizationEnergyMaintenance 59207.672897339
scalar OsgEarthNet.uav[46] utilizationEnergyCharge 164515.05224609
scalar OsgEarthNet.uav[46] utilizationEnergyOverdrawMission 0
scalar OsgEarthNet.uav[46] utilizationEnergyOverdrawMaintenance 0
scalar OsgEarthNet.uav[46] utilizationCountMissions 36
scalar OsgEarthNet.uav[46] utilizationCountManeuversMission 644
scalar OsgEarthNet.uav[46] utilizationCountManeuversMaintenance 72
scalar OsgEarthNet.uav[46] utilizationCountChargeState 36
scalar OsgEarthNet.uav[46] utilizationCountOverdrawnAfterMission 0
scalar OsgEarthNet.uav[46] utilizationCountIdleState 37
scalar OsgEarthNet.uav[46] utilizationFail 0
scalar OsgEarthNet.uav[46] simulationTime 259200
scalar OsgEarthNet.uav[47] utilizationSecMission 21952.964875344
scalar OsgEarthNet.uav[47] utilizationSecMaintenance 15483.15153696
scalar OsgEarthNet.uav[47] utilizationSecCharge 147230
scalar OsgEarthNet.uav[47] utilizationSecIdle 74533.882587696
scalar OsgEarthNet.uav[47] utilizationEnergyMission 105887.61906433
scalar OsgEarthNet.uav[47] utilizationEnergyMaintenance 73912.218791962
scalar OsgEarthNet.uav[47] utilizationEnergyCharge 179157.18359375
scalar OsgEarthNet.uav[47] utilizationEnergyOverdrawMission 0
scalar OsgEarthNet.uav[47] utilizationEnergyOverdrawMaintenance 0
scalar OsgEarthNet.uav[47] utilizationCountMissions 48
scalar OsgEarthNet.uav[47] utilizationCountManeuversMission 664
scalar OsgEarthNet.uav[47] utilizationCountManeuversMaintenance 96
scalar OsgEarthNet.uav[47] utilizationCountChargeState 48
scalar OsgEarthNet.uav[47] utilizationCountOverdrawnAfterMission 0
scalar OsgEarthNet.uav[47] utilizationCountIdleState 49
scalar OsgEarthNet.uav[47] utilizationFail 0
scalar OsgEarthNet.uav[47] simulationTime 259200
scalar OsgEarthNet.uav[48] utilizationSecMission 22036.310432756
scalar OsgEarthNet.uav[48] utilizationSecMaintenance 11719.041171081
scalar OsgEarthNet.uav[48] utilizationSecCharge 123370
scalar OsgEarthNet.uav[48] utilizationSecIdle 102074.64739616
scalar OsgEarthNet.uav[48] utilizationEnergyMission 104734.33972931
scalar OsgEarthNet.uav[48] utilizationEnergyMaintenance 55089.567855835
scalar OsgEarthNet.uav[48] utilizationEnergyCharge 159122.73339844
scalar OsgEarthNet.uav[48] utilizationEnergyOverdrawMission 0
scalar OsgEarthNet.uav[48] utilizationEnergyOverdrawMaintenance 0
scalar OsgEarthNet.uav[48] utilizationCountMissions 35
scalar OsgEarthNet.uav[48] utilizationCountManeuversMission 587
scalar OsgEarthNet.uav[48] utilizationCountManeuversMaintenance 70
scalar OsgEarthNet.uav[48] utilizationCountChargeState 35
scalar OsgEarthNet.uav[48] utilizationCountOverdrawnAfterMission 0
scalar OsgEarthNet.uav[48] utilizationCountIdleState 36
scalar OsgEarthNet.uav[48] utilizationFail 0
scalar OsgEarthNet.uav[48] simulationTime 259200
scalar OsgEarthNet.uav[49] utilizationSecMission 42569.489190253
scalar OsgEarthNet.uav[49] utilizationSecMaintenance 16881.617780862
scalar OsgEarthNet.uav[49] utilizationSecCharge 198486.89202888
scalar OsgEarthNet.uav[49] utilizationSecIdle 1262
scalar OsgEarthNet.uav[49] utilizationEnergyMission 207066.52807236
scalar OsgEarthNet.uav[49] utilizationEnergyMaintenance 76753.207374573
scalar OsgEarthNet.uav[49] utilizationEnergyCharge 279429.90356445
scalar OsgEarthNet.uav[49] utilizationEnergyOverdrawMission 0
scalar OsgEarthNet.uav[49] utilizationEnergyOverdrawMaintenance 0
scalar OsgEarthNet.uav[49] utilizationCountMissions 62
scalar OsgEarthNet.uav[49] utilizationCountManeuversMission 1308
scalar OsgEarthNet.uav[49] utilizationCountManeuversMaintenance 123
scalar OsgEarthNet.uav[49] utilizationCountChargeState 62
scalar OsgEarthNet.uav[49] utilizationCountOverdrawnAfterMission 0
scalar OsgEarthNet.uav[49] utilizationCountIdleState 12
scalar OsgEarthNet.uav[49] utilizationFail 0
scalar OsgEarthNet.uav[49] simulationTime 259200
scalar OsgEarthNet.uav[50] utilizationSecMission 39431.294215637
scalar OsgEarthNet.uav[50] utilizationSecMaintenance 18377.755528699
scalar OsgEarthNet.uav[50] utilizationSecCharge 196510
scalar OsgEarthNet.uav[50] utilizationSecIdle 4880.9492556647
scalar OsgEarthNet.uav[50] utilizationEnergyMission 191971.49903503
scalar OsgEarthNet.uav[50] utilizationEnergyMaintenance 85484.259536743
scalar OsgEarthNet.uav[50] utilizationEnergyCharge 275963.65869141
scalar OsgEarthNet.uav[50] utilizationEnergyOverdrawMission 0
scalar OsgEarthNet.uav[50] utilizationEnergyOverdrawMaintenance 0
scalar OsgEarthNet.uav[50] utilizationCountMissions 60
scalar OsgEarthNet.uav[50] utilizationCountManeuversMission 1225
scalar OsgEarthNet.uav[50] utilizationCountManeuversMaintenance 121
scalar OsgEarthNet.uav[50] utilizationCountChargeState 60
scalar OsgEarthNet.uav[50] utilizationCountOverdrawnAfterMission 0
scalar OsgEarthNet.uav[50] utilizationCountIdleState 10
scalar OsgEarthNet.uav[50] utilizationFail 0
scalar OsgEarthNet.uav[50] simulationTime 259200
scalar OsgEarthNet.uav[51] utilizationSecMission 25758.033338901
scalar OsgEarthNet.uav[51] utilizationSecMaintenance 16479.962661099
scalar OsgEarthNet.uav[51] utilizationSecCharge 157400
scalar OsgEarthNet.uav[51] utilizationSecIdle 59562.003
scalar OsgEarthNet.uav[51] utilizationEnergyMission 126823.64847183
scalar OsgEarthNet.uav[51] utilizationEnergyMaintenance 77703.566358304
scalar OsgEarthNet.uav[51] utilizationEnergyCharge 198712.94580078
scalar OsgEarthNet.uav[51] utilizationEnergyOverdrawMission 0
scalar OsgEarthNet.uav[51] utilizationEnergyOverdrawMaintenance 0
scalar OsgEarthNet.uav[51] utilizationCountMissions 48
scalar OsgEarthNet.uav[51] utilizationCountManeuversMission 902
scalar OsgEarthNet.uav[51] utilizationCountManeuversMaintenance 96
scalar OsgEarthNet.uav[51] utilizationCountChargeState 47
scalar OsgEarthNet.uav[51] utilizationCountOverdrawnAfterMission 0
scalar OsgEarthNet.uav[51] utilizationCountIdleState 48
scalar OsgEarthNet.uav[51] utilizationFail 0
scalar OsgEarthNet.uav[51] simulationTime 259200
scalar OsgEarthNet.uav[52] utilizationSecMission 40910.8598595
scalar OsgEarthNet.uav[52] utilizationSecMaintenance 17919.30232646
scalar OsgEarthNet.uav[52] utilizationSecCharge 195910
scalar OsgEarthNet.uav[52] utilizationSecIdle 4459.83681404
scalar OsgEarthNet.uav[52] utilizationEnergyMission 195142.72150302
scalar OsgEarthNet.uav[52] utilizationEnergyMaintenance 83608.752059937
scalar OsgEarthNet.uav[52] utilizationEnergyCharge 276682.1875
scalar OsgEarthNet.uav[52] utilizationEnergyOverdrawMission 0
scalar OsgEarthNet.uav[52] utilizationEnergyOverdrawMaintenance 0
scalar OsgEarthNet.uav[52] utilizationCountMissions 60
scalar OsgEarthNet.uav[52] utilizationCountManeuversMission 1168
scalar OsgEarthNet.uav[52] utilizationCountManeuversMaintenance 121
scalar OsgEarthNet.uav[52] utilizationCountChargeState 60
scalar OsgEarthNet.uav[52] utilizationCountOverdrawnAfterMission 0
scalar OsgEarthNet.uav[52] utilizationCountIdleState 8
scalar OsgEarthNet.uav[52] utilizationFail 0
scalar OsgEarthNet.uav[52] simulationTime 259200
scalar OsgEarthNet.uav[53] utilizationSecMission 21519.010174875
scalar OsgEarthNet.uav[53] utilizationSecMaintenance 13573.734549103
scalar OsgEarthNet.uav[53] utilizationSecCharge 127166.68385869
scalar OsgEarthNet.uav[53] utilizationSecIdle 96940.570417334
scalar OsgEarthNet.uav[53] utilizationEnergyMission 106552.06345749
scalar OsgEarthNet.uav[53] utilizationEnergyMaintenance 63756.641109466
scalar OsgEarthNet.uav[53] utilizationEnergyCharge 164457.49047852
scalar OsgEarthNet.uav[53] utilizationEnergyOverdrawMission 0
scalar OsgEarthNet.uav[53] utilizationEnergyOverdrawMaintenance 0
scalar OsgEarthNet.uav[53] utilizationCountMissions 37
scalar OsgEarthNet.uav[53] utilizationCountManeuversMission 707
scalar OsgEarthNet.uav[53] utilizationCountManeuversMaintenance 74
scalar OsgEarthNet.uav[53] utilizationCountChargeState 37
scalar OsgEarthNet.uav[53] utilizationCountOverdrawnAfterMission 0
scalar OsgEarthNet.uav[53] utilizationCountIdleState 37
scalar OsgEarthNet.uav[53] utilizationFail 0
scalar OsgEarthNet.uav[53] simulationTime 259200
scalar OsgEarthNet.uav[54] utilizationSecMission 23994.674694871
scalar OsgEarthNet.uav[54] utilizationSecMaintenance 17018.876615092
scalar OsgEarthNet.uav[54] utilizationSecCharge 161020
scalar OsgEarthNet.uav[54] utilizationSecIdle 57166.447690037
scalar OsgEarthNet.uav[54] utilizationEnergyMission 116926.05254364
scalar OsgEarthNet.uav[54] utilizationEnergyMaintenance 81157.076877594
scalar OsgEarthNet.uav[54] utilizationEnergyCharge 198299.14746094
scalar OsgEarthNet.uav[54] utilizationEnergyOverdrawMission 0
scalar OsgEarthNet.uav[54] utilizationEnergyOverdrawMaintenance 0
scalar OsgEarthNet.uav[54] utilizationCountMissions 51
scalar OsgEarthNet.uav[54] utilizationCountManeuversMission 791
scalar OsgEarthNet.uav[54] utilizationCountManeuversMaintenance 102
scalar OsgEarthNet.uav[54] utilizationCountChargeState 51
scalar OsgEarthNet.uav[54] utilizationCountOverdrawnAfterMission 0
scalar OsgEarthNet.uav[54] utilizationCountIdleState 52
scalar OsgEarthNet.uav[54] utilizationFail 0
scalar OsgEarthNet.uav[54] simulationTime 259200
scalar OsgEarthNet.uav[55] utilizationSecMission 39483.450309066
scalar OsgEarthNet.uav[55] utilizationSecMaintenance 18636.917610269
scalar OsgEarthNet.uav[55] utilizationSecCharge 197930
scalar OsgEarthNet.uav[55] utilizationSecIdle 3149.6310806652
scalar OsgEarthNet.uav[55] utilizationEnergyMission 195407.62395859
scalar OsgEarthNet.uav[55] utilizationEnergyMaintenance 86592.024369526
scalar OsgEarthNet.uav[55] utilizationEnergyCharge 279706.20703125
scalar OsgEarthNet.uav[55] utilizationEnergyOverdrawMission 0
scalar OsgEarthNet.uav[55] utilizationEnergyOverdrawMaintenance 0
scalar OsgEarthNet.uav[55] utilizationCountMissions 61
scalar OsgEarthNet.uav[55] utilizationCountManeuversMission 1336
scalar OsgEarthNet.uav[55] utilizationCountManeuversMaintenance 123
scalar OsgEarthNet.uav[55] utilizationCountChargeState 61
scalar OsgEarthNet.uav[55] utilizationCountOverdrawnAfterMission 0
scalar OsgEarthNet.uav[55] utilizationCountIdleState 8
scalar OsgEarthNet.uav[55] utilizationFail 0
scalar OsgEarthNet.uav[55] simulationTime 259200
scalar OsgEarthNet.uav[56] utilizationSecMission 22896.958369168
scalar OsgEarthNet.uav[56] utilizationSecMaintenance 13601.039630832
scalar OsgEarthNet.uav[56] utilizationSecCharge 134550
scalar OsgEarthNet.uav[56] utilizationSecIdle 88152.001
scalar OsgEarthNet.uav[56] utilizationEnergyMission 111380.07202225
scalar OsgEarthNet.uav[56] utilizationEnergyMaintenance 63988.535224914
scalar OsgEarthNet.uav[56] utilizationEnergyCharge 173683.0859375
scalar OsgEarthNet.uav[56] utilizationEnergyOverdrawMission 0
scalar OsgEarthNet.uav[56] utilizationEnergyOverdrawMaintenance 0
scalar OsgEarthNet.uav[56] utilizationCountMissions 38
scalar OsgEarthNet.uav[56] utilizationCountManeuversMission 701
scalar OsgEarthNet.uav[56] utilizationCountManeuversMaintenance 77
scalar OsgEarthNet.uav[56] utilizationCountChargeState 38
scalar OsgEarthNet.uav[56] utilizationCountOverdrawnAfterMission 0
scalar OsgEarthNet.uav[56] utilizationCountIdleState 39
scalar OsgEarthNet.uav[56] utilizationFail 0
scalar OsgEarthNet.uav[56] simulationTime 259200
scalar OsgEarthNet.uav[57] utilizationSecMission 24575.499107123
scalar OsgEarthNet.uav[57] utilizationSecMaintenance 16653.442097684
scalar OsgEarthNet.uav[57] utilizationSecCharge 157940
scalar OsgEarthNet.uav[57] utilizationSecIdle 60031.057795193
scalar OsgEarthNet.uav[57] utilizationEnergyMission 121094.1413269
scalar OsgEarthNet.uav[57] utilizationEnergyMaintenance 78916.99100668
scalar OsgEarthNet.uav[57] utilizationEnergyCharge 196186.30737305
scalar OsgEarthNet.uav[57] utilizationEnergyOverdrawMission 0
scalar OsgEarthNet.uav[57] utilizationEnergyOverdrawMaintenance 0
scalar OsgEarthNet.uav[57] utilizationCountMissions 50
scalar OsgEarthNet.uav[57] utilizationCountManeuversMission 819
scalar OsgEarthNet.uav[57] utilizationCountManeuversMaintenance 100
scalar OsgEarthNet.uav[57] utilizationCountChargeState 49
scalar OsgEarthNet.uav[57] utilizationCountOverdrawnAfterMission 0
scalar OsgEarthNet.uav[57] utilizationCountIdleState 50
scalar OsgEarthNet.uav[57] utilizationFail 0
scalar OsgEarthNet.uav[57] simulationTime 259200
scalar OsgEarthNet.uav[58] utilizationSecMission 41432.629813519
scalar OsgEarthNet.uav[58] utilizationSecMaintenance 17786.276350599
scalar OsgEarthNet.uav[58] utilizationSecCharge 197711.66748859
scalar OsgEarthNet.uav[58] utilizationSecIdle 2269.4253472904
scalar OsgEarthNet.uav[58] utilizationEnergyMission 201487.27009964
scalar OsgEarthNet.uav[58] utilizationEnergyMaintenance 82930.392421722
scalar OsgEarthNet.uav[58] utilizationEnergyCharge 280059.90234375
scalar OsgEarthNet.uav[58] utilizationEnergyOverdrawMission 0
scalar OsgEarthNet.uav[58] utilizationEnergyOverdrawMaintenance 0
scalar OsgEarthNet.uav[58] utilizationCountMissions 61
scalar OsgEarthNet.uav[58] utilizationCountManeuversMission 1328
scalar OsgEarthNet.uav[58] utilizationCountManeuversMaintenance 122
scalar OsgEarthNet.uav[58] utilizationCountChargeState 61
scalar OsgEarthNet.uav[58] utilizationCountOverdrawnAfterMission 0
scalar OsgEarthNet.uav[58] utilizationCountIdleState 11
scalar OsgEarthNet.uav[58] utilizationFail 0
scalar OsgEarthNet.uav[58] simulationTime 259200
scalar OsgEarthNet.uav[59] utilizationSecMission 41295.595171185
scalar OsgEarthNet.uav[59] utilizationSecMaintenance 17556.733356311
scalar OsgEarthNet.uav[59] utilizationSecCharge 195683.50669227
scalar OsgEarthNet.uav[59] utilizationSecIdle 4664.1637802358
scalar OsgEarthNet.uav[59] utilizationEnergyMission 199479.09619141
scalar OsgEarthNet.uav[59] utilizationEnergyMaintenance 80570.580879211
scalar OsgEarthNet.uav[59] utilizationEnergyCharge 275306.26525879
scalar OsgEarthNet.uav[59] utilizationEnergyOverdrawMission 0
scalar OsgEarthNet.uav[59] utilizationEnergyOverdrawMaintenance 0
scalar OsgEarthNet.uav[59] utilizationCountMissions 61
scalar OsgEarthNet.uav[59] utilizationCountManeuversMission 1224
scalar OsgEarthNet.uav[59] utilizationCountManeuversMaintenance 122
scalar OsgEarthNet.uav[59] utilizationCountChargeState 61
scalar OsgEarthNet.uav[59] utilizationCountOverdrawnAfterMission 0
scalar OsgEarthNet.uav[59] utilizationCountIdleState 15
scalar OsgEarthNet.uav[59] utilizationFail 0
scalar OsgEarthNet.uav[59] simulationTime 259200
scalar OsgEarthNet.uav[60] utilizationSecMission 19285.626373223
scalar OsgEarthNet.uav[60] utilizationSecMaintenance 14255.887761639
scalar OsgEarthNet.uav[60] utilizationSecCharge 123267.28829259
scalar OsgEarthNet.uav[60] utilizationSecIdle 102391.19657255
scalar OsgEarthNet.uav[60] utilizationEnergyMission 95579.746730804
scalar OsgEarthNet.uav[60] utilizationEnergyMaintenance 67114.363693237
scalar OsgEarthNet.uav[60] utilizationEnergyCharge 158935.08483887
scalar OsgEarthNet.uav[60] utilizationEnergyOverdrawMission 0
scalar OsgEarthNet.uav[60] utilizationEnergyOverdrawMaintenance 0
scalar OsgEarthNet.uav[60] utilizationCountMissions 36
scalar OsgEarthNet.uav[60] utilizationCountManeuversMission 730
scalar OsgEarthNet.uav[60] utilizationCountManeuversMaintenance 72
scalar OsgEarthNet.uav[60] utilizationCountChargeState 36
scalar OsgEarthNet.uav[60] utilizationCountOverdrawnAfterMission 0
scalar OsgEarthNet.uav[60] utilizationCountIdleState 36
scalar OsgEarthNet.uav[60] utilizationFail 0
scalar OsgEarthNet.uav[60] simulationTime 259200
scalar OsgEarthNet.uav[61] utilizationSecMission 23463.500981245
scalar OsgEarthNet.uav[61] utilizationSecMaintenance 16410.800230892
scalar OsgEarthNet.uav[61] utilizationSecCharge 153211.34386548
scalar OsgEarthNet.uav[61] utilizationSecIdle 66114.353922387
scalar OsgEarthNet.uav[61] utilizationEnergyMission 115888.24330139
scalar OsgEarthNet.uav[61] utilizationEnergyMaintenance 77986.336681366
scalar OsgEarthNet.uav[61] utilizationEnergyCharge 193139.12670898
scalar OsgEarthNet.uav[61] utilizationEnergyOverdrawMission 0
scalar OsgEarthNet.uav[61] utilizationEnergyOverdrawMaintenance 0
scalar OsgEarthNet.uav[61] utilizationCountMissions 47
scalar OsgEarthNet.uav[61] utilizationCountManeuversMission 875
scalar OsgEarthNet.uav[61] utilizationCountManeuversMaintenance 94
scalar OsgEarthNet.uav[61] utilizationCountChargeState 47
scalar OsgEarthNet.uav[61] utilizationCountOverdrawnAfterMission 0
scalar OsgEarthNet.uav[61] utilizationCountIdleState 47
scalar OsgEarthNet.uav[61] utilizationFail 0
scalar OsgEarthNet.uav[61] simulationTime 259200
scalar OsgEarthNet.uav[62] utilizationSecMission 41168.536379047
scalar OsgEarthNet.uav[62] utilizationSecMaintenance 17959.459620953
scalar OsgEarthNet.uav[62] utilizationSecCharge 197090
scalar OsgEarthNet.uav[62] utilizationSecIdle 2982.003
scalar OsgEarthNet.uav[62] utilizationEnergyMission 198914.90838645
scalar OsgEarthNet.uav[62] utilizationEnergyMaintenance 83052.038314819
scalar OsgEarthNet.uav[62] utilizationEnergyCharge 275878.70605469
scalar OsgEarthNet.uav[62] utilizationEnergyOverdrawMission 0
scalar OsgEarthNet.uav[62] utilizationEnergyOverdrawMaintenance 0
scalar OsgEarthNet.uav[62] utilizationCountMissions 60
scalar OsgEarthNet.uav[62] utilizationCountManeuversMission 1276
scalar OsgEarthNet.uav[62] utilizationCountManeuversMaintenance 121
scalar OsgEarthNet.uav[62] utilizationCountChargeState 60
scalar OsgEarthNet.uav[62] utilizationCountOverdrawnAfterMission 0
scalar OsgEarthNet.uav[62] utilizationCountIdleState 9
scalar OsgEarthNet.uav[62] utilizationFail 0
scalar OsgEarthNet.uav[62] simulationTime 259200
scalar OsgEarthNet.uav[63] utilizationSecMission 19900.517060949
scalar OsgEarthNet.uav[63] utilizationSecMaintenance 14141.816861781
scalar OsgEarthNet.uav[63] utilizationSecCharge 126680.42023834
scalar OsgEarthNet.uav[63] utilizationSecIdle 98477.24483893
scalar OsgEarthNet.uav[63] utilizationEnergyMission 97474.811946869
scalar OsgEarthNet.uav[63] utilizationEnergyMaintenance 66867.225158691
scalar OsgEarthNet.uav[63] utilizationEnergyCharge 164406.39453125
scalar OsgEarthNet.uav[63] utilizationEnergyOverdrawMission 0
scalar OsgEarthNet.uav[63] utilizationEnergyOverdrawMaintenance 0
scalar OsgEarthNet.uav[63] utilizationCountMissions 36
scalar OsgEarthNet.uav[63] utilizationCountManeuversMission 713
scalar OsgEarthNet.uav[63] utilizationCountManeuversMaintenance 72
scalar OsgEarthNet.uav[63] utilizationCountChargeState 36
scalar OsgEarthNet.uav[63] utilizationCountOverdrawnAfterMission 0
scalar OsgEarthNet.uav[63] utilizationCountIdleState 36
scalar OsgEarthNet.uav[63] utilizationFail 0
scalar OsgEarthNet.uav[63] simulationTime 259200
scalar OsgEarthNet.uav[64] utilizationSecMission 23600.731860688
scalar OsgEarthNet.uav[64] utilizationSecMaintenance 14898.064690398
scalar OsgEarthNet.uav[64] utilizationSecCharge 142419.20144891
scalar OsgEarthNet.uav[64] utilizationSecIdle 78282.001
scalar OsgEarthNet.uav[64] utilizationEnergyMission 114022.3921814
scalar OsgEarthNet.uav[64] utilizationEnergyMaintenance 70648.908676147
scalar OsgEarthNet.uav[64] utilizationEnergyCharge 182481.81274414
scalar OsgEarthNet.uav[64] utilizationEnergyOverdrawMission 0
scalar OsgEarthNet.uav[64] utilizationEnergyOverdrawMaintenance 0
scalar OsgEarthNet.uav[64] utilizationCountMissions 42
scalar OsgEarthNet.uav[64] utilizationCountManeuversMission 753
scalar OsgEarthNet.uav[64] utilizationCountManeuversMaintenance 84
scalar OsgEarthNet.uav[64] utilizationCountChargeState 42
scalar OsgEarthNet.uav[64] utilizationCountOverdrawnAfterMission 0
scalar OsgEarthNet.uav[64] utilizationCountIdleState 42
scalar OsgEarthNet.uav[64] utilizationFail 0
scalar OsgEarthNet.uav[64] simulationTime 259200
scalar OsgEarthNet.uav[65] utilizationSecMission 42063.578734865
scalar OsgEarthNet.uav[65] utilizationSecMaintenance 17002.939949813
[...]
scalar OsgEarthNet.uav[66] utilizationEnergyOverdrawMaintenance 0
scalar OsgEarthNet.uav[66] utilizationCountMissions 36
scalar OsgEarthNet.uav[66] utilizationCountManeuversMission 710
scalar OsgEarthNet.uav[66] utilizationCountManeuversMaintenance 72
scalar OsgEarthNet.uav[66] utilizationCountChargeState 36
scalar OsgEarthNet.uav[66] utilizationCountOverdrawnAfterMission 0
scalar OsgEarthNet.uav[66] utilizationCountIdleState 37
scalar OsgEarthNet.uav[66] utilizationFail 0
scalar OsgEarthNet.uav[66] simulationTime 259200
scalar OsgEarthNet.uav[67] utilizationSecMission 24918.15846798
scalar OsgEarthNet.uav[67] utilizationSecMaintenance 17283.24607555
scalar OsgEarthNet.uav[67] utilizationSecCharge 165990
scalar OsgEarthNet.uav[67] utilizationSecIdle 51008.59445647
scalar OsgEarthNet.uav[67] utilizationEnergyMission 119895.46381378
scalar OsgEarthNet.uav[67] utilizationEnergyMaintenance 82066.152626038
scalar OsgEarthNet.uav[67] utilizationEnergyCharge 201872.46679688
scalar OsgEarthNet.uav[67] utilizationEnergyOverdrawMission 0
scalar OsgEarthNet.uav[67] utilizationEnergyOverdrawMaintenance 0
scalar OsgEarthNet.uav[67] utilizationCountMissions 54
scalar OsgEarthNet.uav[67] utilizationCountManeuversMission 716
scalar OsgEarthNet.uav[67] utilizationCountManeuversMaintenance 108
scalar OsgEarthNet.uav[67] utilizationCountChargeState 54
scalar OsgEarthNet.uav[67] utilizationCountOverdrawnAfterMission 0
scalar OsgEarthNet.uav[67] utilizationCountIdleState 55
scalar OsgEarthNet.uav[67] utilizationFail 0
scalar OsgEarthNet.uav[67] simulationTime 259200
scalar OsgEarthNet.uav[68] utilizationSecMission 42067.190140527
scalar OsgEarthNet.uav[68] utilizationSecMaintenance 17242.100438866
scalar OsgEarthNet.uav[68] utilizationSecCharge 198238.70842061
scalar OsgEarthNet.uav[68] utilizationSecIdle 1652
scalar OsgEarthNet.uav[68] utilizationEnergyMission 201234.31157684
scalar OsgEarthNet.uav[68] utilizationEnergyMaintenance 79499.873943329
scalar OsgEarthNet.uav[68] utilizationEnergyCharge 278363.08996582
scalar OsgEarthNet.uav[68] utilizationEnergyOverdrawMission 0
scalar OsgEarthNet.uav[68] utilizationEnergyOverdrawMaintenance 0
scalar OsgEarthNet.uav[68] utilizationCountMissions 61
scalar OsgEarthNet.uav[68] utilizationCountManeuversMission 1257
scalar OsgEarthNet.uav[68] utilizationCountManeuversMaintenance 122
scalar OsgEarthNet.uav[68] utilizationCountChargeState 61
scalar OsgEarthNet.uav[68] utilizationCountOverdrawnAfterMission 0
scalar OsgEarthNet.uav[68] utilizationCountIdleState 18
scalar OsgEarthNet.uav[68] utilizationFail 0
scalar OsgEarthNet.uav[68] simulationTime 259200
scalar OsgEarthNet.uav[69] utilizationSecMission 20808.752136124
scalar OsgEarthNet.uav[69] utilizationSecMaintenance 13246.742081772
scalar OsgEarthNet.uav[69] utilizationSecCharge 125767.29110313
scalar OsgEarthNet.uav[69] utilizationSecIdle 99377.213678978
scalar OsgEarthNet.uav[69] utilizationEnergyMission 101941.8652916
scalar OsgEarthNet.uav[69] utilizationEnergyMaintenance 62646.278701782
scalar OsgEarthNet.uav[69] utilizationEnergyCharge 163228.26513672
scalar OsgEarthNet.uav[69] utilizationEnergyOverdrawMission 0
scalar OsgEarthNet.uav[69] utilizationEnergyOverdrawMaintenance 0
scalar OsgEarthNet.uav[69] utilizationCountMissions 36
scalar OsgEarthNet.uav[69] utilizationCountManeuversMission 676
scalar OsgEarthNet.uav[69] utilizationCountManeuversMaintenance 72
scalar OsgEarthNet.uav[69] utilizationCountChargeState 36
scalar OsgEarthNet.uav[69] utilizationCountOverdrawnAfterMission 0
scalar OsgEarthNet.uav[69] utilizationCountIdleState 36
scalar OsgEarthNet.uav[69] utilizationFail 0
scalar OsgEarthNet.uav[69] simulationTime 259200
scalar OsgEarthNet.uav[70] utilizationSecMission 22580.994707695
scalar OsgEarthNet.uav[70] utilizationSecMaintenance 13157.735530584
scalar OsgEarthNet.uav[70] utilizationSecCharge 132550
scalar OsgEarthNet.uav[70] utilizationSecIdle 90911.268761722
scalar OsgEarthNet.uav[70] utilizationEnergyMission 108270.11279297
scalar OsgEarthNet.uav[70] utilizationEnergyMaintenance 62852.172340393
scalar OsgEarthNet.uav[70] utilizationEnergyCharge 170436.91992188
scalar OsgEarthNet.uav[70] utilizationEnergyOverdrawMission 0
scalar OsgEarthNet.uav[70] utilizationEnergyOverdrawMaintenance 0
scalar OsgEarthNet.uav[70] utilizationCountMissions 38
scalar OsgEarthNet.uav[70] utilizationCountManeuversMission 665
scalar OsgEarthNet.uav[70] utilizationCountManeuversMaintenance 76
scalar OsgEarthNet.uav[70] utilizationCountChargeState 38
scalar OsgEarthNet.uav[70] utilizationCountOverdrawnAfterMission 0
scalar OsgEarthNet.uav[70] utilizationCountIdleState 39
scalar OsgEarthNet.uav[70] utilizationFail 0
scalar OsgEarthNet.uav[70] simulationTime 259200
scalar OsgEarthNet.uav[71] utilizationSecMission 25046.448812749
scalar OsgEarthNet.uav[71] utilizationSecMaintenance 17470.789766907
scalar OsgEarthNet.uav[71] utilizationSecCharge 164290
scalar OsgEarthNet.uav[71] utilizationSecIdle 52392.760420344
scalar OsgEarthNet.uav[71] utilizationEnergyMission 123915.81786346
scalar OsgEarthNet.uav[71] utilizationEnergyMaintenance 81923.0389328
scalar OsgEarthNet.uav[71] utilizationEnergyCharge 206175.21777344
scalar OsgEarthNet.uav[71] utilizationEnergyOverdrawMission 0
scalar OsgEarthNet.uav[71] utilizationEnergyOverdrawMaintenance 0
scalar OsgEarthNet.uav[71] utilizationCountMissions 50
scalar OsgEarthNet.uav[71] utilizationCountManeuversMission 932
scalar OsgEarthNet.uav[71] utilizationCountManeuversMaintenance 100
scalar OsgEarthNet.uav[71] utilizationCountChargeState 50
scalar OsgEarthNet.uav[71] utilizationCountOverdrawnAfterMission 0
scalar OsgEarthNet.uav[71] utilizationCountIdleState 51
scalar OsgEarthNet.uav[71] utilizationFail 0
scalar OsgEarthNet.uav[71] simulationTime 259200
scalar OsgEarthNet.uav[72] utilizationSecMission 40132.024508895
scalar OsgEarthNet.uav[72] utilizationSecMaintenance 19140.865698059
scalar OsgEarthNet.uav[72] utilizationSecCharge 198345.10679305
scalar OsgEarthNet.uav[72] utilizationSecIdle 1582.002
scalar OsgEarthNet.uav[72] utilizationEnergyMission 196629.02087784
scalar OsgEarthNet.uav[72] utilizationEnergyMaintenance 87859.670459747
scalar OsgEarthNet.uav[72] utilizationEnergyCharge 280836.3939209
scalar OsgEarthNet.uav[72] utilizationEnergyOverdrawMission 0
scalar OsgEarthNet.uav[72] utilizationEnergyOverdrawMaintenance 0
scalar OsgEarthNet.uav[72] utilizationCountMissions 62
scalar OsgEarthNet.uav[72] utilizationCountManeuversMission 1343
scalar OsgEarthNet.uav[72] utilizationCountManeuversMaintenance 124
scalar OsgEarthNet.uav[72] utilizationCountChargeState 62
scalar OsgEarthNet.uav[72] utilizationCountOverdrawnAfterMission 0
scalar OsgEarthNet.uav[72] utilizationCountIdleState 8
scalar OsgEarthNet.uav[72] utilizationFail 0
scalar OsgEarthNet.uav[72] simulationTime 259200
scalar OsgEarthNet.uav[73] utilizationSecMission 21006.876678383
scalar OsgEarthNet.uav[73] utilizationSecMaintenance 14465.910642639
scalar OsgEarthNet.uav[73] utilizationSecCharge 129890
scalar OsgEarthNet.uav[73] utilizationSecIdle 93837.211678978
scalar OsgEarthNet.uav[73] utilizationEnergyMission 103283.88121414
scalar OsgEarthNet.uav[73] utilizationEnergyMaintenance 68673.431376724
scalar OsgEarthNet.uav[73] utilizationEnergyCharge 167502.26464844
scalar OsgEarthNet.uav[73] utilizationEnergyOverdrawMission 0
scalar OsgEarthNet.uav[73] utilizationEnergyOverdrawMaintenance 0
scalar OsgEarthNet.uav[73] utilizationCountMissions 38
scalar OsgEarthNet.uav[73] utilizationCountManeuversMission 764
scalar OsgEarthNet.uav[73] utilizationCountManeuversMaintenance 76
scalar OsgEarthNet.uav[73] utilizationCountChargeState 37
scalar OsgEarthNet.uav[73] utilizationCountOverdrawnAfterMission 0
scalar OsgEarthNet.uav[73] utilizationCountIdleState 38
scalar OsgEarthNet.uav[73] utilizationFail 0
scalar OsgEarthNet.uav[73] simulationTime 259200
scalar OsgEarthNet.uav[74] utilizationSecMission 40682.901567022
scalar OsgEarthNet.uav[74] utilizationSecMaintenance 17205.837094871
scalar OsgEarthNet.uav[74] utilizationSecCharge 196895.81624942
scalar OsgEarthNet.uav[74] utilizationSecIdle 4415.444088691
scalar OsgEarthNet.uav[74] utilizationEnergyMission 195815.76270294
scalar OsgEarthNet.uav[74] utilizationEnergyMaintenance 80766.769302368
scalar OsgEarthNet.uav[74] utilizationEnergyCharge 276792.19873047
scalar OsgEarthNet.uav[74] utilizationEnergyOverdrawMission 0
scalar OsgEarthNet.uav[74] utilizationEnergyOverdrawMaintenance 0
scalar OsgEarthNet.uav[74] utilizationCountMissions 60
scalar OsgEarthNet.uav[74] utilizationCountManeuversMission 1203
scalar OsgEarthNet.uav[74] utilizationCountManeuversMaintenance 120
scalar OsgEarthNet.uav[74] utilizationCountChargeState 60
scalar OsgEarthNet.uav[74] utilizationCountOverdrawnAfterMission 0
scalar OsgEarthNet.uav[74] utilizationCountIdleState 13
scalar OsgEarthNet.uav[74] utilizationFail 0
scalar OsgEarthNet.uav[74] simulationTime 259200
scalar OsgEarthNet.uav[75] utilizationSecMission 41780.885552835
scalar OsgEarthNet.uav[75] utilizationSecMaintenance 17553.940061633
scalar OsgEarthNet.uav[75] utilizationSecCharge 198553.17338553
scalar OsgEarthNet.uav[75] utilizationSecIdle 1312
scalar OsgEarthNet.uav[75] utilizationEnergyMission 202373.48588181
scalar OsgEarthNet.uav[75] utilizationEnergyMaintenance 81400.286109924
scalar OsgEarthNet.uav[75] utilizationEnergyCharge 279851.89477539
scalar OsgEarthNet.uav[75] utilizationEnergyOverdrawMission 0
scalar OsgEarthNet.uav[75] utilizationEnergyOverdrawMaintenance 0
scalar OsgEarthNet.uav[75] utilizationCountMissions 62
scalar OsgEarthNet.uav[75] utilizationCountManeuversMission 1290
scalar OsgEarthNet.uav[75] utilizationCountManeuversMaintenance 124
scalar OsgEarthNet.uav[75] utilizationCountChargeState 62
scalar OsgEarthNet.uav[75] utilizationCountOverdrawnAfterMission 0
scalar OsgEarthNet.uav[75] utilizationCountIdleState 11
scalar OsgEarthNet.uav[75] utilizationFail 0
scalar OsgEarthNet.uav[75] simulationTime 259200
scalar OsgEarthNet.uav[76] utilizationSecMission 22560.80014859
scalar OsgEarthNet.uav[76] utilizationSecMaintenance 14467.19685141
scalar OsgEarthNet.uav[76] utilizationSecCharge 138010
scalar OsgEarthNet.uav[76] utilizationSecIdle 84162.002
scalar OsgEarthNet.uav[76] utilizationEnergyMission 109202.75212683
scalar OsgEarthNet.uav[76] utilizationEnergyMaintenance 68967.895618439
scalar OsgEarthNet.uav[76] utilizationEnergyCharge 178388.91210938
scalar OsgEarthNet.uav[76] utilizationEnergyOverdrawMission 0
scalar OsgEarthNet.uav[76] utilizationEnergyOverdrawMaintenance 0
scalar OsgEarthNet.uav[76] utilizationCountMissions 39
scalar OsgEarthNet.uav[76] utilizationCountManeuversMission 734
scalar OsgEarthNet.uav[76] utilizationCountManeuversMaintenance 79
scalar OsgEarthNet.uav[76] utilizationCountChargeState 39
scalar OsgEarthNet.uav[76] utilizationCountOverdrawnAfterMission 0
scalar OsgEarthNet.uav[76] utilizationCountIdleState 40
scalar OsgEarthNet.uav[76] utilizationFail 0
scalar OsgEarthNet.uav[76] simulationTime 259200
scalar OsgEarthNet.uav[77] utilizationSecMission 23941.382562748
scalar OsgEarthNet.uav[77] utilizationSecMaintenance 16396.614437252
scalar OsgEarthNet.uav[77] utilizationSecCharge 156410
scalar OsgEarthNet.uav[77] utilizationSecIdle 62452.002
scalar OsgEarthNet.uav[77] utilizationEnergyMission 116624.3226895
scalar OsgEarthNet.uav[77] utilizationEnergyMaintenance 77142.418651581
scalar OsgEarthNet.uav[77] utilizationEnergyCharge 193566.46582031
scalar OsgEarthNet.uav[77] utilizationEnergyOverdrawMission 0
scalar OsgEarthNet.uav[77] utilizationEnergyOverdrawMaintenance 0
scalar OsgEarthNet.uav[77] utilizationCountMissions 49
scalar OsgEarthNet.uav[77] utilizationCountManeuversMission 753
scalar OsgEarthNet.uav[77] utilizationCountManeuversMaintenance 99
scalar OsgEarthNet.uav[77] utilizationCountChargeState 49
scalar OsgEarthNet.uav[77] utilizationCountOverdrawnAfterMission 0
scalar OsgEarthNet.uav[77] utilizationCountIdleState 50
scalar OsgEarthNet.uav[77] utilizationFail 0
scalar OsgEarthNet.uav[77] simulationTime 259200
scalar OsgEarthNet.uav[78] utilizationSecMission 42553.813857392
scalar OsgEarthNet.uav[78] utilizationSecMaintenance 16003.612767823
scalar OsgEarthNet.uav[78] utilizationSecCharge 197020.56837479
scalar OsgEarthNet.uav[78] utilizationSecIdle 3622.004
scalar OsgEarthNet.uav[78] utilizationEnergyMission 204669.38011551
scalar OsgEarthNet.uav[78] utilizationEnergyMaintenance 73970.353744507
scalar OsgEarthNet.uav[78] utilizationEnergyCharge 276803.16113281
scalar OsgEarthNet.uav[78] utilizationEnergyOverdrawMission 0
scalar OsgEarthNet.uav[78] utilizationEnergyOverdrawMaintenance 0
scalar OsgEarthNet.uav[78] utilizationCountMissions 60
scalar OsgEarthNet.uav[78] utilizationCountManeuversMission 1211
scalar OsgEarthNet.uav[78] utilizationCountManeuversMaintenance 120
scalar OsgEarthNet.uav[78] utilizationCountChargeState 60
scalar OsgEarthNet.uav[78] utilizationCountOverdrawnAfterMission 0
scalar OsgEarthNet.uav[78] utilizationCountIdleState 12
scalar OsgEarthNet.uav[78] utilizationFail 0
scalar OsgEarthNet.uav[78] simulationTime 259200
scalar OsgEarthNet.uav[79] utilizationSecMission 24117.868944793
scalar OsgEarthNet.uav[79] utilizationSecMaintenance 16676.696803195
scalar OsgEarthNet.uav[79] utilizationSecCharge 151813.43325201
scalar OsgEarthNet.uav[79] utilizationSecIdle 66592
scalar OsgEarthNet.uav[79] utilizationEnergyMission 118150.06325531
scalar OsgEarthNet.uav[79] utilizationEnergyMaintenance 78964.915725708
scalar OsgEarthNet.uav[79] utilizationEnergyCharge 196052.18286133
scalar OsgEarthNet.uav[79] utilizationEnergyOverdrawMission 0
scalar OsgEarthNet.uav[79] utilizationEnergyOverdrawMaintenance 0
scalar OsgEarthNet.uav[79] utilizationCountMissions 44
scalar OsgEarthNet.uav[79] utilizationCountManeuversMission 872
scalar OsgEarthNet.uav[79] utilizationCountManeuversMaintenance 88
scalar OsgEarthNet.uav[79] utilizationCountChargeState 44
scalar OsgEarthNet.uav[79] utilizationCountOverdrawnAfterMission 0
scalar OsgEarthNet.uav[79] utilizationCountIdleState 44
scalar OsgEarthNet.uav[79] utilizationFail 0
scalar OsgEarthNet.uav[79] simulationTime 259200
scalar OsgEarthNet.uav[80] utilizationSecMission 41500.4899005
scalar OsgEarthNet.uav[80] utilizationSecMaintenance 16576.951913085
scalar OsgEarthNet.uav[80] utilizationSecCharge 195100
scalar OsgEarthNet.uav[80] utilizationSecIdle 6022.5571864146
scalar OsgEarthNet.uav[80] utilizationEnergyMission 197967.28050285
scalar OsgEarthNet.uav[80] utilizationEnergyMaintenance 75212.935180664
scalar OsgEarthNet.uav[80] utilizationEnergyCharge 270697.7890625
scalar OsgEarthNet.uav[80] utilizationEnergyOverdrawMission 0
scalar OsgEarthNet.uav[80] utilizationEnergyOverdrawMaintenance 0
scalar OsgEarthNet.uav[80] utilizationCountMissions 59
scalar OsgEarthNet.uav[80] utilizationCountManeuversMission 1081
scalar OsgEarthNet.uav[80] utilizationCountManeuversMaintenance 119
scalar OsgEarthNet.uav[80] utilizationCountChargeState 59
scalar OsgEarthNet.uav[80] utilizationCountOverdrawnAfterMission 0
scalar OsgEarthNet.uav[80] utilizationCountIdleState 18
scalar OsgEarthNet.uav[80] utilizationFail 0
scalar OsgEarthNet.uav[80] simulationTime 259200
scalar OsgEarthNet.uav[81] utilizationSecMission 24964.509069877
scalar OsgEarthNet.uav[81] utilizationSecMaintenance 17289.0626689
scalar OsgEarthNet.uav[81] utilizationSecCharge 162760
scalar OsgEarthNet.uav[81] utilizationSecIdle 54186.427261223
scalar OsgEarthNet.uav[81] utilizationEnergyMission 121888.60666697
scalar OsgEarthNet.uav[81] utilizationEnergyMaintenance 81627.436607361
scalar OsgEarthNet.uav[81] utilizationEnergyCharge 203322.01123047
scalar OsgEarthNet.uav[81] utilizationEnergyOverdrawMission 0
scalar OsgEarthNet.uav[81] utilizationEnergyOverdrawMaintenance 0
scalar OsgEarthNet.uav[81] utilizationCountMissions 50
scalar OsgEarthNet.uav[81] utilizationCountManeuversMission 876
scalar OsgEarthNet.uav[81] utilizationCountManeuversMaintenance 101
scalar OsgEarthNet.uav[81] utilizationCountChargeState 50
scalar OsgEarthNet.uav[81] utilizationCountOverdrawnAfterMission 0
scalar OsgEarthNet.uav[81] utilizationCountIdleState 51
scalar OsgEarthNet.uav[81] utilizationFail 0
scalar OsgEarthNet.uav[81] simulationTime 259200
scalar OsgEarthNet.uav[82] utilizationSecMission 41329.564844491
scalar OsgEarthNet.uav[82] utilizationSecMaintenance 18244.029063601
scalar OsgEarthNet.uav[82] utilizationSecCharge 196085.00660752
scalar OsgEarthNet.uav[82] utilizationSecIdle 3541.3984843856
scalar OsgEarthNet.uav[82] utilizationEnergyMission 199289.19457245
scalar OsgEarthNet.uav[82] utilizationEnergyMaintenance 84601.134361267
scalar OsgEarthNet.uav[82] utilizationEnergyCharge 276227.14129639
scalar OsgEarthNet.uav[82] utilizationEnergyOverdrawMission 0
scalar OsgEarthNet.uav[82] utilizationEnergyOverdrawMaintenance 0
scalar OsgEarthNet.uav[82] utilizationCountMissions 61
scalar OsgEarthNet.uav[82] utilizationCountManeuversMission 1260
scalar OsgEarthNet.uav[82] utilizationCountManeuversMaintenance 122
scalar OsgEarthNet.uav[82] utilizationCountChargeState 61
scalar OsgEarthNet.uav[82] utilizationCountOverdrawnAfterMission 0
scalar OsgEarthNet.uav[82] utilizationCountIdleState 11
scalar OsgEarthNet.uav[82] utilizationFail 0
scalar OsgEarthNet.uav[82] simulationTime 259200
scalar OsgEarthNet.uav[83] utilizationSecMission 20615.368334472
scalar OsgEarthNet.uav[83] utilizationSecMaintenance 15587.42398655
scalar OsgEarthNet.uav[83] utilizationSecCharge 134050
scalar OsgEarthNet.uav[83] utilizationSecIdle 88947.206678978
scalar OsgEarthNet.uav[83] utilizationEnergyMission 101950.81603622
scalar OsgEarthNet.uav[83] utilizationEnergyMaintenance 74199.465717465
scalar OsgEarthNet.uav[83] utilizationEnergyCharge 172850.24951172
scalar OsgEarthNet.uav[83] utilizationEnergyOverdrawMission 0
scalar OsgEarthNet.uav[83] utilizationEnergyOverdrawMaintenance 0
scalar OsgEarthNet.uav[83] utilizationCountMissions 39
scalar OsgEarthNet.uav[83] utilizationCountManeuversMission 801
scalar OsgEarthNet.uav[83] utilizationCountManeuversMaintenance 78
scalar OsgEarthNet.uav[83] utilizationCountChargeState 38
scalar OsgEarthNet.uav[83] utilizationCountOverdrawnAfterMission 0
scalar OsgEarthNet.uav[83] utilizationCountIdleState 39
scalar OsgEarthNet.uav[83] utilizationFail 0
scalar OsgEarthNet.uav[83] simulationTime 259200
scalar OsgEarthNet.uav[84] utilizationSecMission 26003.500981245
scalar OsgEarthNet.uav[84] utilizationSecMaintenance 18378.629858081
scalar OsgEarthNet.uav[84] utilizationSecCharge 170826.904175
scalar OsgEarthNet.uav[84] utilizationSecIdle 43990.963985674
scalar OsgEarthNet.uav[84] utilizationEnergyMission 131477.61823654
scalar OsgEarthNet.uav[84] utilizationEnergyMaintenance 86831.073513031
scalar OsgEarthNet.uav[84] utilizationEnergyCharge 215813.10351562
scalar OsgEarthNet.uav[84] utilizationEnergyOverdrawMission 0
scalar OsgEarthNet.uav[84] utilizationEnergyOverdrawMaintenance 0
scalar OsgEarthNet.uav[84] utilizationCountMissions 52
scalar OsgEarthNet.uav[84] utilizationCountManeuversMission 1002
scalar OsgEarthNet.uav[84] utilizationCountManeuversMaintenance 104
scalar OsgEarthNet.uav[84] utilizationCountChargeState 52
scalar OsgEarthNet.uav[84] utilizationCountOverdrawnAfterMission 0
scalar OsgEarthNet.uav[84] utilizationCountIdleState 52
scalar OsgEarthNet.uav[84] utilizationFail 0
scalar OsgEarthNet.uav[84] simulationTime 259200
scalar OsgEarthNet.cs[0] usedPower 4023219.1947211
scalar OsgEarthNet.cs[0] chargedPower 4023219.1947211
scalar OsgEarthNet.cs[0] chargedMobileNodes 878
scalar OsgEarthNet.cs[0] reservations 891
scalar OsgEarthNet.cs[1] usedPower 4147148.9492863
scalar OsgEarthNet.cs[1] chargedPower 4147148.9492863
scalar OsgEarthNet.cs[1] chargedMobileNodes 1036
scalar OsgEarthNet.cs[1] reservations 1049
scalar OsgEarthNet.cs[2] usedPower 8674421.3193607
scalar OsgEarthNet.cs[2] chargedPower 8674421.3193607
scalar OsgEarthNet.cs[2] chargedMobileNodes 333
scalar OsgEarthNet.cs[2] reservations 1894

