version 2
run Szenario_Hotel_Gabelbach-508-20180719-21:49:30-736
attr configname Szenario_Hotel_Gabelbach
attr datetime 20180719-21:49:30
attr experiment Szenario_Hotel_Gabelbach
attr inifile omnetpp.ini
attr iterationvars "$replM=2, $biWeight=0.35, $replSearchM=1, $numUAVs=98"
attr iterationvarsf replM=2,biWeight=0.35,replSearchM=1,numUAVs=98-
attr measurement "$replM=2, $biWeight=0.35, $replSearchM=1, $numUAVs=98"
attr network OsgEarthNet
attr processid 736
attr repetition 4
attr replication #4
attr resultdir results
attr runnumber 508
attr seedset 508
itervar biWeight 0.35
itervar numUAVs 98
itervar replM 2
itervar replSearchM 1
param *.osgEarthScene.scene "\"Szenario_Hotel_Gabelbach.earth\""
param *.playgroundLatitude 50.6830269
param *.playgroundLongitude 10.8538055
param *.playgroundWidth 3500m
param *.playgroundHeight 3500m
param *.cs[0].posX 3537m
param *.cs[0].posY 965m
param *.cs[0].posZ 538m
param *.cs[1].posX 312m
param *.cs[1].posY 1262m
param *.cs[1].posZ 539m
param *.cs[2].posX 2185m
param *.cs[2].posY 3026m
param *.cs[2].posZ 777m
param *.cs[3].posX 10m
param *.cs[3].posY 2200m
param *.cs[3].posZ 560m
param *.cs[4].posX 750m
param *.cs[4].posY 200m
param *.cs[4].posZ 540m
param *.cs[5].posX 2450m
param *.cs[5].posY 180m
param *.cs[5].posZ 524m
param *.cs[6].posX 3140m
param *.cs[6].posY 1790m
param *.cs[6].posZ 606m
param *.numCSs 3
param *.uav[*].replacementMethod 2
param *.uav[*].weightedSumWeight 0.35
param *.missionControl.replacementSearchMethod 1
param *.numUAVs 98
param *.*.timeStep 10s
param *.uav[*].commandPreviewCommandCount 20
param *.missionControl.missionFiles "\"missions\\\\Szenario_WB_Hotel_Gabelbach_Mission_Hotel.waypoints,missions\\\\Szenario_WB_Hotel_Gabelbach_Mission_Kickelhahn.waypoints,missions\\\\Szenario_WB_Hotel_Gabelbach_Mission_Ilmenau_Sportplatz.waypoints,missions\\\\Szenario_WB_Hotel_Gabelbach_Mission_Manebach_Mitte.waypoints,missions\\\\Szenario_WB_Hotel_Gabelbach_Mission_Manebach_Sued.waypoints,missions\\\\Szenario_WB_Hotel_Gabelbach_Hover_HoheSchlaufe.waypoints,missions\\\\Szenario_WB_Hotel_Gabelbach_Hover_Kickelhahn.waypoints,missions\\\\Szenario_WB_Hotel_Gabelbach_Hover_Gabelbachskopf.waypoints,missions\\\\Szenario_WB_Hotel_Gabelbach_Hover_Dachskopf.waypoints\""
param *.uav[0].startX 3537m
param *.uav[0].startY 965m
param *.uav[0].startZ 539m
param *.uav[1].startX 312m
param *.uav[1].startY 1262m
param *.uav[1].startZ 540m
param *.uav[2].startX 2185m
param *.uav[2].startY 3026m
param *.uav[2].startZ 778m
param *.uav[3].startX 3537m
param *.uav[3].startY 965m
param *.uav[3].startZ 539m
param *.uav[4].startX 312m
param *.uav[4].startY 1262m
param *.uav[4].startZ 540m
param *.uav[5].startX 2185m
param *.uav[5].startY 3026m
param *.uav[5].startZ 778m
param *.uav[6].startX 3537m
param *.uav[6].startY 965m
param *.uav[6].startZ 539m
param *.uav[7].startX 312m
param *.uav[7].startY 1262m
param *.uav[7].startZ 540m
param *.uav[8].startX 2185m
param *.uav[8].startY 3026m
param *.uav[8].startZ 778m
param *.uav[9].startX 3537m
param *.uav[9].startY 965m
param *.uav[9].startZ 539m
param *.uav[10].startX 3537m
param *.uav[10].startY 965m
param *.uav[10].startZ 539m
param *.uav[11].startX 312m
param *.uav[11].startY 1262m
param *.uav[11].startZ 540m
param *.uav[12].startX 2185m
param *.uav[12].startY 3026m
param *.uav[12].startZ 778m
param *.uav[13].startX 3537m
param *.uav[13].startY 965m
param *.uav[13].startZ 539m
param *.uav[14].startX 312m
param *.uav[14].startY 1262m
param *.uav[14].startZ 540m
param *.uav[15].startX 2185m
param *.uav[15].startY 3026m
param *.uav[15].startZ 778m
param *.uav[16].startX 3537m
param *.uav[16].startY 965m
param *.uav[16].startZ 539m
param *.uav[17].startX 312m
param *.uav[17].startY 1262m
param *.uav[17].startZ 540m
param *.uav[18].startX 2185m
param *.uav[18].startY 3026m
param *.uav[18].startZ 778m
param *.uav[19].startX 3537m
param *.uav[19].startY 965m
param *.uav[19].startZ 539m
param *.uav[20].startX 3537m
param *.uav[20].startY 965m
param *.uav[20].startZ 539m
param *.uav[21].startX 312m
param *.uav[21].startY 1262m
param *.uav[21].startZ 540m
param *.uav[22].startX 2185m
param *.uav[22].startY 3026m
param *.uav[22].startZ 778m
param *.uav[23].startX 3537m
param *.uav[23].startY 965m
param *.uav[23].startZ 539m
param *.uav[24].startX 312m
param *.uav[24].startY 1262m
param *.uav[24].startZ 540m
param *.uav[25].startX 2185m
param *.uav[25].startY 3026m
param *.uav[25].startZ 778m
param *.uav[26].startX 3537m
param *.uav[26].startY 965m
param *.uav[26].startZ 539m
param *.uav[27].startX 312m
param *.uav[27].startY 1262m
param *.uav[27].startZ 540m
param *.uav[28].startX 2185m
param *.uav[28].startY 3026m
param *.uav[28].startZ 778m
param *.uav[29].startX 3537m
param *.uav[29].startY 965m
param *.uav[29].startZ 539m
param *.uav[30].startX 3537m
param *.uav[30].startY 965m
param *.uav[30].startZ 539m
param *.uav[31].startX 312m
param *.uav[31].startY 1262m
param *.uav[31].startZ 540m
param *.uav[32].startX 2185m
param *.uav[32].startY 3026m
param *.uav[32].startZ 778m
param *.uav[33].startX 3537m
param *.uav[33].startY 965m
param *.uav[33].startZ 539m
param *.uav[34].startX 312m
param *.uav[34].startY 1262m
param *.uav[34].startZ 540m
param *.uav[35].startX 2185m
param *.uav[35].startY 3026m
param *.uav[35].startZ 778m
param *.uav[36].startX 3537m
param *.uav[36].startY 965m
param *.uav[36].startZ 539m
param *.uav[37].startX 312m
param *.uav[37].startY 1262m
param *.uav[37].startZ 540m
param *.uav[38].startX 2185m
param *.uav[38].startY 3026m
param *.uav[38].startZ 778m
param *.uav[39].startX 3537m
param *.uav[39].startY 965m
param *.uav[39].startZ 539m
param *.uav[40].startX 3537m
param *.uav[40].startY 965m
param *.uav[40].startZ 539m
param *.uav[41].startX 312m
param *.uav[41].startY 1262m
param *.uav[41].startZ 540m
param *.uav[42].startX 2185m
param *.uav[42].startY 3026m
param *.uav[42].startZ 778m
param *.uav[43].startX 3537m
param *.uav[43].startY 965m
param *.uav[43].startZ 539m
param *.uav[44].startX 312m
param *.uav[44].startY 1262m
param *.uav[44].startZ 540m
param *.uav[45].startX 2185m
param *.uav[45].startY 3026m
param *.uav[45].startZ 778m
param *.uav[46].startX 3537m
param *.uav[46].startY 965m
param *.uav[46].startZ 539m
param *.uav[47].startX 312m
param *.uav[47].startY 1262m
param *.uav[47].startZ 540m
param *.uav[48].startX 2185m
param *.uav[48].startY 3026m
param *.uav[48].startZ 778m
param *.uav[49].startX 3537m
param *.uav[49].startY 965m
param *.uav[49].startZ 539m
param *.uav[50].startX 3537m
param *.uav[50].startY 965m
param *.uav[50].startZ 539m
param *.uav[51].startX 312m
param *.uav[51].startY 1262m
param *.uav[51].startZ 540m
param *.uav[52].startX 2185m
param *.uav[52].startY 3026m
param *.uav[52].startZ 778m
param *.uav[53].startX 3537m
param *.uav[53].startY 965m
param *.uav[53].startZ 539m
param *.uav[54].startX 312m
param *.uav[54].startY 1262m
param *.uav[54].startZ 540m
param *.uav[55].startX 2185m
param *.uav[55].startY 3026m
param *.uav[55].startZ 778m
param *.uav[56].startX 3537m
param *.uav[56].startY 965m
param *.uav[56].startZ 539m
param *.uav[57].startX 312m
param *.uav[57].startY 1262m
param *.uav[57].startZ 540m
param *.uav[58].startX 2185m
param *.uav[58].startY 3026m
param *.uav[58].startZ 778m
param *.uav[59].startX 3537m
param *.uav[59].startY 965m
param *.uav[59].startZ 539m
param *.uav[60].startX 3537m
param *.uav[60].startY 965m
param *.uav[60].startZ 539m
param *.uav[61].startX 312m
param *.uav[61].startY 1262m
param *.uav[61].startZ 540m
param *.uav[62].startX 2185m
param *.uav[62].startY 3026m
param *.uav[62].startZ 778m
param *.uav[63].startX 3537m
param *.uav[63].startY 965m
param *.uav[63].startZ 539m
param *.uav[64].startX 312m
param *.uav[64].startY 1262m
param *.uav[64].startZ 540m
param *.uav[65].startX 2185m
param *.uav[65].startY 3026m
param *.uav[65].startZ 778m
param *.uav[66].startX 3537m
param *.uav[66].startY 965m
param *.uav[66].startZ 539m
param *.uav[67].startX 312m
param *.uav[67].startY 1262m
param *.uav[67].startZ 540m
param *.uav[68].startX 2185m
param *.uav[68].startY 3026m
param *.uav[68].startZ 778m
param *.uav[69].startX 3537m
param *.uav[69].startY 965m
param *.uav[69].startZ 539m
param *.uav[70].startX 3537m
param *.uav[70].startY 965m
param *.uav[70].startZ 539m
param *.uav[71].startX 312m
param *.uav[71].startY 1262m
param *.uav[71].startZ 540m
param *.uav[72].startX 2185m
param *.uav[72].startY 3026m
param *.uav[72].startZ 778m
param *.uav[73].startX 3537m
param *.uav[73].startY 965m
param *.uav[73].startZ 539m
param *.uav[74].startX 312m
param *.uav[74].startY 1262m
param *.uav[74].startZ 540m
param *.uav[75].startX 2185m
param *.uav[75].startY 3026m
param *.uav[75].startZ 778m
param *.uav[76].startX 3537m
param *.uav[76].startY 965m
param *.uav[76].startZ 539m
param *.uav[77].startX 312m
param *.uav[77].startY 1262m
param *.uav[77].startZ 540m
param *.uav[78].startX 2185m
param *.uav[78].startY 3026m
param *.uav[78].startZ 778m
param *.uav[79].startX 3537m
param *.uav[79].startY 965m
param *.uav[79].startZ 539m
param *.uav[80].startX 3537m
param *.uav[80].startY 965m
param *.uav[80].startZ 539m
param *.uav[81].startX 312m
param *.uav[81].startY 1262m
param *.uav[81].startZ 540m
param *.uav[82].startX 2185m
param *.uav[82].startY 3026m
param *.uav[82].startZ 778m
param *.uav[83].startX 3537m
param *.uav[83].startY 965m
param *.uav[83].startZ 539m
param *.uav[84].startX 312m
param *.uav[84].startY 1262m
param *.uav[84].startZ 540m
param *.uav[85].startX 2185m
param *.uav[85].startY 3026m
param *.uav[85].startZ 778m
param *.uav[86].startX 3537m
param *.uav[86].startY 965m
param *.uav[86].startZ 539m
param *.uav[87].startX 312m
param *.uav[87].startY 1262m
param *.uav[87].startZ 540m
param *.uav[88].startX 2185m
param *.uav[88].startY 3026m
param *.uav[88].startZ 778m
param *.uav[89].startX 3537m
param *.uav[89].startY 965m
param *.uav[89].startZ 539m
param *.uav[90].startX 3537m
param *.uav[90].startY 965m
param *.uav[90].startZ 539m
param *.uav[91].startX 312m
param *.uav[91].startY 1262m
param *.uav[91].startZ 540m
param *.uav[92].startX 2185m
param *.uav[92].startY 3026m
param *.uav[92].startZ 778m
param *.uav[93].startX 3537m
param *.uav[93].startY 965m
param *.uav[93].startZ 539m
param *.uav[94].startX 312m
param *.uav[94].startY 1262m
param *.uav[94].startZ 540m
param *.uav[95].startX 2185m
param *.uav[95].startY 3026m
param *.uav[95].startZ 778m
param *.uav[96].startX 3537m
param *.uav[96].startY 965m
param *.uav[96].startZ 539m
param *.uav[97].startX 312m
param *.uav[97].startY 1262m
param *.uav[97].startZ 540m
param *.uav[98].startX 2185m
param *.uav[98].startY 3026m
param *.uav[98].startZ 778m
param *.uav[99].startX 3537m
param *.uav[99].startY 965m
param *.uav[99].startZ 539m
param *.osgEarthScene.scene "\"boston.earth\""
param *.playgroundLatitude 42.3558
param *.playgroundLongitude -71.0677
param *.playgroundWidth 400m
param *.playgroundHeight 200m
param *.channelController.connectionColor "\"#0000FF40\""
param *.channelController.showConnections false
param *.uav[*].modelURL "\"quadrocopter.small.obj.15.scale.0,0,90.rot\""
param *.uav[*].labelColor "\"#FF7C00CC\""
param *.uav[*].label2Color "\"#FF7C00EE\""
param *.uav[*].batteryCapacity 5200mAh
param *.uav[*].batteryRemaining uav[index].batteryCapacity
param *.uav[*].predictionQuantile 0.95
param *.uav[*].replacementMethod 2
param *.uav[*].weightedSumWeight 0.5
param *.cs[*].modelURL "\"chargingstation_v1.osgt.2.scale.0,0,0.rot.0,0,-15e-1.trans\""
param *.cs[*].spotsWaiting 999
param *.cs[*].spotsCharging 999
param *.cs[*].chargeEffectivenessPercentage 100
param *.cs[*].nonLinearPhaseStartPercentage 85
param *.cs[*].chargeCurrent 6.0A
param *.cs[*].prioritizeFastCharge true
param *.missionControl.replacementSearchMethod 0
param *.*.timeStep 9s

scalar OsgEarthNet.uav[0] utilizationSecMission 760.62515258028
scalar OsgEarthNet.uav[0] utilizationSecMaintenance 280.27216773088
scalar OsgEarthNet.uav[0] utilizationSecCharge 3570
scalar OsgEarthNet.uav[0] utilizationSecIdle 254589.10167969
scalar OsgEarthNet.uav[0] utilizationEnergyMission 3474.7598419189
scalar OsgEarthNet.uav[0] utilizationEnergyMaintenance 1283.0374259949
scalar OsgEarthNet.uav[0] utilizationEnergyCharge 4757.7958984375
scalar OsgEarthNet.uav[0] utilizationEnergyOverdrawMission 0
scalar OsgEarthNet.uav[0] utilizationEnergyOverdrawMaintenance 0
scalar OsgEarthNet.uav[0] utilizationCountMissions 1
scalar OsgEarthNet.uav[0] utilizationCountManeuversMission 12
scalar OsgEarthNet.uav[0] utilizationCountManeuversMaintenance 2
scalar OsgEarthNet.uav[0] utilizationCountChargeState 1
scalar OsgEarthNet.uav[0] utilizationCountOverdrawnAfterMission 0
scalar OsgEarthNet.uav[0] utilizationCountIdleState 2
scalar OsgEarthNet.uav[0] utilizationFail 0
scalar OsgEarthNet.uav[0] simulationTime 259200
scalar OsgEarthNet.uav[1] utilizationSecMission 11600.346349879
scalar OsgEarthNet.uav[1] utilizationSecMaintenance 7750.4055845849
scalar OsgEarthNet.uav[1] utilizationSecCharge 74725.578887548
scalar OsgEarthNet.uav[1] utilizationSecIdle 165123.66817799
scalar OsgEarthNet.uav[1] utilizationEnergyMission 56404.655426025
scalar OsgEarthNet.uav[1] utilizationEnergyMaintenance 36437.557689667
scalar OsgEarthNet.uav[1] utilizationEnergyCharge 92911.032226562
scalar OsgEarthNet.uav[1] utilizationEnergyOverdrawMission 0
scalar OsgEarthNet.uav[1] utilizationEnergyOverdrawMaintenance 0
scalar OsgEarthNet.uav[1] utilizationCountMissions 24
scalar OsgEarthNet.uav[1] utilizationCountManeuversMission 327
scalar OsgEarthNet.uav[1] utilizationCountManeuversMaintenance 48
scalar OsgEarthNet.uav[1] utilizationCountChargeState 24
scalar OsgEarthNet.uav[1] utilizationCountOverdrawnAfterMission 0
scalar OsgEarthNet.uav[1] utilizationCountIdleState 24
scalar OsgEarthNet.uav[1] utilizationFail 0
scalar OsgEarthNet.uav[1] simulationTime 259200
scalar OsgEarthNet.uav[2] utilizationSecMission 40594.705751632
scalar OsgEarthNet.uav[2] utilizationSecMaintenance 17587.374254282
scalar OsgEarthNet.uav[2] utilizationSecCharge 196444.45795131
scalar OsgEarthNet.uav[2] utilizationSecIdle 4573.4610427756
scalar OsgEarthNet.uav[2] utilizationEnergyMission 197680.02267838
scalar OsgEarthNet.uav[2] utilizationEnergyMaintenance 81012.218025208
scalar OsgEarthNet.uav[2] utilizationEnergyCharge 279735.14257812
scalar OsgEarthNet.uav[2] utilizationEnergyOverdrawMission 0
scalar OsgEarthNet.uav[2] utilizationEnergyOverdrawMaintenance 0
scalar OsgEarthNet.uav[2] utilizationCountMissions 61
scalar OsgEarthNet.uav[2] utilizationCountManeuversMission 1258
scalar OsgEarthNet.uav[2] utilizationCountManeuversMaintenance 122
scalar OsgEarthNet.uav[2] utilizationCountChargeState 61
scalar OsgEarthNet.uav[2] utilizationCountOverdrawnAfterMission 0
scalar OsgEarthNet.uav[2] utilizationCountIdleState 7
scalar OsgEarthNet.uav[2] utilizationFail 0
scalar OsgEarthNet.uav[2] simulationTime 259200
scalar OsgEarthNet.uav[3] utilizationSecMission 760.62515258028
scalar OsgEarthNet.uav[3] utilizationSecMaintenance 280.27216773088
scalar OsgEarthNet.uav[3] utilizationSecCharge 3620
scalar OsgEarthNet.uav[3] utilizationSecIdle 254539.10167969
scalar OsgEarthNet.uav[3] utilizationEnergyMission 3469.3915557861
scalar OsgEarthNet.uav[3] utilizationEnergyMaintenance 1352.1684074402
scalar OsgEarthNet.uav[3] utilizationEnergyCharge 4821.5595703125
scalar OsgEarthNet.uav[3] utilizationEnergyOverdrawMission 0
scalar OsgEarthNet.uav[3] utilizationEnergyOverdrawMaintenance 0
scalar OsgEarthNet.uav[3] utilizationCountMissions 1
scalar OsgEarthNet.uav[3] utilizationCountManeuversMission 12
scalar OsgEarthNet.uav[3] utilizationCountManeuversMaintenance 2
scalar OsgEarthNet.uav[3] utilizationCountChargeState 1
scalar OsgEarthNet.uav[3] utilizationCountOverdrawnAfterMission 0
scalar OsgEarthNet.uav[3] utilizationCountIdleState 2
scalar OsgEarthNet.uav[3] utilizationFail 0
scalar OsgEarthNet.uav[3] simulationTime 259200
scalar OsgEarthNet.uav[4] utilizationSecMission 6225.4003924981
scalar OsgEarthNet.uav[4] utilizationSecMaintenance 4272.4413311902
scalar OsgEarthNet.uav[4] utilizationSecCharge 41140
scalar OsgEarthNet.uav[4] utilizationSecIdle 207562.15727631
scalar OsgEarthNet.uav[4] utilizationEnergyMission 29249.631988525
scalar OsgEarthNet.uav[4] utilizationEnergyMaintenance 20426.425056458
scalar OsgEarthNet.uav[4] utilizationEnergyCharge 50680.272460938
scalar OsgEarthNet.uav[4] utilizationEnergyOverdrawMission 0
scalar OsgEarthNet.uav[4] utilizationEnergyOverdrawMaintenance 0
scalar OsgEarthNet.uav[4] utilizationCountMissions 13
scalar OsgEarthNet.uav[4] utilizationCountManeuversMission 192
scalar OsgEarthNet.uav[4] utilizationCountManeuversMaintenance 26
scalar OsgEarthNet.uav[4] utilizationCountChargeState 13
scalar OsgEarthNet.uav[4] utilizationCountOverdrawnAfterMission 0
scalar OsgEarthNet.uav[4] utilizationCountIdleState 14
scalar OsgEarthNet.uav[4] utilizationFail 0
scalar OsgEarthNet.uav[4] simulationTime 259200
scalar OsgEarthNet.uav[5] utilizationSecMission 43722.871419259
scalar OsgEarthNet.uav[5] utilizationSecMaintenance 16569.423219241
scalar OsgEarthNet.uav[5] utilizationSecCharge 197825.7043615
scalar OsgEarthNet.uav[5] utilizationSecIdle 1082
scalar OsgEarthNet.uav[5] utilizationEnergyMission 206697.20825958
scalar OsgEarthNet.uav[5] utilizationEnergyMaintenance 74916.964729309
scalar OsgEarthNet.uav[5] utilizationEnergyCharge 278518.30517578
scalar OsgEarthNet.uav[5] utilizationEnergyOverdrawMission 0
scalar OsgEarthNet.uav[5] utilizationEnergyOverdrawMaintenance 0
scalar OsgEarthNet.uav[5] utilizationCountMissions 61
scalar OsgEarthNet.uav[5] utilizationCountManeuversMission 1123
scalar OsgEarthNet.uav[5] utilizationCountManeuversMaintenance 122
scalar OsgEarthNet.uav[5] utilizationCountChargeState 61
scalar OsgEarthNet.uav[5] utilizationCountOverdrawnAfterMission 0
scalar OsgEarthNet.uav[5] utilizationCountIdleState 12
scalar OsgEarthNet.uav[5] utilizationFail 0
scalar OsgEarthNet.uav[5] simulationTime 259200
scalar OsgEarthNet.uav[6] utilizationSecMission 760.62515258028
scalar OsgEarthNet.uav[6] utilizationSecMaintenance 280.27216773088
scalar OsgEarthNet.uav[6] utilizationSecCharge 3760
scalar OsgEarthNet.uav[6] utilizationSecIdle 254399.10167969
scalar OsgEarthNet.uav[6] utilizationEnergyMission 3735.480178833
scalar OsgEarthNet.uav[6] utilizationEnergyMaintenance 1378.3546257019
scalar OsgEarthNet.uav[6] utilizationEnergyCharge 5113.8330078125
scalar OsgEarthNet.uav[6] utilizationEnergyOverdrawMission 0
scalar OsgEarthNet.uav[6] utilizationEnergyOverdrawMaintenance 0
scalar OsgEarthNet.uav[6] utilizationCountMissions 1
scalar OsgEarthNet.uav[6] utilizationCountManeuversMission 12
scalar OsgEarthNet.uav[6] utilizationCountManeuversMaintenance 2
scalar OsgEarthNet.uav[6] utilizationCountChargeState 1
scalar OsgEarthNet.uav[6] utilizationCountOverdrawnAfterMission 0
scalar OsgEarthNet.uav[6] utilizationCountIdleState 2
scalar OsgEarthNet.uav[6] utilizationFail 0
scalar OsgEarthNet.uav[6] simulationTime 259200
scalar OsgEarthNet.uav[7] utilizationSecMission 7301.9572904854
scalar OsgEarthNet.uav[7] utilizationSecMaintenance 5286.0673580165
scalar OsgEarthNet.uav[7] utilizationSecCharge 47351.122829051
scalar OsgEarthNet.uav[7] utilizationSecIdle 199260.85152245
scalar OsgEarthNet.uav[7] utilizationEnergyMission 35102.42401123
scalar OsgEarthNet.uav[7] utilizationEnergyMaintenance 25419.722484589
scalar OsgEarthNet.uav[7] utilizationEnergyCharge 56494.547363281
scalar OsgEarthNet.uav[7] utilizationEnergyOverdrawMission 0
scalar OsgEarthNet.uav[7] utilizationEnergyOverdrawMaintenance 0
scalar OsgEarthNet.uav[7] utilizationCountMissions 17
scalar OsgEarthNet.uav[7] utilizationCountManeuversMission 193
scalar OsgEarthNet.uav[7] utilizationCountManeuversMaintenance 34
scalar OsgEarthNet.uav[7] utilizationCountChargeState 17
scalar OsgEarthNet.uav[7] utilizationCountOverdrawnAfterMission 0
scalar OsgEarthNet.uav[7] utilizationCountIdleState 17
scalar OsgEarthNet.uav[7] utilizationFail 0
scalar OsgEarthNet.uav[7] simulationTime 259200
scalar OsgEarthNet.uav[8] utilizationSecMission 41601.801992436
scalar OsgEarthNet.uav[8] utilizationSecMaintenance 16759.679126143
scalar OsgEarthNet.uav[8] utilizationSecCharge 196708.68106738
scalar OsgEarthNet.uav[8] utilizationSecIdle 4129.83681404
scalar OsgEarthNet.uav[8] utilizationEnergyMission 198371.15808105
scalar OsgEarthNet.uav[8] utilizationEnergyMaintenance 76078.806289673
scalar OsgEarthNet.uav[8] utilizationEnergyCharge 274197.57958984
scalar OsgEarthNet.uav[8] utilizationEnergyOverdrawMission 0
scalar OsgEarthNet.uav[8] utilizationEnergyOverdrawMaintenance 0
scalar OsgEarthNet.uav[8] utilizationCountMissions 60
scalar OsgEarthNet.uav[8] utilizationCountManeuversMission 1091
scalar OsgEarthNet.uav[8] utilizationCountManeuversMaintenance 120
scalar OsgEarthNet.uav[8] utilizationCountChargeState 60
scalar OsgEarthNet.uav[8] utilizationCountOverdrawnAfterMission 0
scalar OsgEarthNet.uav[8] utilizationCountIdleState 16
scalar OsgEarthNet.uav[8] utilizationFail 0
scalar OsgEarthNet.uav[8] simulationTime 259200
scalar OsgEarthNet.uav[9] utilizationSecMission 3221.8754577408
scalar OsgEarthNet.uav[9] utilizationSecMaintenance 1648.875363672
scalar OsgEarthNet.uav[9] utilizationSecCharge 16599.931065099
scalar OsgEarthNet.uav[9] utilizationSecIdle 237729.31711349
scalar OsgEarthNet.uav[9] utilizationEnergyMission 14988.768321991
scalar OsgEarthNet.uav[9] utilizationEnergyMaintenance 7660.4569969177
scalar OsgEarthNet.uav[9] utilizationEnergyCharge 22430.999023438
scalar OsgEarthNet.uav[9] utilizationEnergyOverdrawMission 0
scalar OsgEarthNet.uav[9] utilizationEnergyOverdrawMaintenance 0
scalar OsgEarthNet.uav[9] utilizationCountMissions 5
scalar OsgEarthNet.uav[9] utilizationCountManeuversMission 83
scalar OsgEarthNet.uav[9] utilizationCountManeuversMaintenance 10
scalar OsgEarthNet.uav[9] utilizationCountChargeState 5
scalar OsgEarthNet.uav[9] utilizationCountOverdrawnAfterMission 0
scalar OsgEarthNet.uav[9] utilizationCountIdleState 5
scalar OsgEarthNet.uav[9] utilizationFail 0
scalar OsgEarthNet.uav[9] simulationTime 259200
scalar OsgEarthNet.uav[10] utilizationSecMission 3071.6174189903
scalar OsgEarthNet.uav[10] utilizationSecMaintenance 1507.2327194918
scalar OsgEarthNet.uav[10] utilizationSecCharge 17160
scalar OsgEarthNet.uav[10] utilizationSecIdle 237461.14886152
scalar OsgEarthNet.uav[10] utilizationEnergyMission 14482.651908875
scalar OsgEarthNet.uav[10] utilizationEnergyMaintenance 7220.3554344177
scalar OsgEarthNet.uav[10] utilizationEnergyCharge 21952.881835938
scalar OsgEarthNet.uav[10] utilizationEnergyOverdrawMission 0
scalar OsgEarthNet.uav[10] utilizationEnergyOverdrawMaintenance 0
scalar OsgEarthNet.uav[10] utilizationCountMissions 5
scalar OsgEarthNet.uav[10] utilizationCountManeuversMission 80
scalar OsgEarthNet.uav[10] utilizationCountManeuversMaintenance 10
scalar OsgEarthNet.uav[10] utilizationCountChargeState 5
scalar OsgEarthNet.uav[10] utilizationCountOverdrawnAfterMission 0
scalar OsgEarthNet.uav[10] utilizationCountIdleState 6
scalar OsgEarthNet.uav[10] utilizationFail 0
scalar OsgEarthNet.uav[10] simulationTime 259200
scalar OsgEarthNet.uav[11] utilizationSecMission 10168.843494511
scalar OsgEarthNet.uav[11] utilizationSecMaintenance 6807.9138074134
scalar OsgEarthNet.uav[11] utilizationSecCharge 63463.127614411
scalar OsgEarthNet.uav[11] utilizationSecIdle 178760.11408366
scalar OsgEarthNet.uav[11] utilizationEnergyMission 50160.053352356
scalar OsgEarthNet.uav[11] utilizationEnergyMaintenance 32324.509983063
scalar OsgEarthNet.uav[11] utilizationEnergyCharge 82886.061523438
scalar OsgEarthNet.uav[11] utilizationEnergyOverdrawMission 0
scalar OsgEarthNet.uav[11] utilizationEnergyOverdrawMaintenance 0
scalar OsgEarthNet.uav[11] utilizationCountMissions 18
scalar OsgEarthNet.uav[11] utilizationCountManeuversMission 442
scalar OsgEarthNet.uav[11] utilizationCountManeuversMaintenance 36
scalar OsgEarthNet.uav[11] utilizationCountChargeState 18
scalar OsgEarthNet.uav[11] utilizationCountOverdrawnAfterMission 0
scalar OsgEarthNet.uav[11] utilizationCountIdleState 18
scalar OsgEarthNet.uav[11] utilizationFail 0
scalar OsgEarthNet.uav[11] simulationTime 259200
scalar OsgEarthNet.uav[12] utilizationSecMission 41456.4485189
scalar OsgEarthNet.uav[12] utilizationSecMaintenance 18131.98270163
scalar OsgEarthNet.uav[12] utilizationSecCharge 196721.9366988
scalar OsgEarthNet.uav[12] utilizationSecIdle 2889.6310806652
scalar OsgEarthNet.uav[12] utilizationEnergyMission 202660.19033813
scalar OsgEarthNet.uav[12] utilizationEnergyMaintenance 82305.191795349
scalar OsgEarthNet.uav[12] utilizationEnergyCharge 280573.17675781
scalar OsgEarthNet.uav[12] utilizationEnergyOverdrawMission 0
scalar OsgEarthNet.uav[12] utilizationEnergyOverdrawMaintenance 0
scalar OsgEarthNet.uav[12] utilizationCountMissions 62
scalar OsgEarthNet.uav[12] utilizationCountManeuversMission 1264
scalar OsgEarthNet.uav[12] utilizationCountManeuversMaintenance 124
scalar OsgEarthNet.uav[12] utilizationCountChargeState 62
scalar OsgEarthNet.uav[12] utilizationCountOverdrawnAfterMission 0
scalar OsgEarthNet.uav[12] utilizationCountIdleState 9
scalar OsgEarthNet.uav[12] utilizationFail 0
scalar OsgEarthNet.uav[12] simulationTime 259200
scalar OsgEarthNet.uav[13] utilizationSecMission 1740.6251525803
scalar OsgEarthNet.uav[13] utilizationSecMaintenance 1175.1155592225
scalar OsgEarthNet.uav[13] utilizationSecCharge 10510
scalar OsgEarthNet.uav[13] utilizationSecIdle 245774.2582882
scalar OsgEarthNet.uav[13] utilizationEnergyMission 8104.7936286926
scalar OsgEarthNet.uav[13] utilizationEnergyMaintenance 5554.2329444885
scalar OsgEarthNet.uav[13] utilizationEnergyCharge 13658.083984375
scalar OsgEarthNet.uav[13] utilizationEnergyOverdrawMission 0
scalar OsgEarthNet.uav[13] utilizationEnergyOverdrawMaintenance 0
scalar OsgEarthNet.uav[13] utilizationCountMissions 3
scalar OsgEarthNet.uav[13] utilizationCountManeuversMission 61
scalar OsgEarthNet.uav[13] utilizationCountManeuversMaintenance 6
scalar OsgEarthNet.uav[13] utilizationCountChargeState 3
scalar OsgEarthNet.uav[13] utilizationCountOverdrawnAfterMission 0
scalar OsgEarthNet.uav[13] utilizationCountIdleState 4
scalar OsgEarthNet.uav[13] utilizationFail 0
scalar OsgEarthNet.uav[13] simulationTime 259200
scalar OsgEarthNet.uav[14] utilizationSecMission 8194.243887009
scalar OsgEarthNet.uav[14] utilizationSecMaintenance 5128.6063329695
scalar OsgEarthNet.uav[14] utilizationSecCharge 51346.299257575
scalar OsgEarthNet.uav[14] utilizationSecIdle 194530.84952245
scalar OsgEarthNet.uav[14] utilizationEnergyMission 39291.244972229
scalar OsgEarthNet.uav[14] utilizationEnergyMaintenance 24396.237304688
scalar OsgEarthNet.uav[14] utilizationEnergyCharge 63834.615722656
scalar OsgEarthNet.uav[14] utilizationEnergyOverdrawMission 0
scalar OsgEarthNet.uav[14] utilizationEnergyOverdrawMaintenance 0
scalar OsgEarthNet.uav[14] utilizationCountMissions 16
scalar OsgEarthNet.uav[14] utilizationCountManeuversMission 224
scalar OsgEarthNet.uav[14] utilizationCountManeuversMaintenance 32
scalar OsgEarthNet.uav[14] utilizationCountChargeState 16
scalar OsgEarthNet.uav[14] utilizationCountOverdrawnAfterMission 0
scalar OsgEarthNet.uav[14] utilizationCountIdleState 16
scalar OsgEarthNet.uav[14] utilizationFail 0
scalar OsgEarthNet.uav[14] simulationTime 259200
scalar OsgEarthNet.uav[15] utilizationSecMission 42583.087550676
scalar OsgEarthNet.uav[15] utilizationSecMaintenance 16678.06328953
scalar OsgEarthNet.uav[15] utilizationSecCharge 196340
scalar OsgEarthNet.uav[15] utilizationSecIdle 3598.8481597938
scalar OsgEarthNet.uav[15] utilizationEnergyMission 204054.17192565
scalar OsgEarthNet.uav[15] utilizationEnergyMaintenance 76356.997097015
scalar OsgEarthNet.uav[15] utilizationEnergyCharge 277422.38427734
scalar OsgEarthNet.uav[15] utilizationEnergyOverdrawMission 0
scalar OsgEarthNet.uav[15] utilizationEnergyOverdrawMaintenance 0
scalar OsgEarthNet.uav[15] utilizationCountMissions 60
scalar OsgEarthNet.uav[15] utilizationCountManeuversMission 1289
scalar OsgEarthNet.uav[15] utilizationCountManeuversMaintenance 121
scalar OsgEarthNet.uav[15] utilizationCountChargeState 60
scalar OsgEarthNet.uav[15] utilizationCountOverdrawnAfterMission 0
scalar OsgEarthNet.uav[15] utilizationCountIdleState 11
scalar OsgEarthNet.uav[15] utilizationFail 0
scalar OsgEarthNet.uav[15] simulationTime 259200
scalar OsgEarthNet.uav[16] utilizationSecMission 2440
scalar OsgEarthNet.uav[16] utilizationSecMaintenance 2236.8572076661
scalar OsgEarthNet.uav[16] utilizationSecCharge 17420
scalar OsgEarthNet.uav[16] utilizationSecIdle 237103.14179233
scalar OsgEarthNet.uav[16] utilizationEnergyMission 12488.951423645
scalar OsgEarthNet.uav[16] utilizationEnergyMaintenance 10431.790035248
scalar OsgEarthNet.uav[16] utilizationEnergyCharge 22422.040039062
scalar OsgEarthNet.uav[16] utilizationEnergyOverdrawMission 0
scalar OsgEarthNet.uav[16] utilizationEnergyOverdrawMaintenance 0
scalar OsgEarthNet.uav[16] utilizationCountMissions 5
scalar OsgEarthNet.uav[16] utilizationCountManeuversMission 122
scalar OsgEarthNet.uav[16] utilizationCountManeuversMaintenance 10
scalar OsgEarthNet.uav[16] utilizationCountChargeState 5
scalar OsgEarthNet.uav[16] utilizationCountOverdrawnAfterMission 0
scalar OsgEarthNet.uav[16] utilizationCountIdleState 6
scalar OsgEarthNet.uav[16] utilizationFail 0
scalar OsgEarthNet.uav[16] simulationTime 259200
scalar OsgEarthNet.uav[17] utilizationSecMission 9441.9572904854
scalar OsgEarthNet.uav[17] utilizationSecMaintenance 6868.0187659457
scalar OsgEarthNet.uav[17] utilizationSecCharge 64490
scalar OsgEarthNet.uav[17] utilizationSecIdle 178400.02294357
scalar OsgEarthNet.uav[17] utilizationEnergyMission 46472.065673828
scalar OsgEarthNet.uav[17] utilizationEnergyMaintenance 33200.187862396
scalar OsgEarthNet.uav[17] utilizationEnergyCharge 78262.107910156
scalar OsgEarthNet.uav[17] utilizationEnergyOverdrawMission 0
scalar OsgEarthNet.uav[17] utilizationEnergyOverdrawMaintenance 0
scalar OsgEarthNet.uav[17] utilizationCountMissions 21
scalar OsgEarthNet.uav[17] utilizationCountManeuversMission 300
scalar OsgEarthNet.uav[17] utilizationCountManeuversMaintenance 42
scalar OsgEarthNet.uav[17] utilizationCountChargeState 21
scalar OsgEarthNet.uav[17] utilizationCountOverdrawnAfterMission 0
scalar OsgEarthNet.uav[17] utilizationCountIdleState 22
scalar OsgEarthNet.uav[17] utilizationFail 0
scalar OsgEarthNet.uav[17] simulationTime 259200
scalar OsgEarthNet.uav[18] utilizationSecMission 40921.164288368
scalar OsgEarthNet.uav[18] utilizationSecMaintenance 17695.380316413
scalar OsgEarthNet.uav[18] utilizationSecCharge 197131.45039522
scalar OsgEarthNet.uav[18] utilizationSecIdle 3452.004
scalar OsgEarthNet.uav[18] utilizationEnergyMission 199046.28959274
scalar OsgEarthNet.uav[18] utilizationEnergyMaintenance 82241.847877502
scalar OsgEarthNet.uav[18] utilizationEnergyCharge 280540.15185547
scalar OsgEarthNet.uav[18] utilizationEnergyOverdrawMission 0
scalar OsgEarthNet.uav[18] utilizationEnergyOverdrawMaintenance 0
scalar OsgEarthNet.uav[18] utilizationCountMissions 61
scalar OsgEarthNet.uav[18] utilizationCountManeuversMission 1257
scalar OsgEarthNet.uav[18] utilizationCountManeuversMaintenance 122
scalar OsgEarthNet.uav[18] utilizationCountChargeState 61
scalar OsgEarthNet.uav[18] utilizationCountOverdrawnAfterMission 0
scalar OsgEarthNet.uav[18] utilizationCountIdleState 8
scalar OsgEarthNet.uav[18] utilizationFail 0
scalar OsgEarthNet.uav[18] simulationTime 259200
scalar OsgEarthNet.uav[19] utilizationSecMission 2001.2503051606
scalar OsgEarthNet.uav[19] utilizationSecMaintenance 920.89010471693
scalar OsgEarthNet.uav[19] utilizationSecCharge 10620
scalar OsgEarthNet.uav[19] utilizationSecIdle 245657.85859012
scalar OsgEarthNet.uav[19] utilizationEnergyMission 9712.525554657
scalar OsgEarthNet.uav[19] utilizationEnergyMaintenance 4430.2043495178
scalar OsgEarthNet.uav[19] utilizationEnergyCharge 13787.360839844
scalar OsgEarthNet.uav[19] utilizationEnergyOverdrawMission 0
scalar OsgEarthNet.uav[19] utilizationEnergyOverdrawMaintenance 0
scalar OsgEarthNet.uav[19] utilizationCountMissions 3
scalar OsgEarthNet.uav[19] utilizationCountManeuversMission 48
scalar OsgEarthNet.uav[19] utilizationCountManeuversMaintenance 6
scalar OsgEarthNet.uav[19] utilizationCountChargeState 3
scalar OsgEarthNet.uav[19] utilizationCountOverdrawnAfterMission 0
scalar OsgEarthNet.uav[19] utilizationCountIdleState 4
scalar OsgEarthNet.uav[19] utilizationFail 0
scalar OsgEarthNet.uav[19] simulationTime 259200
scalar OsgEarthNet.uav[20] utilizationSecMission 4433.383801652
scalar OsgEarthNet.uav[20] utilizationSecMaintenance 1642.0913793063
scalar OsgEarthNet.uav[20] utilizationSecCharge 21510
scalar OsgEarthNet.uav[20] utilizationSecIdle 231614.52381904
scalar OsgEarthNet.uav[20] utilizationEnergyMission 20491.879859924
scalar OsgEarthNet.uav[20] utilizationEnergyMaintenance 7889.6681900024
scalar OsgEarthNet.uav[20] utilizationEnergyCharge 27995.009277344
scalar OsgEarthNet.uav[20] utilizationEnergyOverdrawMission 0
scalar OsgEarthNet.uav[20] utilizationEnergyOverdrawMaintenance 0
scalar OsgEarthNet.uav[20] utilizationCountMissions 6
scalar OsgEarthNet.uav[20] utilizationCountManeuversMission 87
scalar OsgEarthNet.uav[20] utilizationCountManeuversMaintenance 12
scalar OsgEarthNet.uav[20] utilizationCountChargeState 6
scalar OsgEarthNet.uav[20] utilizationCountOverdrawnAfterMission 0
scalar OsgEarthNet.uav[20] utilizationCountIdleState 7
scalar OsgEarthNet.uav[20] utilizationFail 0
scalar OsgEarthNet.uav[20] simulationTime 259200
scalar OsgEarthNet.uav[21] utilizationSecMission 11310.593985133
scalar OsgEarthNet.uav[21] utilizationSecMaintenance 7291.975663533
scalar OsgEarthNet.uav[21] utilizationSecCharge 72280
scalar OsgEarthNet.uav[21] utilizationSecIdle 168317.42935133
scalar OsgEarthNet.uav[21] utilizationEnergyMission 54831.343261719
scalar OsgEarthNet.uav[21] utilizationEnergyMaintenance 34942.963794708
scalar OsgEarthNet.uav[21] utilizationEnergyCharge 90596.761962891
scalar OsgEarthNet.uav[21] utilizationEnergyOverdrawMission 0
scalar OsgEarthNet.uav[21] utilizationEnergyOverdrawMaintenance 0
scalar OsgEarthNet.uav[21] utilizationCountMissions 22
scalar OsgEarthNet.uav[21] utilizationCountManeuversMission 350
scalar OsgEarthNet.uav[21] utilizationCountManeuversMaintenance 44
scalar OsgEarthNet.uav[21] utilizationCountChargeState 22
scalar OsgEarthNet.uav[21] utilizationCountOverdrawnAfterMission 0
scalar OsgEarthNet.uav[21] utilizationCountIdleState 23
scalar OsgEarthNet.uav[21] utilizationFail 0
scalar OsgEarthNet.uav[21] simulationTime 259200
scalar OsgEarthNet.uav[22] utilizationSecMission 41806.084096601
scalar OsgEarthNet.uav[22] utilizationSecMaintenance 17817.948452407
scalar OsgEarthNet.uav[22] utilizationSecCharge 195535.92390358
scalar OsgEarthNet.uav[22] utilizationSecIdle 4040.0425474148
scalar OsgEarthNet.uav[22] utilizationEnergyMission 199129.17684555
scalar OsgEarthNet.uav[22] utilizationEnergyMaintenance 81143.304714203
scalar OsgEarthNet.uav[22] utilizationEnergyCharge 276057.0670166
scalar OsgEarthNet.uav[22] utilizationEnergyOverdrawMission 0
scalar OsgEarthNet.uav[22] utilizationEnergyOverdrawMaintenance 0
scalar OsgEarthNet.uav[22] utilizationCountMissions 61
scalar OsgEarthNet.uav[22] utilizationCountManeuversMission 1223
scalar OsgEarthNet.uav[22] utilizationCountManeuversMaintenance 122
scalar OsgEarthNet.uav[22] utilizationCountChargeState 61
scalar OsgEarthNet.uav[22] utilizationCountOverdrawnAfterMission 0
scalar OsgEarthNet.uav[22] utilizationCountIdleState 11
scalar OsgEarthNet.uav[22] utilizationFail 0
scalar OsgEarthNet.uav[22] simulationTime 259200
scalar OsgEarthNet.uav[23] utilizationSecMission 1860
scalar OsgEarthNet.uav[23] utilizationSecMaintenance 1789.4254808164
scalar OsgEarthNet.uav[23] utilizationSecCharge 13970
scalar OsgEarthNet.uav[23] utilizationSecIdle 241580.57351918
scalar OsgEarthNet.uav[23] utilizationEnergyMission 9279.3512039185
scalar OsgEarthNet.uav[23] utilizationEnergyMaintenance 8586.8436126709
scalar OsgEarthNet.uav[23] utilizationEnergyCharge 17896.008789062
scalar OsgEarthNet.uav[23] utilizationEnergyOverdrawMission 0
scalar OsgEarthNet.uav[23] utilizationEnergyOverdrawMaintenance 0
scalar OsgEarthNet.uav[23] utilizationCountMissions 4
scalar OsgEarthNet.uav[23] utilizationCountManeuversMission 93
scalar OsgEarthNet.uav[23] utilizationCountManeuversMaintenance 8
scalar OsgEarthNet.uav[23] utilizationCountChargeState 4
scalar OsgEarthNet.uav[23] utilizationCountOverdrawnAfterMission 0
scalar OsgEarthNet.uav[23] utilizationCountIdleState 5
scalar OsgEarthNet.uav[23] utilizationFail 0
scalar OsgEarthNet.uav[23] simulationTime 259200
scalar OsgEarthNet.uav[24] utilizationSecMission 9068.5550238645
scalar OsgEarthNet.uav[24] utilizationSecMaintenance 6595.5189155458
scalar OsgEarthNet.uav[24] utilizationSecCharge 61795.904786445
scalar OsgEarthNet.uav[24] utilizationSecIdle 181740.02027414
scalar OsgEarthNet.uav[24] utilizationEnergyMission 43853.057125092
scalar OsgEarthNet.uav[24] utilizationEnergyMaintenance 31068.864284515
scalar OsgEarthNet.uav[24] utilizationEnergyCharge 75505.366699219
scalar OsgEarthNet.uav[24] utilizationEnergyOverdrawMission 0
scalar OsgEarthNet.uav[24] utilizationEnergyOverdrawMaintenance 0
scalar OsgEarthNet.uav[24] utilizationCountMissions 20
scalar OsgEarthNet.uav[24] utilizationCountManeuversMission 289
scalar OsgEarthNet.uav[24] utilizationCountManeuversMaintenance 40
scalar OsgEarthNet.uav[24] utilizationCountChargeState 20
scalar OsgEarthNet.uav[24] utilizationCountOverdrawnAfterMission 0
scalar OsgEarthNet.uav[24] utilizationCountIdleState 20
scalar OsgEarthNet.uav[24] utilizationFail 0
scalar OsgEarthNet.uav[24] simulationTime 259200
scalar OsgEarthNet.uav[25] utilizationSecMission 41970.354858986
scalar OsgEarthNet.uav[25] utilizationSecMaintenance 17279.603549561
scalar OsgEarthNet.uav[25] utilizationSecCharge 196528.03759145
scalar OsgEarthNet.uav[25] utilizationSecIdle 3422.003
scalar OsgEarthNet.uav[25] utilizationEnergyMission 205367.78063965
scalar OsgEarthNet.uav[25] utilizationEnergyMaintenance 79071.900402069
scalar OsgEarthNet.uav[25] utilizationEnergyCharge 277944.72674561
scalar OsgEarthNet.uav[25] utilizationEnergyOverdrawMission 0
scalar OsgEarthNet.uav[25] utilizationEnergyOverdrawMaintenance 0
scalar OsgEarthNet.uav[25] utilizationCountMissions 61
scalar OsgEarthNet.uav[25] utilizationCountManeuversMission 1269
scalar OsgEarthNet.uav[25] utilizationCountManeuversMaintenance 122
scalar OsgEarthNet.uav[25] utilizationCountChargeState 61
scalar OsgEarthNet.uav[25] utilizationCountOverdrawnAfterMission 0
scalar OsgEarthNet.uav[25] utilizationCountIdleState 13
scalar OsgEarthNet.uav[25] utilizationFail 0
scalar OsgEarthNet.uav[25] simulationTime 259200
scalar OsgEarthNet.uav[26] utilizationSecMission 11963.750915482
scalar OsgEarthNet.uav[26] utilizationSecMaintenance 8579.8254297378
scalar OsgEarthNet.uav[26] utilizationSecCharge 77004.42065478
scalar OsgEarthNet.uav[26] utilizationSecIdle 161652.002
scalar OsgEarthNet.uav[26] utilizationEnergyMission 59302.332954407
scalar OsgEarthNet.uav[26] utilizationEnergyMaintenance 40863.012672424
scalar OsgEarthNet.uav[26] utilizationEnergyCharge 99691.706542969
scalar OsgEarthNet.uav[26] utilizationEnergyOverdrawMission 0
scalar OsgEarthNet.uav[26] utilizationEnergyOverdrawMaintenance 0
scalar OsgEarthNet.uav[26] utilizationCountMissions 22
scalar OsgEarthNet.uav[26] utilizationCountManeuversMission 442
scalar OsgEarthNet.uav[26] utilizationCountManeuversMaintenance 44
scalar OsgEarthNet.uav[26] utilizationCountChargeState 22
scalar OsgEarthNet.uav[26] utilizationCountOverdrawnAfterMission 0
scalar OsgEarthNet.uav[26] utilizationCountIdleState 22
scalar OsgEarthNet.uav[26] utilizationFail 0
scalar OsgEarthNet.uav[26] simulationTime 259200
scalar OsgEarthNet.uav[27] utilizationSecMission 8618.8026591191
scalar OsgEarthNet.uav[27] utilizationSecMaintenance 6146.6986272155
scalar OsgEarthNet.uav[27] utilizationSecCharge 57070
scalar OsgEarthNet.uav[27] utilizationSecIdle 187364.49771367
scalar OsgEarthNet.uav[27] utilizationEnergyMission 42403.912063599
scalar OsgEarthNet.uav[27] utilizationEnergyMaintenance 29177.040512085
scalar OsgEarthNet.uav[27] utilizationEnergyCharge 70413.850341797
scalar OsgEarthNet.uav[27] utilizationEnergyOverdrawMission 0
scalar OsgEarthNet.uav[27] utilizationEnergyOverdrawMaintenance 0
scalar OsgEarthNet.uav[27] utilizationCountMissions 18
scalar OsgEarthNet.uav[27] utilizationCountManeuversMission 304
scalar OsgEarthNet.uav[27] utilizationCountManeuversMaintenance 36
scalar OsgEarthNet.uav[27] utilizationCountChargeState 18
scalar OsgEarthNet.uav[27] utilizationCountOverdrawnAfterMission 0
scalar OsgEarthNet.uav[27] utilizationCountIdleState 19
scalar OsgEarthNet.uav[27] utilizationFail 0
scalar OsgEarthNet.uav[27] simulationTime 259200
scalar OsgEarthNet.uav[28] utilizationSecMission 42567.140371041
scalar OsgEarthNet.uav[28] utilizationSecMaintenance 17120.856628959
scalar OsgEarthNet.uav[28] utilizationSecCharge 198140
scalar OsgEarthNet.uav[28] utilizationSecIdle 1372.002
scalar OsgEarthNet.uav[28] utilizationEnergyMission 206685.63152558
scalar OsgEarthNet.uav[28] utilizationEnergyMaintenance 78468.4672966
scalar OsgEarthNet.uav[28] utilizationEnergyCharge 280517.91162109
scalar OsgEarthNet.uav[28] utilizationEnergyOverdrawMission 0
scalar OsgEarthNet.uav[28] utilizationEnergyOverdrawMaintenance 0
scalar OsgEarthNet.uav[28] utilizationCountMissions 61
scalar OsgEarthNet.uav[28] utilizationCountManeuversMission 1255
scalar OsgEarthNet.uav[28] utilizationCountManeuversMaintenance 123
scalar OsgEarthNet.uav[28] utilizationCountChargeState 61
scalar OsgEarthNet.uav[28] utilizationCountOverdrawnAfterMission 0
scalar OsgEarthNet.uav[28] utilizationCountIdleState 7
scalar OsgEarthNet.uav[28] utilizationFail 0
scalar OsgEarthNet.uav[28] simulationTime 259200
scalar OsgEarthNet.uav[29] utilizationSecMission 17474.113405114
scalar OsgEarthNet.uav[29] utilizationSecMaintenance 10907.101085504
scalar OsgEarthNet.uav[29] utilizationSecCharge 105910
scalar OsgEarthNet.uav[29] utilizationSecIdle 124908.78450938
scalar OsgEarthNet.uav[29] utilizationEnergyMission 85741.919834137
scalar OsgEarthNet.uav[29] utilizationEnergyMaintenance 52003.781471252
scalar OsgEarthNet.uav[29] utilizationEnergyCharge 136756.37695312
scalar OsgEarthNet.uav[29] utilizationEnergyOverdrawMission 0
scalar OsgEarthNet.uav[29] utilizationEnergyOverdrawMaintenance 0
scalar OsgEarthNet.uav[29] utilizationCountMissions 30
scalar OsgEarthNet.uav[29] utilizationCountManeuversMission 580
scalar OsgEarthNet.uav[29] utilizationCountManeuversMaintenance 59
scalar OsgEarthNet.uav[29] utilizationCountChargeState 30
scalar OsgEarthNet.uav[29] utilizationCountOverdrawnAfterMission 0
scalar OsgEarthNet.uav[29] utilizationCountIdleState 31
scalar OsgEarthNet.uav[29] utilizationFail 0
scalar OsgEarthNet.uav[29] simulationTime 259200
scalar OsgEarthNet.uav[30] utilizationSecMission 13104.376068062
scalar OsgEarthNet.uav[30] utilizationSecMaintenance 9220.4634289316
scalar OsgEarthNet.uav[30] utilizationSecCharge 82465.216234306
scalar OsgEarthNet.uav[30] utilizationSecIdle 154409.9432687
scalar OsgEarthNet.uav[30] utilizationEnergyMission 65552.555233002
scalar OsgEarthNet.uav[30] utilizationEnergyMaintenance 43515.682861328
scalar OsgEarthNet.uav[30] utilizationEnergyCharge 107046.76147461
scalar OsgEarthNet.uav[30] utilizationEnergyOverdrawMission 0
scalar OsgEarthNet.uav[30] utilizationEnergyOverdrawMaintenance 0
scalar OsgEarthNet.uav[30] utilizationCountMissions 24
scalar OsgEarthNet.uav[30] utilizationCountManeuversMission 473
scalar OsgEarthNet.uav[30] utilizationCountManeuversMaintenance 48
scalar OsgEarthNet.uav[30] utilizationCountChargeState 24
scalar OsgEarthNet.uav[30] utilizationCountOverdrawnAfterMission 0
scalar OsgEarthNet.uav[30] utilizationCountIdleState 24
scalar OsgEarthNet.uav[30] utilizationFail 0
scalar OsgEarthNet.uav[30] simulationTime 259200
scalar OsgEarthNet.uav[31] utilizationSecMission 9569.2570942364
scalar OsgEarthNet.uav[31] utilizationSecMaintenance 7307.3307335808
scalar OsgEarthNet.uav[31] utilizationSecCharge 67310
scalar OsgEarthNet.uav[31] utilizationSecIdle 175013.41117218
scalar OsgEarthNet.uav[31] utilizationEnergyMission 46523.49332428
scalar OsgEarthNet.uav[31] utilizationEnergyMaintenance 34322.725246429
scalar OsgEarthNet.uav[31] utilizationEnergyCharge 83356.654052734
scalar OsgEarthNet.uav[31] utilizationEnergyOverdrawMission 0
scalar OsgEarthNet.uav[31] utilizationEnergyOverdrawMaintenance 0
scalar OsgEarthNet.uav[31] utilizationCountMissions 21
scalar OsgEarthNet.uav[31] utilizationCountManeuversMission 366
scalar OsgEarthNet.uav[31] utilizationCountManeuversMaintenance 42
scalar OsgEarthNet.uav[31] utilizationCountChargeState 21
scalar OsgEarthNet.uav[31] utilizationCountOverdrawnAfterMission 0
scalar OsgEarthNet.uav[31] utilizationCountIdleState 22
scalar OsgEarthNet.uav[31] utilizationFail 0
scalar OsgEarthNet.uav[31] simulationTime 259200
scalar OsgEarthNet.uav[32] utilizationSecMission 41052.687258015
scalar OsgEarthNet.uav[32] utilizationSecMaintenance 18619.155781612
scalar OsgEarthNet.uav[32] utilizationSecCharge 198766.15596037
scalar OsgEarthNet.uav[32] utilizationSecIdle 762
scalar OsgEarthNet.uav[32] utilizationEnergyMission 199342.27613831
scalar OsgEarthNet.uav[32] utilizationEnergyMaintenance 85585.822257996
scalar OsgEarthNet.uav[32] utilizationEnergyCharge 283629.51123047
scalar OsgEarthNet.uav[32] utilizationEnergyOverdrawMission 0
scalar OsgEarthNet.uav[32] utilizationEnergyOverdrawMaintenance 0
scalar OsgEarthNet.uav[32] utilizationCountMissions 62
scalar OsgEarthNet.uav[32] utilizationCountManeuversMission 1211
scalar OsgEarthNet.uav[32] utilizationCountManeuversMaintenance 124
scalar OsgEarthNet.uav[32] utilizationCountChargeState 62
scalar OsgEarthNet.uav[32] utilizationCountOverdrawnAfterMission 0
scalar OsgEarthNet.uav[32] utilizationCountIdleState 9
scalar OsgEarthNet.uav[32] utilizationFail 0
scalar OsgEarthNet.uav[32] simulationTime 259200
scalar OsgEarthNet.uav[33] utilizationSecMission 14145.626373223
scalar OsgEarthNet.uav[33] utilizationSecMaintenance 9159.384060147
scalar OsgEarthNet.uav[33] utilizationSecCharge 87650
scalar OsgEarthNet.uav[33] utilizationSecIdle 148244.98856663
scalar OsgEarthNet.uav[33] utilizationEnergyMission 69823.929954529
scalar OsgEarthNet.uav[33] utilizationEnergyMaintenance 43536.096019745
scalar OsgEarthNet.uav[33] utilizationEnergyCharge 112911.34570312
scalar OsgEarthNet.uav[33] utilizationEnergyOverdrawMission 0
scalar OsgEarthNet.uav[33] utilizationEnergyOverdrawMaintenance 0
scalar OsgEarthNet.uav[33] utilizationCountMissions 25
scalar OsgEarthNet.uav[33] utilizationCountManeuversMission 473
scalar OsgEarthNet.uav[33] utilizationCountManeuversMaintenance 50
scalar OsgEarthNet.uav[33] utilizationCountChargeState 25
scalar OsgEarthNet.uav[33] utilizationCountOverdrawnAfterMission 0
scalar OsgEarthNet.uav[33] utilizationCountIdleState 26
scalar OsgEarthNet.uav[33] utilizationFail 0
scalar OsgEarthNet.uav[33] simulationTime 259200
scalar OsgEarthNet.uav[34] utilizationSecMission 21928.678512857
scalar OsgEarthNet.uav[34] utilizationSecMaintenance 14588.047608548
scalar OsgEarthNet.uav[34] utilizationSecCharge 141970
scalar OsgEarthNet.uav[34] utilizationSecIdle 80713.272878595
scalar OsgEarthNet.uav[34] utilizationEnergyMission 106789.07186508
scalar OsgEarthNet.uav[34] utilizationEnergyMaintenance 69946.116287231
scalar OsgEarthNet.uav[34] utilizationEnergyCharge 176691.55786133
scalar OsgEarthNet.uav[34] utilizationEnergyOverdrawMission 0
scalar OsgEarthNet.uav[34] utilizationEnergyOverdrawMaintenance 0
scalar OsgEarthNet.uav[34] utilizationCountMissions 44
scalar OsgEarthNet.uav[34] utilizationCountManeuversMission 699
scalar OsgEarthNet.uav[34] utilizationCountManeuversMaintenance 87
scalar OsgEarthNet.uav[34] utilizationCountChargeState 44
scalar OsgEarthNet.uav[34] utilizationCountOverdrawnAfterMission 0
scalar OsgEarthNet.uav[34] utilizationCountIdleState 45
scalar OsgEarthNet.uav[34] utilizationFail 0
scalar OsgEarthNet.uav[34] simulationTime 259200
scalar OsgEarthNet.uav[35] utilizationSecMission 42088.256801011
scalar OsgEarthNet.uav[35] utilizationSecMaintenance 17671.787491073
scalar OsgEarthNet.uav[35] utilizationSecCharge 197757.95370792
scalar OsgEarthNet.uav[35] utilizationSecIdle 1682.001
scalar OsgEarthNet.uav[35] utilizationEnergyMission 200906.00041199
scalar OsgEarthNet.uav[35] utilizationEnergyMaintenance 82362.314220428
scalar OsgEarthNet.uav[35] utilizationEnergyCharge 280484.22241211
scalar OsgEarthNet.uav[35] utilizationEnergyOverdrawMission 0
scalar OsgEarthNet.uav[35] utilizationEnergyOverdrawMaintenance 0
scalar OsgEarthNet.uav[35] utilizationCountMissions 61
scalar OsgEarthNet.uav[35] utilizationCountManeuversMission 1173
scalar OsgEarthNet.uav[35] utilizationCountManeuversMaintenance 122
scalar OsgEarthNet.uav[35] utilizationCountChargeState 61
scalar OsgEarthNet.uav[35] utilizationCountOverdrawnAfterMission 0
scalar OsgEarthNet.uav[35] utilizationCountIdleState 11
scalar OsgEarthNet.uav[35] utilizationFail 0
scalar OsgEarthNet.uav[35] simulationTime 259200
scalar OsgEarthNet.uav[36] utilizationSecMission 19628.752136124
scalar OsgEarthNet.uav[36] utilizationSecMaintenance 11729.712257285
scalar OsgEarthNet.uav[36] utilizationSecCharge 116140
scalar OsgEarthNet.uav[36] utilizationSecIdle 111701.53460659
scalar OsgEarthNet.uav[36] utilizationEnergyMission 95239.933616638
scalar OsgEarthNet.uav[36] utilizationEnergyMaintenance 55693.440685272
scalar OsgEarthNet.uav[36] utilizationEnergyCharge 149721.85498047
scalar OsgEarthNet.uav[36] utilizationEnergyOverdrawMission 0
scalar OsgEarthNet.uav[36] utilizationEnergyOverdrawMaintenance 0
scalar OsgEarthNet.uav[36] utilizationCountMissions 33
scalar OsgEarthNet.uav[36] utilizationCountManeuversMission 617
scalar OsgEarthNet.uav[36] utilizationCountManeuversMaintenance 66
scalar OsgEarthNet.uav[36] utilizationCountChargeState 33
scalar OsgEarthNet.uav[36] utilizationCountOverdrawnAfterMission 0
scalar OsgEarthNet.uav[36] utilizationCountIdleState 34
scalar OsgEarthNet.uav[36] utilizationFail 0
scalar OsgEarthNet.uav[36] simulationTime 259200
scalar OsgEarthNet.uav[37] utilizationSecMission 14224.905121989
scalar OsgEarthNet.uav[37] utilizationSecMaintenance 10330.351084273
scalar OsgEarthNet.uav[37] utilizationSecCharge 96540
scalar OsgEarthNet.uav[37] utilizationSecIdle 138104.74279374
scalar OsgEarthNet.uav[37] utilizationEnergyMission 69567.158798218
scalar OsgEarthNet.uav[37] utilizationEnergyMaintenance 49360.459278107
scalar OsgEarthNet.uav[37] utilizationEnergyCharge 119873.95898438
scalar OsgEarthNet.uav[37] utilizationEnergyOverdrawMission 0
scalar OsgEarthNet.uav[37] utilizationEnergyOverdrawMaintenance 0
scalar OsgEarthNet.uav[37] utilizationCountMissions 30
scalar OsgEarthNet.uav[37] utilizationCountManeuversMission 517
scalar OsgEarthNet.uav[37] utilizationCountManeuversMaintenance 60
scalar OsgEarthNet.uav[37] utilizationCountChargeState 30
scalar OsgEarthNet.uav[37] utilizationCountOverdrawnAfterMission 0
scalar OsgEarthNet.uav[37] utilizationCountIdleState 31
scalar OsgEarthNet.uav[37] utilizationFail 0
scalar OsgEarthNet.uav[37] simulationTime 259200
scalar OsgEarthNet.uav[38] utilizationSecMission 41006.153943581
scalar OsgEarthNet.uav[38] utilizationSecMaintenance 18493.463987195
scalar OsgEarthNet.uav[38] utilizationSecCharge 197991.20595881
scalar OsgEarthNet.uav[38] utilizationSecIdle 1709.1751104107
scalar OsgEarthNet.uav[38] utilizationEnergyMission 197556.22122192
scalar OsgEarthNet.uav[38] utilizationEnergyMaintenance 85169.405433655
scalar OsgEarthNet.uav[38] utilizationEnergyCharge 283104.42626953
scalar OsgEarthNet.uav[38] utilizationEnergyOverdrawMission 0
scalar OsgEarthNet.uav[38] utilizationEnergyOverdrawMaintenance 0
scalar OsgEarthNet.uav[38] utilizationCountMissions 62
scalar OsgEarthNet.uav[38] utilizationCountManeuversMission 1258
scalar OsgEarthNet.uav[38] utilizationCountManeuversMaintenance 124
scalar OsgEarthNet.uav[38] utilizationCountChargeState 62
scalar OsgEarthNet.uav[38] utilizationCountOverdrawnAfterMission 0
scalar OsgEarthNet.uav[38] utilizationCountIdleState 5
scalar OsgEarthNet.uav[38] utilizationFail 0
scalar OsgEarthNet.uav[38] simulationTime 259200
scalar OsgEarthNet.uav[39] utilizationSecMission 16097.759869714
scalar OsgEarthNet.uav[39] utilizationSecMaintenance 9345.7862859176
scalar OsgEarthNet.uav[39] utilizationSecCharge 94020
scalar OsgEarthNet.uav[39] utilizationSecIdle 139736.45284437
scalar OsgEarthNet.uav[39] utilizationEnergyMission 76258.319892883
scalar OsgEarthNet.uav[39] utilizationEnergyMaintenance 44218.852695465
scalar OsgEarthNet.uav[39] utilizationEnergyCharge 120503.6015625
scalar OsgEarthNet.uav[39] utilizationEnergyOverdrawMission 0
scalar OsgEarthNet.uav[39] utilizationEnergyOverdrawMaintenance 0
scalar OsgEarthNet.uav[39] utilizationCountMissions 27
scalar OsgEarthNet.uav[39] utilizationCountManeuversMission 488
scalar OsgEarthNet.uav[39] utilizationCountManeuversMaintenance 54
scalar OsgEarthNet.uav[39] utilizationCountChargeState 27
scalar OsgEarthNet.uav[39] utilizationCountOverdrawnAfterMission 0
scalar OsgEarthNet.uav[39] utilizationCountIdleState 28
scalar OsgEarthNet.uav[39] utilizationFail 0
scalar OsgEarthNet.uav[39] simulationTime 259200
scalar OsgEarthNet.uav[40] utilizationSecMission 16845.626373223
scalar OsgEarthNet.uav[40] utilizationSecMaintenance 11843.974421245
scalar OsgEarthNet.uav[40] utilizationSecCharge 107298.38220553
scalar OsgEarthNet.uav[40] utilizationSecIdle 123212.016
scalar OsgEarthNet.uav[40] utilizationEnergyMission 81988.72170639
scalar OsgEarthNet.uav[40] utilizationEnergyMaintenance 56341.666248321
scalar OsgEarthNet.uav[40] utilizationEnergyCharge 139375.99243164
scalar OsgEarthNet.uav[40] utilizationEnergyOverdrawMission 0
scalar OsgEarthNet.uav[40] utilizationEnergyOverdrawMaintenance 0
scalar OsgEarthNet.uav[40] utilizationCountMissions 31
scalar OsgEarthNet.uav[40] utilizationCountManeuversMission 608
scalar OsgEarthNet.uav[40] utilizationCountManeuversMaintenance 62
scalar OsgEarthNet.uav[40] utilizationCountChargeState 31
scalar OsgEarthNet.uav[40] utilizationCountOverdrawnAfterMission 0
scalar OsgEarthNet.uav[40] utilizationCountIdleState 31
scalar OsgEarthNet.uav[40] utilizationFail 0
scalar OsgEarthNet.uav[40] simulationTime 259200
scalar OsgEarthNet.uav[41] utilizationSecMission 14444.203051617
scalar OsgEarthNet.uav[41] utilizationSecMaintenance 9994.2210805237
scalar OsgEarthNet.uav[41] utilizationSecCharge 95050
scalar OsgEarthNet.uav[41] utilizationSecIdle 139711.57486786
scalar OsgEarthNet.uav[41] utilizationEnergyMission 69501.88224411
scalar OsgEarthNet.uav[41] utilizationEnergyMaintenance 47575.932350159
scalar OsgEarthNet.uav[41] utilizationEnergyCharge 117042.75170898
scalar OsgEarthNet.uav[41] utilizationEnergyOverdrawMission 0
scalar OsgEarthNet.uav[41] utilizationEnergyOverdrawMaintenance 0
scalar OsgEarthNet.uav[41] utilizationCountMissions 30
scalar OsgEarthNet.uav[41] utilizationCountManeuversMission 476
scalar OsgEarthNet.uav[41] utilizationCountManeuversMaintenance 60
scalar OsgEarthNet.uav[41] utilizationCountChargeState 30
scalar OsgEarthNet.uav[41] utilizationCountOverdrawnAfterMission 0
scalar OsgEarthNet.uav[41] utilizationCountIdleState 31
scalar OsgEarthNet.uav[41] utilizationFail 0
scalar OsgEarthNet.uav[41] simulationTime 259200
scalar OsgEarthNet.uav[42] utilizationSecMission 40223.601054511
scalar OsgEarthNet.uav[42] utilizationSecMaintenance 18567.28013635
scalar OsgEarthNet.uav[42] utilizationSecCharge 196173.09454114
scalar OsgEarthNet.uav[42] utilizationSecIdle 4236.0232680012
scalar OsgEarthNet.uav[42] utilizationEnergyMission 196696.80760956
scalar OsgEarthNet.uav[42] utilizationEnergyMaintenance 85736.93239212
scalar OsgEarthNet.uav[42] utilizationEnergyCharge 279652.60644531
scalar OsgEarthNet.uav[42] utilizationEnergyOverdrawMission 0
scalar OsgEarthNet.uav[42] utilizationEnergyOverdrawMaintenance 0
scalar OsgEarthNet.uav[42] utilizationCountMissions 62
scalar OsgEarthNet.uav[42] utilizationCountManeuversMission 1318
scalar OsgEarthNet.uav[42] utilizationCountManeuversMaintenance 124
scalar OsgEarthNet.uav[42] utilizationCountChargeState 62
scalar OsgEarthNet.uav[42] utilizationCountOverdrawnAfterMission 0
scalar OsgEarthNet.uav[42] utilizationCountIdleState 10
scalar OsgEarthNet.uav[42] utilizationFail 0
scalar OsgEarthNet.uav[42] simulationTime 259200
scalar OsgEarthNet.uav[43] utilizationSecMission 18570.002441285
scalar OsgEarthNet.uav[43] utilizationSecMaintenance 9966.3134274862
scalar OsgEarthNet.uav[43] utilizationSecCharge 105440
scalar OsgEarthNet.uav[43] utilizationSecIdle 125223.68313123
scalar OsgEarthNet.uav[43] utilizationEnergyMission 87978.597042084
scalar OsgEarthNet.uav[43] utilizationEnergyMaintenance 47422.668434143
scalar OsgEarthNet.uav[43] utilizationEnergyCharge 135917.34326172
scalar OsgEarthNet.uav[43] utilizationEnergyOverdrawMission 0
scalar OsgEarthNet.uav[43] utilizationEnergyOverdrawMaintenance 0
scalar OsgEarthNet.uav[43] utilizationCountMissions 30
scalar OsgEarthNet.uav[43] utilizationCountManeuversMission 512
scalar OsgEarthNet.uav[43] utilizationCountManeuversMaintenance 60
scalar OsgEarthNet.uav[43] utilizationCountChargeState 30
scalar OsgEarthNet.uav[43] utilizationCountOverdrawnAfterMission 0
scalar OsgEarthNet.uav[43] utilizationCountIdleState 31
scalar OsgEarthNet.uav[43] utilizationFail 0
scalar OsgEarthNet.uav[43] simulationTime 259200
scalar OsgEarthNet.uav[44] utilizationSecMission 19686.242012886
scalar OsgEarthNet.uav[44] utilizationSecMaintenance 13063.604940405
scalar OsgEarthNet.uav[44] utilizationSecCharge 126110
scalar OsgEarthNet.uav[44] utilizationSecIdle 100340.15204671
scalar OsgEarthNet.uav[44] utilizationEnergyMission 96777.938163757
scalar OsgEarthNet.uav[44] utilizationEnergyMaintenance 62188.445899963
scalar OsgEarthNet.uav[44] utilizationEnergyCharge 158729.22119141
scalar OsgEarthNet.uav[44] utilizationEnergyOverdrawMission 0
scalar OsgEarthNet.uav[44] utilizationEnergyOverdrawMaintenance 0
scalar OsgEarthNet.uav[44] utilizationCountMissions 38
scalar OsgEarthNet.uav[44] utilizationCountManeuversMission 687
scalar OsgEarthNet.uav[44] utilizationCountManeuversMaintenance 76
scalar OsgEarthNet.uav[44] utilizationCountChargeState 38
scalar OsgEarthNet.uav[44] utilizationCountOverdrawnAfterMission 0
scalar OsgEarthNet.uav[44] utilizationCountIdleState 39
scalar OsgEarthNet.uav[44] utilizationFail 0
scalar OsgEarthNet.uav[44] simulationTime 259200
scalar OsgEarthNet.uav[45] utilizationSecMission 41296.271336352
scalar OsgEarthNet.uav[45] utilizationSecMaintenance 18591.759402734
scalar OsgEarthNet.uav[45] utilizationSecCharge 197429.96626091
scalar OsgEarthNet.uav[45] utilizationSecIdle 1882.002
scalar OsgEarthNet.uav[45] utilizationEnergyMission 200716.35396576
scalar OsgEarthNet.uav[45] utilizationEnergyMaintenance 84684.635353088
scalar OsgEarthNet.uav[45] utilizationEnergyCharge 283092.21875
scalar OsgEarthNet.uav[45] utilizationEnergyOverdrawMission 0
scalar OsgEarthNet.uav[45] utilizationEnergyOverdrawMaintenance 0
scalar OsgEarthNet.uav[45] utilizationCountMissions 62
scalar OsgEarthNet.uav[45] utilizationCountManeuversMission 1353
scalar OsgEarthNet.uav[45] utilizationCountManeuversMaintenance 124
scalar OsgEarthNet.uav[45] utilizationCountChargeState 62
scalar OsgEarthNet.uav[45] utilizationCountOverdrawnAfterMission 0
scalar OsgEarthNet.uav[45] utilizationCountIdleState 9
scalar OsgEarthNet.uav[45] utilizationFail 0
scalar OsgEarthNet.uav[45] simulationTime 259200
scalar OsgEarthNet.uav[46] utilizationSecMission 19539.119249954
scalar OsgEarthNet.uav[46] utilizationSecMaintenance 11246.456774422
scalar OsgEarthNet.uav[46] utilizationSecCharge 113092.41897562
scalar OsgEarthNet.uav[46] utilizationSecIdle 115322.004
scalar OsgEarthNet.uav[46] utilizationEnergyMission 94716.727005005
scalar OsgEarthNet.uav[46] utilizationEnergyMaintenance 53726.331554413
scalar OsgEarthNet.uav[46] utilizationEnergyCharge 146033.80151367
scalar OsgEarthNet.uav[46] utilizationEnergyOverdrawMission 0
scalar OsgEarthNet.uav[46] utilizationEnergyOverdrawMaintenance 0
scalar OsgEarthNet.uav[46] utilizationCountMissions 33
scalar OsgEarthNet.uav[46] utilizationCountManeuversMission 591
scalar OsgEarthNet.uav[46] utilizationCountManeuversMaintenance 66
scalar OsgEarthNet.uav[46] utilizationCountChargeState 33
scalar OsgEarthNet.uav[46] utilizationCountOverdrawnAfterMission 0
scalar OsgEarthNet.uav[46] utilizationCountIdleState 33
scalar OsgEarthNet.uav[46] utilizationFail 0
scalar OsgEarthNet.uav[46] simulationTime 259200
scalar OsgEarthNet.uav[47] utilizationSecMission 21992.839746265
scalar OsgEarthNet.uav[47] utilizationSecMaintenance 14758.446147429
scalar OsgEarthNet.uav[47] utilizationSecCharge 138116.71310631
scalar OsgEarthNet.uav[47] utilizationSecIdle 84332
scalar OsgEarthNet.uav[47] utilizationEnergyMission 108104.64300919
scalar OsgEarthNet.uav[47] utilizationEnergyMaintenance 69846.579154968
scalar OsgEarthNet.uav[47] utilizationEnergyCharge 175000.82263184
scalar OsgEarthNet.uav[47] utilizationEnergyOverdrawMission 0
scalar OsgEarthNet.uav[47] utilizationEnergyOverdrawMaintenance 0
scalar OsgEarthNet.uav[47] utilizationCountMissions 42
scalar OsgEarthNet.uav[47] utilizationCountManeuversMission 810
scalar OsgEarthNet.uav[47] utilizationCountManeuversMaintenance 84
scalar OsgEarthNet.uav[47] utilizationCountChargeState 42
scalar OsgEarthNet.uav[47] utilizationCountOverdrawnAfterMission 0
scalar OsgEarthNet.uav[47] utilizationCountIdleState 42
scalar OsgEarthNet.uav[47] utilizationFail 0
scalar OsgEarthNet.uav[47] simulationTime 259200
scalar OsgEarthNet.uav[48] utilizationSecMission 40180.374695484
scalar OsgEarthNet.uav[48] utilizationSecMaintenance 18410.165956427
scalar OsgEarthNet.uav[48] utilizationSecCharge 196840
scalar OsgEarthNet.uav[48] utilizationSecIdle 3769.4583480894
scalar OsgEarthNet.uav[48] utilizationEnergyMission 196829.22009742
scalar OsgEarthNet.uav[48] utilizationEnergyMaintenance 85417.093479157
scalar OsgEarthNet.uav[48] utilizationEnergyCharge 279581.69140625
scalar OsgEarthNet.uav[48] utilizationEnergyOverdrawMission 0
scalar OsgEarthNet.uav[48] utilizationEnergyOverdrawMaintenance 0
scalar OsgEarthNet.uav[48] utilizationCountMissions 61
scalar OsgEarthNet.uav[48] utilizationCountManeuversMission 1295
scalar OsgEarthNet.uav[48] utilizationCountManeuversMaintenance 123
scalar OsgEarthNet.uav[48] utilizationCountChargeState 61
scalar OsgEarthNet.uav[48] utilizationCountOverdrawnAfterMission 0
scalar OsgEarthNet.uav[48] utilizationCountIdleState 13
scalar OsgEarthNet.uav[48] utilizationFail 0
scalar OsgEarthNet.uav[48] simulationTime 259200
scalar OsgEarthNet.uav[49] utilizationSecMission 22019.119249954
scalar OsgEarthNet.uav[49] utilizationSecMaintenance 13658.350052609
scalar OsgEarthNet.uav[49] utilizationSecCharge 132750
scalar OsgEarthNet.uav[49] utilizationSecIdle 90772.529697437
scalar OsgEarthNet.uav[49] utilizationEnergyMission 105462.03621292
scalar OsgEarthNet.uav[49] utilizationEnergyMaintenance 64498.953193664
scalar OsgEarthNet.uav[49] utilizationEnergyCharge 170696.81298828
scalar OsgEarthNet.uav[49] utilizationEnergyOverdrawMission 0
scalar OsgEarthNet.uav[49] utilizationEnergyOverdrawMaintenance 0
scalar OsgEarthNet.uav[49] utilizationCountMissions 38
scalar OsgEarthNet.uav[49] utilizationCountManeuversMission 715
scalar OsgEarthNet.uav[49] utilizationCountManeuversMaintenance 76
scalar OsgEarthNet.uav[49] utilizationCountChargeState 38
scalar OsgEarthNet.uav[49] utilizationCountOverdrawnAfterMission 0
scalar OsgEarthNet.uav[49] utilizationCountIdleState 39
scalar OsgEarthNet.uav[49] utilizationFail 0
scalar OsgEarthNet.uav[49] simulationTime 259200
scalar OsgEarthNet.uav[50] utilizationSecMission 20239.119249954
scalar OsgEarthNet.uav[50] utilizationSecMaintenance 11693.888501272
scalar OsgEarthNet.uav[50] utilizationSecCharge 116367.54652192
scalar OsgEarthNet.uav[50] utilizationSecIdle 110899.44472685
scalar OsgEarthNet.uav[50] utilizationEnergyMission 98703.798553467
scalar OsgEarthNet.uav[50] utilizationEnergyMaintenance 54918.934043884
scalar OsgEarthNet.uav[50] utilizationEnergyCharge 150289.5279541
scalar OsgEarthNet.uav[50] utilizationEnergyOverdrawMission 0
scalar OsgEarthNet.uav[50] utilizationEnergyOverdrawMaintenance 0
scalar OsgEarthNet.uav[50] utilizationCountMissions 34
scalar OsgEarthNet.uav[50] utilizationCountManeuversMission 626
scalar OsgEarthNet.uav[50] utilizationCountManeuversMaintenance 68
scalar OsgEarthNet.uav[50] utilizationCountChargeState 34
scalar OsgEarthNet.uav[50] utilizationCountOverdrawnAfterMission 0
scalar OsgEarthNet.uav[50] utilizationCountIdleState 34
scalar OsgEarthNet.uav[50] utilizationFail 0
scalar OsgEarthNet.uav[50] simulationTime 259200
scalar OsgEarthNet.uav[51] utilizationSecMission 18127.564482846
scalar OsgEarthNet.uav[51] utilizationSecMaintenance 13570.190308245
scalar OsgEarthNet.uav[51] utilizationSecCharge 126770
scalar OsgEarthNet.uav[51] utilizationSecIdle 100732.24420891
scalar OsgEarthNet.uav[51] utilizationEnergyMission 89014.994609833
scalar OsgEarthNet.uav[51] utilizationEnergyMaintenance 64700.781089783
scalar OsgEarthNet.uav[51] utilizationEnergyCharge 154748.35449219
scalar OsgEarthNet.uav[51] utilizationEnergyOverdrawMission 0
scalar OsgEarthNet.uav[51] utilizationEnergyOverdrawMaintenance 0
scalar OsgEarthNet.uav[51] utilizationCountMissions 41
scalar OsgEarthNet.uav[51] utilizationCountManeuversMission 592
scalar OsgEarthNet.uav[51] utilizationCountManeuversMaintenance 82
scalar OsgEarthNet.uav[51] utilizationCountChargeState 41
scalar OsgEarthNet.uav[51] utilizationCountOverdrawnAfterMission 0
scalar OsgEarthNet.uav[51] utilizationCountIdleState 42
scalar OsgEarthNet.uav[51] utilizationFail 0
scalar OsgEarthNet.uav[51] simulationTime 259200
scalar OsgEarthNet.uav[52] utilizationSecMission 40993.626413041
scalar OsgEarthNet.uav[52] utilizationSecMaintenance 18623.510218241
scalar OsgEarthNet.uav[52] utilizationSecCharge 197813.43702143
scalar OsgEarthNet.uav[52] utilizationSecIdle 1769.4253472904
scalar OsgEarthNet.uav[52] utilizationEnergyMission 199350.63825226
scalar OsgEarthNet.uav[52] utilizationEnergyMaintenance 85850.080757141
scalar OsgEarthNet.uav[52] utilizationEnergyCharge 283207.8605957
scalar OsgEarthNet.uav[52] utilizationEnergyOverdrawMission 0
scalar OsgEarthNet.uav[52] utilizationEnergyOverdrawMaintenance 0
scalar OsgEarthNet.uav[52] utilizationCountMissions 62
scalar OsgEarthNet.uav[52] utilizationCountManeuversMission 1292
scalar OsgEarthNet.uav[52] utilizationCountManeuversMaintenance 124
scalar OsgEarthNet.uav[52] utilizationCountChargeState 62
scalar OsgEarthNet.uav[52] utilizationCountOverdrawnAfterMission 0
scalar OsgEarthNet.uav[52] utilizationCountIdleState 4
scalar OsgEarthNet.uav[52] utilizationFail 0
scalar OsgEarthNet.uav[52] simulationTime 259200
scalar OsgEarthNet.uav[53] utilizationSecMission 40204.485726482
scalar OsgEarthNet.uav[53] utilizationSecMaintenance 17103.498273518
scalar OsgEarthNet.uav[53] utilizationSecCharge 190970
scalar OsgEarthNet.uav[53] utilizationSecIdle 10922.015
scalar OsgEarthNet.uav[53] utilizationEnergyMission 197515.73884201
scalar OsgEarthNet.uav[53] utilizationEnergyMaintenance 79506.826113529
scalar OsgEarthNet.uav[53] utilizationEnergyCharge 270991.84472656
scalar OsgEarthNet.uav[53] utilizationEnergyOverdrawMission 0
scalar OsgEarthNet.uav[53] utilizationEnergyOverdrawMaintenance 0
scalar OsgEarthNet.uav[53] utilizationCountMissions 60
scalar OsgEarthNet.uav[53] utilizationCountManeuversMission 1250
scalar OsgEarthNet.uav[53] utilizationCountManeuversMaintenance 120
scalar OsgEarthNet.uav[53] utilizationCountChargeState 59
scalar OsgEarthNet.uav[53] utilizationCountOverdrawnAfterMission 0
scalar OsgEarthNet.uav[53] utilizationCountIdleState 6
scalar OsgEarthNet.uav[53] utilizationFail 0
scalar OsgEarthNet.uav[53] simulationTime 259200
scalar OsgEarthNet.uav[54] utilizationSecMission 17277.316847592
scalar OsgEarthNet.uav[54] utilizationSecMaintenance 12832.448838141
scalar OsgEarthNet.uav[54] utilizationSecCharge 120209.38579182
scalar OsgEarthNet.uav[54] utilizationSecIdle 108880.84752245
scalar OsgEarthNet.uav[54] utilizationEnergyMission 81941.617530823
scalar OsgEarthNet.uav[54] utilizationEnergyMaintenance 61207.519073486
scalar OsgEarthNet.uav[54] utilizationEnergyCharge 144444.91772461
scalar OsgEarthNet.uav[54] utilizationEnergyOverdrawMission 0
scalar OsgEarthNet.uav[54] utilizationEnergyOverdrawMaintenance 0
scalar OsgEarthNet.uav[54] utilizationCountMissions 40
scalar OsgEarthNet.uav[54] utilizationCountManeuversMission 512
scalar OsgEarthNet.uav[54] utilizationCountManeuversMaintenance 80
scalar OsgEarthNet.uav[54] utilizationCountChargeState 40
scalar OsgEarthNet.uav[54] utilizationCountOverdrawnAfterMission 0
scalar OsgEarthNet.uav[54] utilizationCountIdleState 40
scalar OsgEarthNet.uav[54] utilizationFail 0
scalar OsgEarthNet.uav[54] simulationTime 259200
scalar OsgEarthNet.uav[55] utilizationSecMission 40731.52187014
scalar OsgEarthNet.uav[55] utilizationSecMaintenance 18243.85789028
scalar OsgEarthNet.uav[55] utilizationSecCharge 198062.61623958
scalar OsgEarthNet.uav[55] utilizationSecIdle 2162.003
scalar OsgEarthNet.uav[55] utilizationEnergyMission 199153.40583038
scalar OsgEarthNet.uav[55] utilizationEnergyMaintenance 84088.575080872
scalar OsgEarthNet.uav[55] utilizationEnergyCharge 281570.92236328
scalar OsgEarthNet.uav[55] utilizationEnergyOverdrawMission 0
scalar OsgEarthNet.uav[55] utilizationEnergyOverdrawMaintenance 0
scalar OsgEarthNet.uav[55] utilizationCountMissions 61
scalar OsgEarthNet.uav[55] utilizationCountManeuversMission 1253
scalar OsgEarthNet.uav[55] utilizationCountManeuversMaintenance 122
scalar OsgEarthNet.uav[55] utilizationCountChargeState 61
scalar OsgEarthNet.uav[55] utilizationCountOverdrawnAfterMission 0
scalar OsgEarthNet.uav[55] utilizationCountIdleState 9
scalar OsgEarthNet.uav[55] utilizationFail 0
scalar OsgEarthNet.uav[55] simulationTime 259200
scalar OsgEarthNet.uav[56] utilizationSecMission 42270.744032983
scalar OsgEarthNet.uav[56] utilizationSecMaintenance 17596.348318411
scalar OsgEarthNet.uav[56] utilizationSecCharge 198050.90664861
scalar OsgEarthNet.uav[56] utilizationSecIdle 1282
scalar OsgEarthNet.uav[56] utilizationEnergyMission 204201.42953491
scalar OsgEarthNet.uav[56] utilizationEnergyMaintenance 79529.97252655
scalar OsgEarthNet.uav[56] utilizationEnergyCharge 279904.15283203
scalar OsgEarthNet.uav[56] utilizationEnergyOverdrawMission 0
scalar OsgEarthNet.uav[56] utilizationEnergyOverdrawMaintenance 0
scalar OsgEarthNet.uav[56] utilizationCountMissions 62
scalar OsgEarthNet.uav[56] utilizationCountManeuversMission 1354
scalar OsgEarthNet.uav[56] utilizationCountManeuversMaintenance 123
scalar OsgEarthNet.uav[56] utilizationCountChargeState 62
scalar OsgEarthNet.uav[56] utilizationCountOverdrawnAfterMission 0
scalar OsgEarthNet.uav[56] utilizationCountIdleState 14
scalar OsgEarthNet.uav[56] utilizationFail 0
scalar OsgEarthNet.uav[56] simulationTime 259200
scalar OsgEarthNet.uav[57] utilizationSecMission 20111.007584859
scalar OsgEarthNet.uav[57] utilizationSecMaintenance 14524.00354133
scalar OsgEarthNet.uav[57] utilizationSecCharge 135040
scalar OsgEarthNet.uav[57] utilizationSecIdle 89524.987873811
scalar OsgEarthNet.uav[57] utilizationEnergyMission 99334.502326965
scalar OsgEarthNet.uav[57] utilizationEnergyMaintenance 68792.764835358
scalar OsgEarthNet.uav[57] utilizationEnergyCharge 167720.59716797
scalar OsgEarthNet.uav[57] utilizationEnergyOverdrawMission 0
scalar OsgEarthNet.uav[57] utilizationEnergyOverdrawMaintenance 0
scalar OsgEarthNet.uav[57] utilizationCountMissions 42
scalar OsgEarthNet.uav[57] utilizationCountManeuversMission 744
scalar OsgEarthNet.uav[57] utilizationCountManeuversMaintenance 84
scalar OsgEarthNet.uav[57] utilizationCountChargeState 42
scalar OsgEarthNet.uav[57] utilizationCountOverdrawnAfterMission 0
scalar OsgEarthNet.uav[57] utilizationCountIdleState 43
scalar OsgEarthNet.uav[57] utilizationFail 0
scalar OsgEarthNet.uav[57] simulationTime 259200
scalar OsgEarthNet.uav[58] utilizationSecMission 40995.866248979
scalar OsgEarthNet.uav[58] utilizationSecMaintenance 18320.049906842
scalar OsgEarthNet.uav[58] utilizationSecCharge 198386.63258015
scalar OsgEarthNet.uav[58] utilizationSecIdle 1497.4502640309
scalar OsgEarthNet.uav[58] utilizationEnergyMission 200153.01534653
scalar OsgEarthNet.uav[58] utilizationEnergyMaintenance 84454.090114594
scalar OsgEarthNet.uav[58] utilizationEnergyCharge 283873.70068359
scalar OsgEarthNet.uav[58] utilizationEnergyOverdrawMission 0
scalar OsgEarthNet.uav[58] utilizationEnergyOverdrawMaintenance 0
scalar OsgEarthNet.uav[58] utilizationCountMissions 62
scalar OsgEarthNet.uav[58] utilizationCountManeuversMission 1373
scalar OsgEarthNet.uav[58] utilizationCountManeuversMaintenance 124
scalar OsgEarthNet.uav[58] utilizationCountChargeState 62
scalar OsgEarthNet.uav[58] utilizationCountOverdrawnAfterMission 0
scalar OsgEarthNet.uav[58] utilizationCountIdleState 8
scalar OsgEarthNet.uav[58] utilizationFail 0
scalar OsgEarthNet.uav[58] simulationTime 259200
scalar OsgEarthNet.uav[59] utilizationSecMission 17999.35887404
scalar OsgEarthNet.uav[59] utilizationSecMaintenance 12148.892017363
scalar OsgEarthNet.uav[59] utilizationSecCharge 112240
scalar OsgEarthNet.uav[59] utilizationSecIdle 116811.7481086
scalar OsgEarthNet.uav[59] utilizationEnergyMission 88261.701050964
scalar OsgEarthNet.uav[59] utilizationEnergyMaintenance 57470.879039764
scalar OsgEarthNet.uav[59] utilizationEnergyCharge 144499.7421875
scalar OsgEarthNet.uav[59] utilizationEnergyOverdrawMission 0
scalar OsgEarthNet.uav[59] utilizationEnergyOverdrawMaintenance 0
scalar OsgEarthNet.uav[59] utilizationCountMissions 32
scalar OsgEarthNet.uav[59] utilizationCountManeuversMission 632
scalar OsgEarthNet.uav[59] utilizationCountManeuversMaintenance 65
scalar OsgEarthNet.uav[59] utilizationCountChargeState 32
scalar OsgEarthNet.uav[59] utilizationCountOverdrawnAfterMission 0
scalar OsgEarthNet.uav[59] utilizationCountIdleState 33
scalar OsgEarthNet.uav[59] utilizationFail 0
scalar OsgEarthNet.uav[59] simulationTime 259200
scalar OsgEarthNet.uav[60] utilizationSecMission 16875.993487052
scalar OsgEarthNet.uav[60] utilizationSecMaintenance 11350.123821378
scalar OsgEarthNet.uav[60] utilizationSecCharge 105644.43596472
scalar OsgEarthNet.uav[60] utilizationSecIdle 125329.44572685
scalar OsgEarthNet.uav[60] utilizationEnergyMission 83325.412128448
scalar OsgEarthNet.uav[60] utilizationEnergyMaintenance 53799.229682922
scalar OsgEarthNet.uav[60] utilizationEnergyCharge 136576.328125
scalar OsgEarthNet.uav[60] utilizationEnergyOverdrawMission 0
scalar OsgEarthNet.uav[60] utilizationEnergyOverdrawMaintenance 0
scalar OsgEarthNet.uav[60] utilizationCountMissions 30
scalar OsgEarthNet.uav[60] utilizationCountManeuversMission 588
scalar OsgEarthNet.uav[60] utilizationCountManeuversMaintenance 60
scalar OsgEarthNet.uav[60] utilizationCountChargeState 30
scalar OsgEarthNet.uav[60] utilizationCountOverdrawnAfterMission 0
scalar OsgEarthNet.uav[60] utilizationCountIdleState 30
scalar OsgEarthNet.uav[60] utilizationFail 0
scalar OsgEarthNet.uav[60] simulationTime 259200
scalar OsgEarthNet.uav[61] utilizationSecMission 22698.942209135
scalar OsgEarthNet.uav[61] utilizationSecMaintenance 14635.000635278
scalar OsgEarthNet.uav[61] utilizationSecCharge 143080
scalar OsgEarthNet.uav[61] utilizationSecIdle 78786.056155587
scalar OsgEarthNet.uav[61] utilizationEnergyMission 113932.50349808
scalar OsgEarthNet.uav[61] utilizationEnergyMaintenance 69348.416885376
scalar OsgEarthNet.uav[61] utilizationEnergyCharge 180185.24975586
scalar OsgEarthNet.uav[61] utilizationEnergyOverdrawMission 0
scalar OsgEarthNet.uav[61] utilizationEnergyOverdrawMaintenance 0
scalar OsgEarthNet.uav[61] utilizationCountMissions 43
scalar OsgEarthNet.uav[61] utilizationCountManeuversMission 778
scalar OsgEarthNet.uav[61] utilizationCountManeuversMaintenance 86
scalar OsgEarthNet.uav[61] utilizationCountChargeState 43
scalar OsgEarthNet.uav[61] utilizationCountOverdrawnAfterMission 0
scalar OsgEarthNet.uav[61] utilizationCountIdleState 44
scalar OsgEarthNet.uav[61] utilizationFail 0
scalar OsgEarthNet.uav[61] simulationTime 259200
scalar OsgEarthNet.uav[62] utilizationSecMission 41250.862394552
scalar OsgEarthNet.uav[62] utilizationSecMaintenance 17593.124429718
scalar OsgEarthNet.uav[62] utilizationSecCharge 196494.00717573
scalar OsgEarthNet.uav[62] utilizationSecIdle 3862.005
scalar OsgEarthNet.uav[62] utilizationEnergyMission 197962.20586014
scalar OsgEarthNet.uav[62] utilizationEnergyMaintenance 81208.77753067
scalar OsgEarthNet.uav[62] utilizationEnergyCharge 278817.48242188
scalar OsgEarthNet.uav[62] utilizationEnergyOverdrawMission 0
scalar OsgEarthNet.uav[62] utilizationEnergyOverdrawMaintenance 0
scalar OsgEarthNet.uav[62] utilizationCountMissions 61
scalar OsgEarthNet.uav[62] utilizationCountManeuversMission 1198
scalar OsgEarthNet.uav[62] utilizationCountManeuversMaintenance 122
scalar OsgEarthNet.uav[62] utilizationCountChargeState 61
scalar OsgEarthNet.uav[62] utilizationCountOverdrawnAfterMission 0
scalar OsgEarthNet.uav[62] utilizationCountIdleState 11
scalar OsgEarthNet.uav[62] utilizationFail 0
scalar OsgEarthNet.uav[62] simulationTime 259200
scalar OsgEarthNet.uav[63] utilizationSecMission 19929.893366205
scalar OsgEarthNet.uav[63] utilizationSecMaintenance 11594.048705536
scalar OsgEarthNet.uav[63] utilizationSecCharge 116870
scalar OsgEarthNet.uav[63] utilizationSecIdle 110806.05692826
scalar OsgEarthNet.uav[63] utilizationEnergyMission 96960.139369965
scalar OsgEarthNet.uav[63] utilizationEnergyMaintenance 55363.377006531
scalar OsgEarthNet.uav[63] utilizationEnergyCharge 150959.25146484
scalar OsgEarthNet.uav[63] utilizationEnergyOverdrawMission 0
scalar OsgEarthNet.uav[63] utilizationEnergyOverdrawMaintenance 0
scalar OsgEarthNet.uav[63] utilizationCountMissions 33
scalar OsgEarthNet.uav[63] utilizationCountManeuversMission 597
scalar OsgEarthNet.uav[63] utilizationCountManeuversMaintenance 66
scalar OsgEarthNet.uav[63] utilizationCountChargeState 33
scalar OsgEarthNet.uav[63] utilizationCountOverdrawnAfterMission 0
scalar OsgEarthNet.uav[63] utilizationCountIdleState 34
scalar OsgEarthNet.uav[63] utilizationFail 0
scalar OsgEarthNet.uav[63] simulationTime 259200
scalar OsgEarthNet.uav[64] utilizationSecMission 23000.057879233
scalar OsgEarthNet.uav[64] utilizationSecMaintenance 16305.329231251
scalar OsgEarthNet.uav[64] utilizationSecCharge 152870
scalar OsgEarthNet.uav[64] utilizationSecIdle 67024.611889516
scalar OsgEarthNet.uav[64] utilizationEnergyMission 112345.22940445
scalar OsgEarthNet.uav[64] utilizationEnergyMaintenance 77392.809099265
scalar OsgEarthNet.uav[64] utilizationEnergyCharge 188884.07568359
scalar OsgEarthNet.uav[64] utilizationEnergyOverdrawMission 0
scalar OsgEarthNet.uav[64] utilizationEnergyOverdrawMaintenance 0
scalar OsgEarthNet.uav[64] utilizationCountMissions 48
scalar OsgEarthNet.uav[64] utilizationCountManeuversMission 799
scalar OsgEarthNet.uav[64] utilizationCountManeuversMaintenance 97
scalar OsgEarthNet.uav[64] utilizationCountChargeState 48
scalar OsgEarthNet.uav[64] utilizationCountOverdrawnAfterMission 0
scalar OsgEarthNet.uav[64] utilizationCountIdleState 49
scalar OsgEarthNet.uav[64] utilizationFail 0
scalar OsgEarthNet.uav[64] simulationTime 259200
scalar OsgEarthNet.uav[65] utilizationSecMission 40921.923952826
scalar OsgEarthNet.uav[65] utilizationSecMaintenance 18096.401995588
scalar OsgEarthNet.uav[65] utilizationSecCharge 197950
scalar OsgEarthNet.uav[65] utilizationSecIdle 2231.6730515863
[...]
scalar OsgEarthNet.uav[79] utilizationCountMissions 32
scalar OsgEarthNet.uav[79] utilizationCountManeuversMission 598
scalar OsgEarthNet.uav[79] utilizationCountManeuversMaintenance 64
scalar OsgEarthNet.uav[79] utilizationCountChargeState 32
scalar OsgEarthNet.uav[79] utilizationCountOverdrawnAfterMission 0
scalar OsgEarthNet.uav[79] utilizationCountIdleState 32
scalar OsgEarthNet.uav[79] utilizationFail 0
scalar OsgEarthNet.uav[79] simulationTime 259200
scalar OsgEarthNet.uav[80] utilizationSecMission 19526.876678383
scalar OsgEarthNet.uav[80] utilizationSecMaintenance 13299.965001363
scalar OsgEarthNet.uav[80] utilizationSecCharge 122910
scalar OsgEarthNet.uav[80] utilizationSecIdle 103463.15732025
scalar OsgEarthNet.uav[80] utilizationEnergyMission 95013.221977234
scalar OsgEarthNet.uav[80] utilizationEnergyMaintenance 63264.797733307
scalar OsgEarthNet.uav[80] utilizationEnergyCharge 158434.32373047
scalar OsgEarthNet.uav[80] utilizationEnergyOverdrawMission 0
scalar OsgEarthNet.uav[80] utilizationEnergyOverdrawMaintenance 0
scalar OsgEarthNet.uav[80] utilizationCountMissions 35
scalar OsgEarthNet.uav[80] utilizationCountManeuversMission 690
scalar OsgEarthNet.uav[80] utilizationCountManeuversMaintenance 70
scalar OsgEarthNet.uav[80] utilizationCountChargeState 35
scalar OsgEarthNet.uav[80] utilizationCountOverdrawnAfterMission 0
scalar OsgEarthNet.uav[80] utilizationCountIdleState 36
scalar OsgEarthNet.uav[80] utilizationFail 0
scalar OsgEarthNet.uav[80] simulationTime 259200
scalar OsgEarthNet.uav[81] utilizationSecMission 22447.57733854
scalar OsgEarthNet.uav[81] utilizationSecMaintenance 15361.571139014
scalar OsgEarthNet.uav[81] utilizationSecCharge 146010
scalar OsgEarthNet.uav[81] utilizationSecIdle 75380.850522447
scalar OsgEarthNet.uav[81] utilizationEnergyMission 109356.84668365
scalar OsgEarthNet.uav[81] utilizationEnergyMaintenance 72729.898361206
scalar OsgEarthNet.uav[81] utilizationEnergyCharge 183652.7902832
scalar OsgEarthNet.uav[81] utilizationEnergyOverdrawMission 0
scalar OsgEarthNet.uav[81] utilizationEnergyOverdrawMaintenance 0
scalar OsgEarthNet.uav[81] utilizationCountMissions 44
scalar OsgEarthNet.uav[81] utilizationCountManeuversMission 796
scalar OsgEarthNet.uav[81] utilizationCountManeuversMaintenance 89
scalar OsgEarthNet.uav[81] utilizationCountChargeState 44
scalar OsgEarthNet.uav[81] utilizationCountOverdrawnAfterMission 0
scalar OsgEarthNet.uav[81] utilizationCountIdleState 45
scalar OsgEarthNet.uav[81] utilizationFail 0
scalar OsgEarthNet.uav[81] simulationTime 259200
scalar OsgEarthNet.uav[82] utilizationSecMission 41212.625703239
scalar OsgEarthNet.uav[82] utilizationSecMaintenance 17335.369296761
scalar OsgEarthNet.uav[82] utilizationSecCharge 197480
scalar OsgEarthNet.uav[82] utilizationSecIdle 3172.004
scalar OsgEarthNet.uav[82] utilizationEnergyMission 198955.86922559
scalar OsgEarthNet.uav[82] utilizationEnergyMaintenance 79940.083618164
scalar OsgEarthNet.uav[82] utilizationEnergyCharge 275586.90234375
scalar OsgEarthNet.uav[82] utilizationEnergyOverdrawMission 0
scalar OsgEarthNet.uav[82] utilizationEnergyOverdrawMaintenance 0
scalar OsgEarthNet.uav[82] utilizationCountMissions 60
scalar OsgEarthNet.uav[82] utilizationCountManeuversMission 1185
scalar OsgEarthNet.uav[82] utilizationCountManeuversMaintenance 121
scalar OsgEarthNet.uav[82] utilizationCountChargeState 60
scalar OsgEarthNet.uav[82] utilizationCountOverdrawnAfterMission 0
scalar OsgEarthNet.uav[82] utilizationCountIdleState 11
scalar OsgEarthNet.uav[82] utilizationFail 0
scalar OsgEarthNet.uav[82] simulationTime 259200
scalar OsgEarthNet.uav[83] utilizationSecMission 21189.377288704
scalar OsgEarthNet.uav[83] utilizationSecMaintenance 12643.027277183
scalar OsgEarthNet.uav[83] utilizationSecCharge 123058.15270726
scalar OsgEarthNet.uav[83] utilizationSecIdle 102309.44172685
scalar OsgEarthNet.uav[83] utilizationEnergyMission 103331.79719543
scalar OsgEarthNet.uav[83] utilizationEnergyMaintenance 59998.019180298
scalar OsgEarthNet.uav[83] utilizationEnergyCharge 158733.1706543
scalar OsgEarthNet.uav[83] utilizationEnergyOverdrawMission 0
scalar OsgEarthNet.uav[83] utilizationEnergyOverdrawMaintenance 0
scalar OsgEarthNet.uav[83] utilizationCountMissions 36
scalar OsgEarthNet.uav[83] utilizationCountManeuversMission 669
scalar OsgEarthNet.uav[83] utilizationCountManeuversMaintenance 72
scalar OsgEarthNet.uav[83] utilizationCountChargeState 36
scalar OsgEarthNet.uav[83] utilizationCountOverdrawnAfterMission 0
scalar OsgEarthNet.uav[83] utilizationCountIdleState 36
scalar OsgEarthNet.uav[83] utilizationFail 0
scalar OsgEarthNet.uav[83] simulationTime 259200
scalar OsgEarthNet.uav[84] utilizationSecMission 24440.485899895
scalar OsgEarthNet.uav[84] utilizationSecMaintenance 15829.268805999
scalar OsgEarthNet.uav[84] utilizationSecCharge 154118.24278738
scalar OsgEarthNet.uav[84] utilizationSecIdle 64812.001506722
scalar OsgEarthNet.uav[84] utilizationEnergyMission 119078.54578018
scalar OsgEarthNet.uav[84] utilizationEnergyMaintenance 75152.032115936
scalar OsgEarthNet.uav[84] utilizationEnergyCharge 192995.53662109
scalar OsgEarthNet.uav[84] utilizationEnergyOverdrawMission 0
scalar OsgEarthNet.uav[84] utilizationEnergyOverdrawMaintenance 0
scalar OsgEarthNet.uav[84] utilizationCountMissions 48
scalar OsgEarthNet.uav[84] utilizationCountManeuversMission 739
scalar OsgEarthNet.uav[84] utilizationCountManeuversMaintenance 96
scalar OsgEarthNet.uav[84] utilizationCountChargeState 48
scalar OsgEarthNet.uav[84] utilizationCountOverdrawnAfterMission 0
scalar OsgEarthNet.uav[84] utilizationCountIdleState 48
scalar OsgEarthNet.uav[84] utilizationFail 0
scalar OsgEarthNet.uav[84] simulationTime 259200
scalar OsgEarthNet.uav[85] utilizationSecMission 42278.718047919
scalar OsgEarthNet.uav[85] utilizationSecMaintenance 17402.061338165
scalar OsgEarthNet.uav[85] utilizationSecCharge 198280
scalar OsgEarthNet.uav[85] utilizationSecIdle 1239.2196139157
scalar OsgEarthNet.uav[85] utilizationEnergyMission 204409.51774979
scalar OsgEarthNet.uav[85] utilizationEnergyMaintenance 80171.233629719
scalar OsgEarthNet.uav[85] utilizationEnergyCharge 281081.66796875
scalar OsgEarthNet.uav[85] utilizationEnergyOverdrawMission 0
scalar OsgEarthNet.uav[85] utilizationEnergyOverdrawMaintenance 0
scalar OsgEarthNet.uav[85] utilizationCountMissions 62
scalar OsgEarthNet.uav[85] utilizationCountManeuversMission 1276
scalar OsgEarthNet.uav[85] utilizationCountManeuversMaintenance 124
scalar OsgEarthNet.uav[85] utilizationCountChargeState 61
scalar OsgEarthNet.uav[85] utilizationCountOverdrawnAfterMission 0
scalar OsgEarthNet.uav[85] utilizationCountIdleState 9
scalar OsgEarthNet.uav[85] utilizationFail 0
scalar OsgEarthNet.uav[85] simulationTime 259200
scalar OsgEarthNet.uav[86] utilizationSecMission 15083.750915482
scalar OsgEarthNet.uav[86] utilizationSecMaintenance 11721.847517685
scalar OsgEarthNet.uav[86] utilizationSecCharge 101960
scalar OsgEarthNet.uav[86] utilizationSecIdle 130434.40056683
scalar OsgEarthNet.uav[86] utilizationEnergyMission 75212.550224304
scalar OsgEarthNet.uav[86] utilizationEnergyMaintenance 56085.114082336
scalar OsgEarthNet.uav[86] utilizationEnergyCharge 131381.01220703
scalar OsgEarthNet.uav[86] utilizationEnergyOverdrawMission 0
scalar OsgEarthNet.uav[86] utilizationEnergyOverdrawMaintenance 0
scalar OsgEarthNet.uav[86] utilizationCountMissions 29
scalar OsgEarthNet.uav[86] utilizationCountManeuversMission 598
scalar OsgEarthNet.uav[86] utilizationCountManeuversMaintenance 58
scalar OsgEarthNet.uav[86] utilizationCountChargeState 29
scalar OsgEarthNet.uav[86] utilizationCountOverdrawnAfterMission 0
scalar OsgEarthNet.uav[86] utilizationCountIdleState 30
scalar OsgEarthNet.uav[86] utilizationFail 0
scalar OsgEarthNet.uav[86] simulationTime 259200
scalar OsgEarthNet.uav[87] utilizationSecMission 20976.821577083
scalar OsgEarthNet.uav[87] utilizationSecMaintenance 15736.846142644
scalar OsgEarthNet.uav[87] utilizationSecCharge 145923.60681381
scalar OsgEarthNet.uav[87] utilizationSecIdle 76562.724466459
scalar OsgEarthNet.uav[87] utilizationEnergyMission 102145.19227219
scalar OsgEarthNet.uav[87] utilizationEnergyMaintenance 75390.935447693
scalar OsgEarthNet.uav[87] utilizationEnergyCharge 176067.80444336
scalar OsgEarthNet.uav[87] utilizationEnergyOverdrawMission 0
scalar OsgEarthNet.uav[87] utilizationEnergyOverdrawMaintenance 0
scalar OsgEarthNet.uav[87] utilizationCountMissions 49
scalar OsgEarthNet.uav[87] utilizationCountManeuversMission 622
scalar OsgEarthNet.uav[87] utilizationCountManeuversMaintenance 98
scalar OsgEarthNet.uav[87] utilizationCountChargeState 49
scalar OsgEarthNet.uav[87] utilizationCountOverdrawnAfterMission 0
scalar OsgEarthNet.uav[87] utilizationCountIdleState 49
scalar OsgEarthNet.uav[87] utilizationFail 0
scalar OsgEarthNet.uav[87] simulationTime 259200
scalar OsgEarthNet.uav[88] utilizationSecMission 42438.509791494
scalar OsgEarthNet.uav[88] utilizationSecMaintenance 17097.518825674
scalar OsgEarthNet.uav[88] utilizationSecCharge 196812.51742411
scalar OsgEarthNet.uav[88] utilizationSecIdle 2851.4529587171
scalar OsgEarthNet.uav[88] utilizationEnergyMission 203098.64140701
scalar OsgEarthNet.uav[88] utilizationEnergyMaintenance 77618.292030334
scalar OsgEarthNet.uav[88] utilizationEnergyCharge 277924.93725586
scalar OsgEarthNet.uav[88] utilizationEnergyOverdrawMission 0
scalar OsgEarthNet.uav[88] utilizationEnergyOverdrawMaintenance 0
scalar OsgEarthNet.uav[88] utilizationCountMissions 61
scalar OsgEarthNet.uav[88] utilizationCountManeuversMission 1167
scalar OsgEarthNet.uav[88] utilizationCountManeuversMaintenance 122
scalar OsgEarthNet.uav[88] utilizationCountChargeState 61
scalar OsgEarthNet.uav[88] utilizationCountOverdrawnAfterMission 0
scalar OsgEarthNet.uav[88] utilizationCountIdleState 13
scalar OsgEarthNet.uav[88] utilizationFail 0
scalar OsgEarthNet.uav[88] simulationTime 259200
scalar OsgEarthNet.uav[89] utilizationSecMission 18167.501830963
scalar OsgEarthNet.uav[89] utilizationSecMaintenance 11703.404241893
scalar OsgEarthNet.uav[89] utilizationSecCharge 112300
scalar OsgEarthNet.uav[89] utilizationSecIdle 117029.09292714
scalar OsgEarthNet.uav[89] utilizationEnergyMission 89205.735061646
scalar OsgEarthNet.uav[89] utilizationEnergyMaintenance 56012.439361572
scalar OsgEarthNet.uav[89] utilizationEnergyCharge 144392.14501953
scalar OsgEarthNet.uav[89] utilizationEnergyOverdrawMission 0
scalar OsgEarthNet.uav[89] utilizationEnergyOverdrawMaintenance 0
scalar OsgEarthNet.uav[89] utilizationCountMissions 32
scalar OsgEarthNet.uav[89] utilizationCountManeuversMission 596
scalar OsgEarthNet.uav[89] utilizationCountManeuversMaintenance 64
scalar OsgEarthNet.uav[89] utilizationCountChargeState 32
scalar OsgEarthNet.uav[89] utilizationCountOverdrawnAfterMission 0
scalar OsgEarthNet.uav[89] utilizationCountIdleState 33
scalar OsgEarthNet.uav[89] utilizationFail 0
scalar OsgEarthNet.uav[89] simulationTime 259200
scalar OsgEarthNet.uav[90] utilizationSecMission 20689.377288704
scalar OsgEarthNet.uav[90] utilizationSecMaintenance 11943.493584426
scalar OsgEarthNet.uav[90] utilizationSecCharge 118975.11612687
scalar OsgEarthNet.uav[90] utilizationSecIdle 107592.012
scalar OsgEarthNet.uav[90] utilizationEnergyMission 100858.70169067
scalar OsgEarthNet.uav[90] utilizationEnergyMaintenance 57287.63420105
scalar OsgEarthNet.uav[90] utilizationEnergyCharge 153006.55285645
scalar OsgEarthNet.uav[90] utilizationEnergyOverdrawMission 0
scalar OsgEarthNet.uav[90] utilizationEnergyOverdrawMaintenance 0
scalar OsgEarthNet.uav[90] utilizationCountMissions 35
scalar OsgEarthNet.uav[90] utilizationCountManeuversMission 644
scalar OsgEarthNet.uav[90] utilizationCountManeuversMaintenance 70
scalar OsgEarthNet.uav[90] utilizationCountChargeState 35
scalar OsgEarthNet.uav[90] utilizationCountOverdrawnAfterMission 0
scalar OsgEarthNet.uav[90] utilizationCountIdleState 35
scalar OsgEarthNet.uav[90] utilizationFail 0
scalar OsgEarthNet.uav[90] simulationTime 259200
scalar OsgEarthNet.uav[91] utilizationSecMission 23689.108173606
scalar OsgEarthNet.uav[91] utilizationSecMaintenance 16765.848673543
scalar OsgEarthNet.uav[91] utilizationSecCharge 155604.07816718
scalar OsgEarthNet.uav[91] utilizationSecIdle 63140.963985674
scalar OsgEarthNet.uav[91] utilizationEnergyMission 115480.54031372
scalar OsgEarthNet.uav[91] utilizationEnergyMaintenance 79788.814346313
scalar OsgEarthNet.uav[91] utilizationEnergyCharge 190387.04046631
scalar OsgEarthNet.uav[91] utilizationEnergyOverdrawMission 0
scalar OsgEarthNet.uav[91] utilizationEnergyOverdrawMaintenance 0
scalar OsgEarthNet.uav[91] utilizationCountMissions 51
scalar OsgEarthNet.uav[91] utilizationCountManeuversMission 744
scalar OsgEarthNet.uav[91] utilizationCountManeuversMaintenance 102
scalar OsgEarthNet.uav[91] utilizationCountChargeState 51
scalar OsgEarthNet.uav[91] utilizationCountOverdrawnAfterMission 0
scalar OsgEarthNet.uav[91] utilizationCountIdleState 51
scalar OsgEarthNet.uav[91] utilizationFail 0
scalar OsgEarthNet.uav[91] simulationTime 259200
scalar OsgEarthNet.uav[92] utilizationSecMission 42338.482857522
scalar OsgEarthNet.uav[92] utilizationSecMaintenance 17801.730170341
scalar OsgEarthNet.uav[92] utilizationSecCharge 196544.33031873
scalar OsgEarthNet.uav[92] utilizationSecIdle 2515.4556534032
scalar OsgEarthNet.uav[92] utilizationEnergyMission 198963.2929306
scalar OsgEarthNet.uav[92] utilizationEnergyMaintenance 80649.68013382
scalar OsgEarthNet.uav[92] utilizationEnergyCharge 277438.86743164
scalar OsgEarthNet.uav[92] utilizationEnergyOverdrawMission 0
scalar OsgEarthNet.uav[92] utilizationEnergyOverdrawMaintenance 0
scalar OsgEarthNet.uav[92] utilizationCountMissions 61
scalar OsgEarthNet.uav[92] utilizationCountManeuversMission 1082
scalar OsgEarthNet.uav[92] utilizationCountManeuversMaintenance 122
scalar OsgEarthNet.uav[92] utilizationCountChargeState 61
scalar OsgEarthNet.uav[92] utilizationCountOverdrawnAfterMission 0
scalar OsgEarthNet.uav[92] utilizationCountIdleState 6
scalar OsgEarthNet.uav[92] utilizationFail 0
scalar OsgEarthNet.uav[92] simulationTime 259200
scalar OsgEarthNet.uav[93] utilizationSecMission 19679.010174875
scalar OsgEarthNet.uav[93] utilizationSecMaintenance 11434.51829162
scalar OsgEarthNet.uav[93] utilizationSecCharge 113384.46553351
scalar OsgEarthNet.uav[93] utilizationSecIdle 114702.005
scalar OsgEarthNet.uav[93] utilizationEnergyMission 95530.267486572
scalar OsgEarthNet.uav[93] utilizationEnergyMaintenance 54591.189250946
scalar OsgEarthNet.uav[93] utilizationEnergyCharge 146599.39794922
scalar OsgEarthNet.uav[93] utilizationEnergyOverdrawMission 0
scalar OsgEarthNet.uav[93] utilizationEnergyOverdrawMaintenance 0
scalar OsgEarthNet.uav[93] utilizationCountMissions 33
scalar OsgEarthNet.uav[93] utilizationCountManeuversMission 615
scalar OsgEarthNet.uav[93] utilizationCountManeuversMaintenance 66
scalar OsgEarthNet.uav[93] utilizationCountChargeState 33
scalar OsgEarthNet.uav[93] utilizationCountOverdrawnAfterMission 0
scalar OsgEarthNet.uav[93] utilizationCountIdleState 33
scalar OsgEarthNet.uav[93] utilizationFail 0
scalar OsgEarthNet.uav[93] simulationTime 259200
scalar OsgEarthNet.uav[94] utilizationSecMission 22139.149008998
scalar OsgEarthNet.uav[94] utilizationSecMaintenance 14923.440099652
scalar OsgEarthNet.uav[94] utilizationSecCharge 140800
scalar OsgEarthNet.uav[94] utilizationSecIdle 81337.40989135
scalar OsgEarthNet.uav[94] utilizationEnergyMission 106890.74094009
scalar OsgEarthNet.uav[94] utilizationEnergyMaintenance 71067.066236795
scalar OsgEarthNet.uav[94] utilizationEnergyCharge 174184.68066406
scalar OsgEarthNet.uav[94] utilizationEnergyOverdrawMission 0
scalar OsgEarthNet.uav[94] utilizationEnergyOverdrawMaintenance 0
scalar OsgEarthNet.uav[94] utilizationCountMissions 45
scalar OsgEarthNet.uav[94] utilizationCountManeuversMission 727
scalar OsgEarthNet.uav[94] utilizationCountManeuversMaintenance 90
scalar OsgEarthNet.uav[94] utilizationCountChargeState 44
scalar OsgEarthNet.uav[94] utilizationCountOverdrawnAfterMission 0
scalar OsgEarthNet.uav[94] utilizationCountIdleState 45
scalar OsgEarthNet.uav[94] utilizationFail 0
scalar OsgEarthNet.uav[94] simulationTime 259200
scalar OsgEarthNet.uav[95] utilizationSecMission 42470.263221195
scalar OsgEarthNet.uav[95] utilizationSecMaintenance 18176.349302557
scalar OsgEarthNet.uav[95] utilizationSecCharge 197841.38647625
scalar OsgEarthNet.uav[95] utilizationSecIdle 712
scalar OsgEarthNet.uav[95] utilizationEnergyMission 202481.40767665
scalar OsgEarthNet.uav[95] utilizationEnergyMaintenance 83103.236228943
scalar OsgEarthNet.uav[95] utilizationEnergyCharge 280853.70727539
scalar OsgEarthNet.uav[95] utilizationEnergyOverdrawMission 0
scalar OsgEarthNet.uav[95] utilizationEnergyOverdrawMaintenance 0
scalar OsgEarthNet.uav[95] utilizationCountMissions 62
scalar OsgEarthNet.uav[95] utilizationCountManeuversMission 1168
scalar OsgEarthNet.uav[95] utilizationCountManeuversMaintenance 123
scalar OsgEarthNet.uav[95] utilizationCountChargeState 62
scalar OsgEarthNet.uav[95] utilizationCountOverdrawnAfterMission 0
scalar OsgEarthNet.uav[95] utilizationCountIdleState 8
scalar OsgEarthNet.uav[95] utilizationFail 0
scalar OsgEarthNet.uav[95] simulationTime 259200
scalar OsgEarthNet.uav[96] utilizationSecMission 20137.868944793
scalar OsgEarthNet.uav[96] utilizationSecMaintenance 12540.122055207
scalar OsgEarthNet.uav[96] utilizationSecCharge 118990
scalar OsgEarthNet.uav[96] utilizationSecIdle 107532.008
scalar OsgEarthNet.uav[96] utilizationEnergyMission 99540.290100098
scalar OsgEarthNet.uav[96] utilizationEnergyMaintenance 59088.640981352
scalar OsgEarthNet.uav[96] utilizationEnergyCharge 153204.04394531
scalar OsgEarthNet.uav[96] utilizationEnergyOverdrawMission 0
scalar OsgEarthNet.uav[96] utilizationEnergyOverdrawMaintenance 0
scalar OsgEarthNet.uav[96] utilizationCountMissions 35
scalar OsgEarthNet.uav[96] utilizationCountManeuversMission 673
scalar OsgEarthNet.uav[96] utilizationCountManeuversMaintenance 70
scalar OsgEarthNet.uav[96] utilizationCountChargeState 34
scalar OsgEarthNet.uav[96] utilizationCountOverdrawnAfterMission 0
scalar OsgEarthNet.uav[96] utilizationCountIdleState 35
scalar OsgEarthNet.uav[96] utilizationFail 0
scalar OsgEarthNet.uav[96] simulationTime 259200
scalar OsgEarthNet.uav[97] utilizationSecMission 23029.891914762
scalar OsgEarthNet.uav[97] utilizationSecMaintenance 15656.188036116
scalar OsgEarthNet.uav[97] utilizationSecCharge 147633.07052668
scalar OsgEarthNet.uav[97] utilizationSecIdle 72880.848522447
scalar OsgEarthNet.uav[97] utilizationEnergyMission 114474.4152832
scalar OsgEarthNet.uav[97] utilizationEnergyMaintenance 73862.267715454
scalar OsgEarthNet.uav[97] utilizationEnergyCharge 188347.63085938
scalar OsgEarthNet.uav[97] utilizationEnergyOverdrawMission 0
scalar OsgEarthNet.uav[97] utilizationEnergyOverdrawMaintenance 0
scalar OsgEarthNet.uav[97] utilizationCountMissions 44
scalar OsgEarthNet.uav[97] utilizationCountManeuversMission 884
scalar OsgEarthNet.uav[97] utilizationCountManeuversMaintenance 88
scalar OsgEarthNet.uav[97] utilizationCountChargeState 44
scalar OsgEarthNet.uav[97] utilizationCountOverdrawnAfterMission 0
scalar OsgEarthNet.uav[97] utilizationCountIdleState 44
scalar OsgEarthNet.uav[97] utilizationFail 0
scalar OsgEarthNet.uav[97] simulationTime 259200
scalar OsgEarthNet.cs[0] usedPower 3991194.8563597
scalar OsgEarthNet.cs[0] chargedPower 3991194.8563597
scalar OsgEarthNet.cs[0] chargedMobileNodes 876
scalar OsgEarthNet.cs[0] reservations 889
scalar OsgEarthNet.cs[1] usedPower 4168009.7136357
scalar OsgEarthNet.cs[1] chargedPower 4168009.7136357
scalar OsgEarthNet.cs[1] chargedMobileNodes 1040
scalar OsgEarthNet.cs[1] reservations 1054
scalar OsgEarthNet.cs[2] usedPower 8660341.4241368
scalar OsgEarthNet.cs[2] chargedPower 8660341.4241368
scalar OsgEarthNet.cs[2] chargedMobileNodes 279
scalar OsgEarthNet.cs[2] reservations 1897

