version 2
run Szenario_Hotel_Gabelbach-426-20180719-17:51:33-7236
attr configname Szenario_Hotel_Gabelbach
attr datetime 20180719-17:51:33
attr experiment Szenario_Hotel_Gabelbach
attr inifile omnetpp.ini
attr iterationvars "$replM=2, $biWeight=0.35, $replSearchM=1, $numUAVs=88"
attr iterationvarsf replM=2,biWeight=0.35,replSearchM=1,numUAVs=88-
attr measurement "$replM=2, $biWeight=0.35, $replSearchM=1, $numUAVs=88"
attr network OsgEarthNet
attr processid 7236
attr repetition 18
attr replication #18
attr resultdir results
attr runnumber 426
attr seedset 426
itervar biWeight 0.35
itervar numUAVs 88
itervar replM 2
itervar replSearchM 1
param *.osgEarthScene.scene "\"Szenario_Hotel_Gabelbach.earth\""
param *.playgroundLatitude 50.6830269
param *.playgroundLongitude 10.8538055
param *.playgroundWidth 3500m
param *.playgroundHeight 3500m
param *.cs[0].posX 3537m
param *.cs[0].posY 965m
param *.cs[0].posZ 538m
param *.cs[1].posX 312m
param *.cs[1].posY 1262m
param *.cs[1].posZ 539m
param *.cs[2].posX 2185m
param *.cs[2].posY 3026m
param *.cs[2].posZ 777m
param *.cs[3].posX 10m
param *.cs[3].posY 2200m
param *.cs[3].posZ 560m
param *.cs[4].posX 750m
param *.cs[4].posY 200m
param *.cs[4].posZ 540m
param *.cs[5].posX 2450m
param *.cs[5].posY 180m
param *.cs[5].posZ 524m
param *.cs[6].posX 3140m
param *.cs[6].posY 1790m
param *.cs[6].posZ 606m
param *.numCSs 3
param *.uav[*].replacementMethod 2
param *.uav[*].weightedSumWeight 0.35
param *.missionControl.replacementSearchMethod 1
param *.numUAVs 88
param *.*.timeStep 10s
param *.uav[*].commandPreviewCommandCount 20
param *.missionControl.missionFiles "\"missions\\\\Szenario_WB_Hotel_Gabelbach_Mission_Hotel.waypoints,missions\\\\Szenario_WB_Hotel_Gabelbach_Mission_Kickelhahn.waypoints,missions\\\\Szenario_WB_Hotel_Gabelbach_Mission_Ilmenau_Sportplatz.waypoints,missions\\\\Szenario_WB_Hotel_Gabelbach_Mission_Manebach_Mitte.waypoints,missions\\\\Szenario_WB_Hotel_Gabelbach_Mission_Manebach_Sued.waypoints,missions\\\\Szenario_WB_Hotel_Gabelbach_Hover_HoheSchlaufe.waypoints,missions\\\\Szenario_WB_Hotel_Gabelbach_Hover_Kickelhahn.waypoints,missions\\\\Szenario_WB_Hotel_Gabelbach_Hover_Gabelbachskopf.waypoints,missions\\\\Szenario_WB_Hotel_Gabelbach_Hover_Dachskopf.waypoints\""
param *.uav[0].startX 3537m
param *.uav[0].startY 965m
param *.uav[0].startZ 539m
param *.uav[1].startX 312m
param *.uav[1].startY 1262m
param *.uav[1].startZ 540m
param *.uav[2].startX 2185m
param *.uav[2].startY 3026m
param *.uav[2].startZ 778m
param *.uav[3].startX 3537m
param *.uav[3].startY 965m
param *.uav[3].startZ 539m
param *.uav[4].startX 312m
param *.uav[4].startY 1262m
param *.uav[4].startZ 540m
param *.uav[5].startX 2185m
param *.uav[5].startY 3026m
param *.uav[5].startZ 778m
param *.uav[6].startX 3537m
param *.uav[6].startY 965m
param *.uav[6].startZ 539m
param *.uav[7].startX 312m
param *.uav[7].startY 1262m
param *.uav[7].startZ 540m
param *.uav[8].startX 2185m
param *.uav[8].startY 3026m
param *.uav[8].startZ 778m
param *.uav[9].startX 3537m
param *.uav[9].startY 965m
param *.uav[9].startZ 539m
param *.uav[10].startX 3537m
param *.uav[10].startY 965m
param *.uav[10].startZ 539m
param *.uav[11].startX 312m
param *.uav[11].startY 1262m
param *.uav[11].startZ 540m
param *.uav[12].startX 2185m
param *.uav[12].startY 3026m
param *.uav[12].startZ 778m
param *.uav[13].startX 3537m
param *.uav[13].startY 965m
param *.uav[13].startZ 539m
param *.uav[14].startX 312m
param *.uav[14].startY 1262m
param *.uav[14].startZ 540m
param *.uav[15].startX 2185m
param *.uav[15].startY 3026m
param *.uav[15].startZ 778m
param *.uav[16].startX 3537m
param *.uav[16].startY 965m
param *.uav[16].startZ 539m
param *.uav[17].startX 312m
param *.uav[17].startY 1262m
param *.uav[17].startZ 540m
param *.uav[18].startX 2185m
param *.uav[18].startY 3026m
param *.uav[18].startZ 778m
param *.uav[19].startX 3537m
param *.uav[19].startY 965m
param *.uav[19].startZ 539m
param *.uav[20].startX 3537m
param *.uav[20].startY 965m
param *.uav[20].startZ 539m
param *.uav[21].startX 312m
param *.uav[21].startY 1262m
param *.uav[21].startZ 540m
param *.uav[22].startX 2185m
param *.uav[22].startY 3026m
param *.uav[22].startZ 778m
param *.uav[23].startX 3537m
param *.uav[23].startY 965m
param *.uav[23].startZ 539m
param *.uav[24].startX 312m
param *.uav[24].startY 1262m
param *.uav[24].startZ 540m
param *.uav[25].startX 2185m
param *.uav[25].startY 3026m
param *.uav[25].startZ 778m
param *.uav[26].startX 3537m
param *.uav[26].startY 965m
param *.uav[26].startZ 539m
param *.uav[27].startX 312m
param *.uav[27].startY 1262m
param *.uav[27].startZ 540m
param *.uav[28].startX 2185m
param *.uav[28].startY 3026m
param *.uav[28].startZ 778m
param *.uav[29].startX 3537m
param *.uav[29].startY 965m
param *.uav[29].startZ 539m
param *.uav[30].startX 3537m
param *.uav[30].startY 965m
param *.uav[30].startZ 539m
param *.uav[31].startX 312m
param *.uav[31].startY 1262m
param *.uav[31].startZ 540m
param *.uav[32].startX 2185m
param *.uav[32].startY 3026m
param *.uav[32].startZ 778m
param *.uav[33].startX 3537m
param *.uav[33].startY 965m
param *.uav[33].startZ 539m
param *.uav[34].startX 312m
param *.uav[34].startY 1262m
param *.uav[34].startZ 540m
param *.uav[35].startX 2185m
param *.uav[35].startY 3026m
param *.uav[35].startZ 778m
param *.uav[36].startX 3537m
param *.uav[36].startY 965m
param *.uav[36].startZ 539m
param *.uav[37].startX 312m
param *.uav[37].startY 1262m
param *.uav[37].startZ 540m
param *.uav[38].startX 2185m
param *.uav[38].startY 3026m
param *.uav[38].startZ 778m
param *.uav[39].startX 3537m
param *.uav[39].startY 965m
param *.uav[39].startZ 539m
param *.uav[40].startX 3537m
param *.uav[40].startY 965m
param *.uav[40].startZ 539m
param *.uav[41].startX 312m
param *.uav[41].startY 1262m
param *.uav[41].startZ 540m
param *.uav[42].startX 2185m
param *.uav[42].startY 3026m
param *.uav[42].startZ 778m
param *.uav[43].startX 3537m
param *.uav[43].startY 965m
param *.uav[43].startZ 539m
param *.uav[44].startX 312m
param *.uav[44].startY 1262m
param *.uav[44].startZ 540m
param *.uav[45].startX 2185m
param *.uav[45].startY 3026m
param *.uav[45].startZ 778m
param *.uav[46].startX 3537m
param *.uav[46].startY 965m
param *.uav[46].startZ 539m
param *.uav[47].startX 312m
param *.uav[47].startY 1262m
param *.uav[47].startZ 540m
param *.uav[48].startX 2185m
param *.uav[48].startY 3026m
param *.uav[48].startZ 778m
param *.uav[49].startX 3537m
param *.uav[49].startY 965m
param *.uav[49].startZ 539m
param *.uav[50].startX 3537m
param *.uav[50].startY 965m
param *.uav[50].startZ 539m
param *.uav[51].startX 312m
param *.uav[51].startY 1262m
param *.uav[51].startZ 540m
param *.uav[52].startX 2185m
param *.uav[52].startY 3026m
param *.uav[52].startZ 778m
param *.uav[53].startX 3537m
param *.uav[53].startY 965m
param *.uav[53].startZ 539m
param *.uav[54].startX 312m
param *.uav[54].startY 1262m
param *.uav[54].startZ 540m
param *.uav[55].startX 2185m
param *.uav[55].startY 3026m
param *.uav[55].startZ 778m
param *.uav[56].startX 3537m
param *.uav[56].startY 965m
param *.uav[56].startZ 539m
param *.uav[57].startX 312m
param *.uav[57].startY 1262m
param *.uav[57].startZ 540m
param *.uav[58].startX 2185m
param *.uav[58].startY 3026m
param *.uav[58].startZ 778m
param *.uav[59].startX 3537m
param *.uav[59].startY 965m
param *.uav[59].startZ 539m
param *.uav[60].startX 3537m
param *.uav[60].startY 965m
param *.uav[60].startZ 539m
param *.uav[61].startX 312m
param *.uav[61].startY 1262m
param *.uav[61].startZ 540m
param *.uav[62].startX 2185m
param *.uav[62].startY 3026m
param *.uav[62].startZ 778m
param *.uav[63].startX 3537m
param *.uav[63].startY 965m
param *.uav[63].startZ 539m
param *.uav[64].startX 312m
param *.uav[64].startY 1262m
param *.uav[64].startZ 540m
param *.uav[65].startX 2185m
param *.uav[65].startY 3026m
param *.uav[65].startZ 778m
param *.uav[66].startX 3537m
param *.uav[66].startY 965m
param *.uav[66].startZ 539m
param *.uav[67].startX 312m
param *.uav[67].startY 1262m
param *.uav[67].startZ 540m
param *.uav[68].startX 2185m
param *.uav[68].startY 3026m
param *.uav[68].startZ 778m
param *.uav[69].startX 3537m
param *.uav[69].startY 965m
param *.uav[69].startZ 539m
param *.uav[70].startX 3537m
param *.uav[70].startY 965m
param *.uav[70].startZ 539m
param *.uav[71].startX 312m
param *.uav[71].startY 1262m
param *.uav[71].startZ 540m
param *.uav[72].startX 2185m
param *.uav[72].startY 3026m
param *.uav[72].startZ 778m
param *.uav[73].startX 3537m
param *.uav[73].startY 965m
param *.uav[73].startZ 539m
param *.uav[74].startX 312m
param *.uav[74].startY 1262m
param *.uav[74].startZ 540m
param *.uav[75].startX 2185m
param *.uav[75].startY 3026m
param *.uav[75].startZ 778m
param *.uav[76].startX 3537m
param *.uav[76].startY 965m
param *.uav[76].startZ 539m
param *.uav[77].startX 312m
param *.uav[77].startY 1262m
param *.uav[77].startZ 540m
param *.uav[78].startX 2185m
param *.uav[78].startY 3026m
param *.uav[78].startZ 778m
param *.uav[79].startX 3537m
param *.uav[79].startY 965m
param *.uav[79].startZ 539m
param *.uav[80].startX 3537m
param *.uav[80].startY 965m
param *.uav[80].startZ 539m
param *.uav[81].startX 312m
param *.uav[81].startY 1262m
param *.uav[81].startZ 540m
param *.uav[82].startX 2185m
param *.uav[82].startY 3026m
param *.uav[82].startZ 778m
param *.uav[83].startX 3537m
param *.uav[83].startY 965m
param *.uav[83].startZ 539m
param *.uav[84].startX 312m
param *.uav[84].startY 1262m
param *.uav[84].startZ 540m
param *.uav[85].startX 2185m
param *.uav[85].startY 3026m
param *.uav[85].startZ 778m
param *.uav[86].startX 3537m
param *.uav[86].startY 965m
param *.uav[86].startZ 539m
param *.uav[87].startX 312m
param *.uav[87].startY 1262m
param *.uav[87].startZ 540m
param *.uav[88].startX 2185m
param *.uav[88].startY 3026m
param *.uav[88].startZ 778m
param *.uav[89].startX 3537m
param *.uav[89].startY 965m
param *.uav[89].startZ 539m
param *.uav[90].startX 3537m
param *.uav[90].startY 965m
param *.uav[90].startZ 539m
param *.uav[91].startX 312m
param *.uav[91].startY 1262m
param *.uav[91].startZ 540m
param *.uav[92].startX 2185m
param *.uav[92].startY 3026m
param *.uav[92].startZ 778m
param *.uav[93].startX 3537m
param *.uav[93].startY 965m
param *.uav[93].startZ 539m
param *.uav[94].startX 312m
param *.uav[94].startY 1262m
param *.uav[94].startZ 540m
param *.uav[95].startX 2185m
param *.uav[95].startY 3026m
param *.uav[95].startZ 778m
param *.uav[96].startX 3537m
param *.uav[96].startY 965m
param *.uav[96].startZ 539m
param *.uav[97].startX 312m
param *.uav[97].startY 1262m
param *.uav[97].startZ 540m
param *.uav[98].startX 2185m
param *.uav[98].startY 3026m
param *.uav[98].startZ 778m
param *.uav[99].startX 3537m
param *.uav[99].startY 965m
param *.uav[99].startZ 539m
param *.osgEarthScene.scene "\"boston.earth\""
param *.playgroundLatitude 42.3558
param *.playgroundLongitude -71.0677
param *.playgroundWidth 400m
param *.playgroundHeight 200m
param *.channelController.connectionColor "\"#0000FF40\""
param *.channelController.showConnections false
param *.uav[*].modelURL "\"quadrocopter.small.obj.15.scale.0,0,90.rot\""
param *.uav[*].labelColor "\"#FF7C00CC\""
param *.uav[*].label2Color "\"#FF7C00EE\""
param *.uav[*].batteryCapacity 5200mAh
param *.uav[*].batteryRemaining uav[index].batteryCapacity
param *.uav[*].predictionQuantile 0.95
param *.uav[*].replacementMethod 2
param *.uav[*].weightedSumWeight 0.5
param *.cs[*].modelURL "\"chargingstation_v1.osgt.2.scale.0,0,0.rot.0,0,-15e-1.trans\""
param *.cs[*].spotsWaiting 999
param *.cs[*].spotsCharging 999
param *.cs[*].chargeEffectivenessPercentage 100
param *.cs[*].nonLinearPhaseStartPercentage 85
param *.cs[*].chargeCurrent 6.0A
param *.cs[*].prioritizeFastCharge true
param *.missionControl.replacementSearchMethod 0
param *.*.timeStep 9s

scalar OsgEarthNet.uav[0] utilizationSecMission 40174.138535169
scalar OsgEarthNet.uav[0] utilizationSecMaintenance 18689.289147836
scalar OsgEarthNet.uav[0] utilizationSecCharge 195612.20181071
scalar OsgEarthNet.uav[0] utilizationSecIdle 4724.3695062824
scalar OsgEarthNet.uav[0] utilizationEnergyMission 196509.39142227
scalar OsgEarthNet.uav[0] utilizationEnergyMaintenance 86556.165176392
scalar OsgEarthNet.uav[0] utilizationEnergyCharge 278148.9520874
scalar OsgEarthNet.uav[0] utilizationEnergyOverdrawMission 0
scalar OsgEarthNet.uav[0] utilizationEnergyOverdrawMaintenance 0
scalar OsgEarthNet.uav[0] utilizationCountMissions 62
scalar OsgEarthNet.uav[0] utilizationCountManeuversMission 1341
scalar OsgEarthNet.uav[0] utilizationCountManeuversMaintenance 124
scalar OsgEarthNet.uav[0] utilizationCountChargeState 62
scalar OsgEarthNet.uav[0] utilizationCountOverdrawnAfterMission 0
scalar OsgEarthNet.uav[0] utilizationCountIdleState 10
scalar OsgEarthNet.uav[0] utilizationFail 0
scalar OsgEarthNet.uav[0] simulationTime 259200
scalar OsgEarthNet.uav[1] utilizationSecMission 753.40226662093
scalar OsgEarthNet.uav[1] utilizationSecMaintenance 677.8090955602
scalar OsgEarthNet.uav[1] utilizationSecCharge 5880
scalar OsgEarthNet.uav[1] utilizationSecIdle 251888.78763782
scalar OsgEarthNet.uav[1] utilizationEnergyMission 3391.5373268127
scalar OsgEarthNet.uav[1] utilizationEnergyMaintenance 3338.0196151733
scalar OsgEarthNet.uav[1] utilizationEnergyCharge 6925.4743652344
scalar OsgEarthNet.uav[1] utilizationEnergyOverdrawMission 0
scalar OsgEarthNet.uav[1] utilizationEnergyOverdrawMaintenance 0
scalar OsgEarthNet.uav[1] utilizationCountMissions 2
scalar OsgEarthNet.uav[1] utilizationCountManeuversMission 30
scalar OsgEarthNet.uav[1] utilizationCountManeuversMaintenance 4
scalar OsgEarthNet.uav[1] utilizationCountChargeState 2
scalar OsgEarthNet.uav[1] utilizationCountOverdrawnAfterMission 0
scalar OsgEarthNet.uav[1] utilizationCountIdleState 3
scalar OsgEarthNet.uav[1] utilizationFail 0
scalar OsgEarthNet.uav[1] simulationTime 259200
scalar OsgEarthNet.uav[2] utilizationSecMission 41830.542275218
scalar OsgEarthNet.uav[2] utilizationSecMaintenance 17720.237110866
scalar OsgEarthNet.uav[2] utilizationSecCharge 197960
scalar OsgEarthNet.uav[2] utilizationSecIdle 1689.2196139157
scalar OsgEarthNet.uav[2] utilizationEnergyMission 202621.79247732
scalar OsgEarthNet.uav[2] utilizationEnergyMaintenance 82059.633049011
scalar OsgEarthNet.uav[2] utilizationEnergyCharge 281449.14306641
scalar OsgEarthNet.uav[2] utilizationEnergyOverdrawMission 0
scalar OsgEarthNet.uav[2] utilizationEnergyOverdrawMaintenance 0
scalar OsgEarthNet.uav[2] utilizationCountMissions 61
scalar OsgEarthNet.uav[2] utilizationCountManeuversMission 1255
scalar OsgEarthNet.uav[2] utilizationCountManeuversMaintenance 123
scalar OsgEarthNet.uav[2] utilizationCountChargeState 61
scalar OsgEarthNet.uav[2] utilizationCountOverdrawnAfterMission 0
scalar OsgEarthNet.uav[2] utilizationCountIdleState 9
scalar OsgEarthNet.uav[2] utilizationFail 0
scalar OsgEarthNet.uav[2] simulationTime 259200
scalar OsgEarthNet.uav[3] utilizationSecMission 760.62515258028
scalar OsgEarthNet.uav[3] utilizationSecMaintenance 280.27216773088
scalar OsgEarthNet.uav[3] utilizationSecCharge 3790
scalar OsgEarthNet.uav[3] utilizationSecIdle 254369.10167969
scalar OsgEarthNet.uav[3] utilizationEnergyMission 3676.4591445923
scalar OsgEarthNet.uav[3] utilizationEnergyMaintenance 1272.2307853699
scalar OsgEarthNet.uav[3] utilizationEnergyCharge 4948.6904296875
scalar OsgEarthNet.uav[3] utilizationEnergyOverdrawMission 0
scalar OsgEarthNet.uav[3] utilizationEnergyOverdrawMaintenance 0
scalar OsgEarthNet.uav[3] utilizationCountMissions 1
scalar OsgEarthNet.uav[3] utilizationCountManeuversMission 12
scalar OsgEarthNet.uav[3] utilizationCountManeuversMaintenance 2
scalar OsgEarthNet.uav[3] utilizationCountChargeState 1
scalar OsgEarthNet.uav[3] utilizationCountOverdrawnAfterMission 0
scalar OsgEarthNet.uav[3] utilizationCountIdleState 2
scalar OsgEarthNet.uav[3] utilizationFail 0
scalar OsgEarthNet.uav[3] simulationTime 259200
scalar OsgEarthNet.uav[4] utilizationSecMission 20600.553149742
scalar OsgEarthNet.uav[4] utilizationSecMaintenance 14520.419320494
scalar OsgEarthNet.uav[4] utilizationSecCharge 133767.02652976
scalar OsgEarthNet.uav[4] utilizationSecIdle 90312
scalar OsgEarthNet.uav[4] utilizationEnergyMission 101969.92876053
scalar OsgEarthNet.uav[4] utilizationEnergyMaintenance 69005.656517029
scalar OsgEarthNet.uav[4] utilizationEnergyCharge 167299.05419922
scalar OsgEarthNet.uav[4] utilizationEnergyOverdrawMission 0
scalar OsgEarthNet.uav[4] utilizationEnergyOverdrawMaintenance 0
scalar OsgEarthNet.uav[4] utilizationCountMissions 42
scalar OsgEarthNet.uav[4] utilizationCountManeuversMission 754
scalar OsgEarthNet.uav[4] utilizationCountManeuversMaintenance 84
scalar OsgEarthNet.uav[4] utilizationCountChargeState 42
scalar OsgEarthNet.uav[4] utilizationCountOverdrawnAfterMission 0
scalar OsgEarthNet.uav[4] utilizationCountIdleState 42
scalar OsgEarthNet.uav[4] utilizationFail 0
scalar OsgEarthNet.uav[4] simulationTime 259200
scalar OsgEarthNet.uav[5] utilizationSecMission 41385.436186816
scalar OsgEarthNet.uav[5] utilizationSecMaintenance 18007.124898234
scalar OsgEarthNet.uav[5] utilizationSecCharge 199205.43791495
scalar OsgEarthNet.uav[5] utilizationSecIdle 602
scalar OsgEarthNet.uav[5] utilizationEnergyMission 198952.91719437
scalar OsgEarthNet.uav[5] utilizationEnergyMaintenance 82068.88445282
scalar OsgEarthNet.uav[5] utilizationEnergyCharge 283748.54443359
scalar OsgEarthNet.uav[5] utilizationEnergyOverdrawMission 0
scalar OsgEarthNet.uav[5] utilizationEnergyOverdrawMaintenance 0
scalar OsgEarthNet.uav[5] utilizationCountMissions 62
scalar OsgEarthNet.uav[5] utilizationCountManeuversMission 1385
scalar OsgEarthNet.uav[5] utilizationCountManeuversMaintenance 124
scalar OsgEarthNet.uav[5] utilizationCountChargeState 62
scalar OsgEarthNet.uav[5] utilizationCountOverdrawnAfterMission 0
scalar OsgEarthNet.uav[5] utilizationCountIdleState 8
scalar OsgEarthNet.uav[5] utilizationFail 0
scalar OsgEarthNet.uav[5] simulationTime 259200
scalar OsgEarthNet.uav[6] utilizationSecMission 460
scalar OsgEarthNet.uav[6] utilizationSecMaintenance 447.1303002674
scalar OsgEarthNet.uav[6] utilizationSecCharge 3620
scalar OsgEarthNet.uav[6] utilizationSecIdle 254672.86869973
scalar OsgEarthNet.uav[6] utilizationEnergyMission 2268.9264450073
scalar OsgEarthNet.uav[6] utilizationEnergyMaintenance 2209.6123161316
scalar OsgEarthNet.uav[6] utilizationEnergyCharge 4628.15234375
scalar OsgEarthNet.uav[6] utilizationEnergyOverdrawMission 0
scalar OsgEarthNet.uav[6] utilizationEnergyOverdrawMaintenance 0
scalar OsgEarthNet.uav[6] utilizationCountMissions 1
scalar OsgEarthNet.uav[6] utilizationCountManeuversMission 23
scalar OsgEarthNet.uav[6] utilizationCountManeuversMaintenance 2
scalar OsgEarthNet.uav[6] utilizationCountChargeState 1
scalar OsgEarthNet.uav[6] utilizationCountOverdrawnAfterMission 0
scalar OsgEarthNet.uav[6] utilizationCountIdleState 2
scalar OsgEarthNet.uav[6] utilizationFail 0
scalar OsgEarthNet.uav[6] simulationTime 259200
scalar OsgEarthNet.uav[7] utilizationSecMission 9942.6593608573
scalar OsgEarthNet.uav[7] utilizationSecMaintenance 7600.0269889554
scalar OsgEarthNet.uav[7] utilizationSecCharge 67210.940279885
scalar OsgEarthNet.uav[7] utilizationSecIdle 174446.3723703
scalar OsgEarthNet.uav[7] utilizationEnergyMission 48830.150966644
scalar OsgEarthNet.uav[7] utilizationEnergyMaintenance 36025.07567215
scalar OsgEarthNet.uav[7] utilizationEnergyCharge 83559.604492188
scalar OsgEarthNet.uav[7] utilizationEnergyOverdrawMission 0
scalar OsgEarthNet.uav[7] utilizationEnergyOverdrawMaintenance 0
scalar OsgEarthNet.uav[7] utilizationCountMissions 22
scalar OsgEarthNet.uav[7] utilizationCountManeuversMission 377
scalar OsgEarthNet.uav[7] utilizationCountManeuversMaintenance 44
scalar OsgEarthNet.uav[7] utilizationCountChargeState 22
scalar OsgEarthNet.uav[7] utilizationCountOverdrawnAfterMission 0
scalar OsgEarthNet.uav[7] utilizationCountIdleState 22
scalar OsgEarthNet.uav[7] utilizationFail 0
scalar OsgEarthNet.uav[7] simulationTime 259200
scalar OsgEarthNet.uav[8] utilizationSecMission 5842.9670183138
scalar OsgEarthNet.uav[8] utilizationSecMaintenance 5108.889889389
scalar OsgEarthNet.uav[8] utilizationSecCharge 40521.654932589
scalar OsgEarthNet.uav[8] utilizationSecIdle 207726.48715971
scalar OsgEarthNet.uav[8] utilizationEnergyMission 28882.238464355
scalar OsgEarthNet.uav[8] utilizationEnergyMaintenance 24062.181240082
scalar OsgEarthNet.uav[8] utilizationEnergyCharge 53148.263671875
scalar OsgEarthNet.uav[8] utilizationEnergyOverdrawMission 0
scalar OsgEarthNet.uav[8] utilizationEnergyOverdrawMaintenance 0
scalar OsgEarthNet.uav[8] utilizationCountMissions 12
scalar OsgEarthNet.uav[8] utilizationCountManeuversMission 248
scalar OsgEarthNet.uav[8] utilizationCountManeuversMaintenance 24
scalar OsgEarthNet.uav[8] utilizationCountChargeState 12
scalar OsgEarthNet.uav[8] utilizationCountOverdrawnAfterMission 0
scalar OsgEarthNet.uav[8] utilizationCountIdleState 12
scalar OsgEarthNet.uav[8] utilizationFail 0
scalar OsgEarthNet.uav[8] simulationTime 259200
scalar OsgEarthNet.uav[9] utilizationSecMission 2761.8754577408
scalar OsgEarthNet.uav[9] utilizationSecMaintenance 1114.0562526456
scalar OsgEarthNet.uav[9] utilizationSecCharge 14170
scalar OsgEarthNet.uav[9] utilizationSecIdle 241154.06728961
scalar OsgEarthNet.uav[9] utilizationEnergyMission 12728.961353302
scalar OsgEarthNet.uav[9] utilizationEnergyMaintenance 5302.4822540283
scalar OsgEarthNet.uav[9] utilizationEnergyCharge 18329.142089844
scalar OsgEarthNet.uav[9] utilizationEnergyOverdrawMission 0
scalar OsgEarthNet.uav[9] utilizationEnergyOverdrawMaintenance 0
scalar OsgEarthNet.uav[9] utilizationCountMissions 4
scalar OsgEarthNet.uav[9] utilizationCountManeuversMission 60
scalar OsgEarthNet.uav[9] utilizationCountManeuversMaintenance 8
scalar OsgEarthNet.uav[9] utilizationCountChargeState 4
scalar OsgEarthNet.uav[9] utilizationCountOverdrawnAfterMission 0
scalar OsgEarthNet.uav[9] utilizationCountIdleState 5
scalar OsgEarthNet.uav[9] utilizationFail 0
scalar OsgEarthNet.uav[9] simulationTime 259200
scalar OsgEarthNet.uav[10] utilizationSecMission 2600.6251525803
scalar OsgEarthNet.uav[10] utilizationSecMaintenance 1992.6430114952
scalar OsgEarthNet.uav[10] utilizationSecCharge 17450
scalar OsgEarthNet.uav[10] utilizationSecIdle 237156.73083592
scalar OsgEarthNet.uav[10] utilizationEnergyMission 13190.478748322
scalar OsgEarthNet.uav[10] utilizationEnergyMaintenance 9506.0045852661
scalar OsgEarthNet.uav[10] utilizationEnergyCharge 22338.4375
scalar OsgEarthNet.uav[10] utilizationEnergyOverdrawMission 0
scalar OsgEarthNet.uav[10] utilizationEnergyOverdrawMaintenance 0
scalar OsgEarthNet.uav[10] utilizationCountMissions 5
scalar OsgEarthNet.uav[10] utilizationCountManeuversMission 104
scalar OsgEarthNet.uav[10] utilizationCountManeuversMaintenance 10
scalar OsgEarthNet.uav[10] utilizationCountChargeState 5
scalar OsgEarthNet.uav[10] utilizationCountOverdrawnAfterMission 0
scalar OsgEarthNet.uav[10] utilizationCountIdleState 6
scalar OsgEarthNet.uav[10] utilizationFail 0
scalar OsgEarthNet.uav[10] simulationTime 259200
scalar OsgEarthNet.uav[11] utilizationSecMission 12291.296055505
scalar OsgEarthNet.uav[11] utilizationSecMaintenance 8409.2753335504
scalar OsgEarthNet.uav[11] utilizationSecCharge 80280
scalar OsgEarthNet.uav[11] utilizationSecIdle 158219.42761094
scalar OsgEarthNet.uav[11] utilizationEnergyMission 61621.443824768
scalar OsgEarthNet.uav[11] utilizationEnergyMaintenance 39920.794536591
scalar OsgEarthNet.uav[11] utilizationEnergyCharge 101513.24829102
scalar OsgEarthNet.uav[11] utilizationEnergyOverdrawMission 0
scalar OsgEarthNet.uav[11] utilizationEnergyOverdrawMaintenance 0
scalar OsgEarthNet.uav[11] utilizationCountMissions 24
scalar OsgEarthNet.uav[11] utilizationCountManeuversMission 451
scalar OsgEarthNet.uav[11] utilizationCountManeuversMaintenance 48
scalar OsgEarthNet.uav[11] utilizationCountChargeState 24
scalar OsgEarthNet.uav[11] utilizationCountOverdrawnAfterMission 0
scalar OsgEarthNet.uav[11] utilizationCountIdleState 25
scalar OsgEarthNet.uav[11] utilizationFail 0
scalar OsgEarthNet.uav[11] simulationTime 259200
scalar OsgEarthNet.uav[12] utilizationSecMission 41891.841963513
scalar OsgEarthNet.uav[12] utilizationSecMaintenance 16956.151036487
scalar OsgEarthNet.uav[12] utilizationSecCharge 196210
scalar OsgEarthNet.uav[12] utilizationSecIdle 4142.006
scalar OsgEarthNet.uav[12] utilizationEnergyMission 202289.65633914
scalar OsgEarthNet.uav[12] utilizationEnergyMaintenance 78385.371963501
scalar OsgEarthNet.uav[12] utilizationEnergyCharge 276205.35253906
scalar OsgEarthNet.uav[12] utilizationEnergyOverdrawMission 0
scalar OsgEarthNet.uav[12] utilizationEnergyOverdrawMaintenance 0
scalar OsgEarthNet.uav[12] utilizationCountMissions 60
scalar OsgEarthNet.uav[12] utilizationCountManeuversMission 1172
scalar OsgEarthNet.uav[12] utilizationCountManeuversMaintenance 121
scalar OsgEarthNet.uav[12] utilizationCountChargeState 60
scalar OsgEarthNet.uav[12] utilizationCountOverdrawnAfterMission 0
scalar OsgEarthNet.uav[12] utilizationCountIdleState 15
scalar OsgEarthNet.uav[12] utilizationFail 0
scalar OsgEarthNet.uav[12] simulationTime 259200
scalar OsgEarthNet.uav[13] utilizationSecMission 40637.877013302
scalar OsgEarthNet.uav[13] utilizationSecMaintenance 18048.788526324
scalar OsgEarthNet.uav[13] utilizationSecCharge 196410.98298705
scalar OsgEarthNet.uav[13] utilizationSecIdle 4102.3504733236
scalar OsgEarthNet.uav[13] utilizationEnergyMission 197464.14043427
scalar OsgEarthNet.uav[13] utilizationEnergyMaintenance 83289.019599915
scalar OsgEarthNet.uav[13] utilizationEnergyCharge 280363.56933594
scalar OsgEarthNet.uav[13] utilizationEnergyOverdrawMission 0
scalar OsgEarthNet.uav[13] utilizationEnergyOverdrawMaintenance 0
scalar OsgEarthNet.uav[13] utilizationCountMissions 61
scalar OsgEarthNet.uav[13] utilizationCountManeuversMission 1193
scalar OsgEarthNet.uav[13] utilizationCountManeuversMaintenance 122
scalar OsgEarthNet.uav[13] utilizationCountChargeState 61
scalar OsgEarthNet.uav[13] utilizationCountOverdrawnAfterMission 0
scalar OsgEarthNet.uav[13] utilizationCountIdleState 9
scalar OsgEarthNet.uav[13] utilizationFail 0
scalar OsgEarthNet.uav[13] simulationTime 259200
scalar OsgEarthNet.uav[14] utilizationSecMission 15768.158632275
scalar OsgEarthNet.uav[14] utilizationSecMaintenance 10348.758339235
scalar OsgEarthNet.uav[14] utilizationSecCharge 99383.061754346
scalar OsgEarthNet.uav[14] utilizationSecIdle 133700.02027414
scalar OsgEarthNet.uav[14] utilizationEnergyMission 76529.946949005
scalar OsgEarthNet.uav[14] utilizationEnergyMaintenance 49167.864471436
scalar OsgEarthNet.uav[14] utilizationEnergyCharge 125372.20849609
scalar OsgEarthNet.uav[14] utilizationEnergyOverdrawMission 0
scalar OsgEarthNet.uav[14] utilizationEnergyOverdrawMaintenance 0
scalar OsgEarthNet.uav[14] utilizationCountMissions 31
scalar OsgEarthNet.uav[14] utilizationCountManeuversMission 493
scalar OsgEarthNet.uav[14] utilizationCountManeuversMaintenance 62
scalar OsgEarthNet.uav[14] utilizationCountChargeState 31
scalar OsgEarthNet.uav[14] utilizationCountOverdrawnAfterMission 0
scalar OsgEarthNet.uav[14] utilizationCountIdleState 31
scalar OsgEarthNet.uav[14] utilizationFail 0
scalar OsgEarthNet.uav[14] simulationTime 259200
scalar OsgEarthNet.uav[15] utilizationSecMission 42308.079798139
scalar OsgEarthNet.uav[15] utilizationSecMaintenance 16992.288121196
scalar OsgEarthNet.uav[15] utilizationSecCharge 196870
scalar OsgEarthNet.uav[15] utilizationSecIdle 3029.6310806652
scalar OsgEarthNet.uav[15] utilizationEnergyMission 206524.03084564
scalar OsgEarthNet.uav[15] utilizationEnergyMaintenance 79608.572080161
scalar OsgEarthNet.uav[15] utilizationEnergyCharge 278848.87548828
scalar OsgEarthNet.uav[15] utilizationEnergyOverdrawMission 0
scalar OsgEarthNet.uav[15] utilizationEnergyOverdrawMaintenance 0
scalar OsgEarthNet.uav[15] utilizationCountMissions 61
scalar OsgEarthNet.uav[15] utilizationCountManeuversMission 1194
scalar OsgEarthNet.uav[15] utilizationCountManeuversMaintenance 122
scalar OsgEarthNet.uav[15] utilizationCountChargeState 60
scalar OsgEarthNet.uav[15] utilizationCountOverdrawnAfterMission 0
scalar OsgEarthNet.uav[15] utilizationCountIdleState 8
scalar OsgEarthNet.uav[15] utilizationFail 0
scalar OsgEarthNet.uav[15] simulationTime 259200
scalar OsgEarthNet.uav[16] utilizationSecMission 12605.001220642
scalar OsgEarthNet.uav[16] utilizationSecMaintenance 7983.9670743422
scalar OsgEarthNet.uav[16] utilizationSecCharge 77270
scalar OsgEarthNet.uav[16] utilizationSecIdle 161341.03070502
scalar OsgEarthNet.uav[16] utilizationEnergyMission 62868.751296997
scalar OsgEarthNet.uav[16] utilizationEnergyMaintenance 37809.761268616
scalar OsgEarthNet.uav[16] utilizationEnergyCharge 99536.252929688
scalar OsgEarthNet.uav[16] utilizationEnergyOverdrawMission 0
scalar OsgEarthNet.uav[16] utilizationEnergyOverdrawMaintenance 0
scalar OsgEarthNet.uav[16] utilizationCountMissions 22
scalar OsgEarthNet.uav[16] utilizationCountManeuversMission 422
scalar OsgEarthNet.uav[16] utilizationCountManeuversMaintenance 44
scalar OsgEarthNet.uav[16] utilizationCountChargeState 22
scalar OsgEarthNet.uav[16] utilizationCountOverdrawnAfterMission 0
scalar OsgEarthNet.uav[16] utilizationCountIdleState 23
scalar OsgEarthNet.uav[16] utilizationFail 0
scalar OsgEarthNet.uav[16] simulationTime 259200
scalar OsgEarthNet.uav[17] utilizationSecMission 13652.906996112
scalar OsgEarthNet.uav[17] utilizationSecMaintenance 10295.401681274
scalar OsgEarthNet.uav[17] utilizationSecCharge 91479.682322614
scalar OsgEarthNet.uav[17] utilizationSecIdle 143772.008
scalar OsgEarthNet.uav[17] utilizationEnergyMission 69112.660598755
scalar OsgEarthNet.uav[17] utilizationEnergyMaintenance 48725.681381226
scalar OsgEarthNet.uav[17] utilizationEnergyCharge 116395.3215332
scalar OsgEarthNet.uav[17] utilizationEnergyOverdrawMission 0
scalar OsgEarthNet.uav[17] utilizationEnergyOverdrawMaintenance 0
scalar OsgEarthNet.uav[17] utilizationCountMissions 28
scalar OsgEarthNet.uav[17] utilizationCountManeuversMission 600
scalar OsgEarthNet.uav[17] utilizationCountManeuversMaintenance 56
scalar OsgEarthNet.uav[17] utilizationCountChargeState 28
scalar OsgEarthNet.uav[17] utilizationCountOverdrawnAfterMission 0
scalar OsgEarthNet.uav[17] utilizationCountIdleState 28
scalar OsgEarthNet.uav[17] utilizationFail 0
scalar OsgEarthNet.uav[17] simulationTime 259200
scalar OsgEarthNet.uav[18] utilizationSecMission 41415.575418757
scalar OsgEarthNet.uav[18] utilizationSecMaintenance 17877.978914361
scalar OsgEarthNet.uav[18] utilizationSecCharge 196335.73660965
scalar OsgEarthNet.uav[18] utilizationSecIdle 3570.7080572282
scalar OsgEarthNet.uav[18] utilizationEnergyMission 198048.17077255
scalar OsgEarthNet.uav[18] utilizationEnergyMaintenance 81196.060054779
scalar OsgEarthNet.uav[18] utilizationEnergyCharge 279036.02783203
scalar OsgEarthNet.uav[18] utilizationEnergyOverdrawMission 0
scalar OsgEarthNet.uav[18] utilizationEnergyOverdrawMaintenance 0
scalar OsgEarthNet.uav[18] utilizationCountMissions 61
scalar OsgEarthNet.uav[18] utilizationCountManeuversMission 1151
scalar OsgEarthNet.uav[18] utilizationCountManeuversMaintenance 122
scalar OsgEarthNet.uav[18] utilizationCountChargeState 61
scalar OsgEarthNet.uav[18] utilizationCountOverdrawnAfterMission 0
scalar OsgEarthNet.uav[18] utilizationCountIdleState 11
scalar OsgEarthNet.uav[18] utilizationFail 0
scalar OsgEarthNet.uav[18] simulationTime 259200
scalar OsgEarthNet.uav[19] utilizationSecMission 12014.008954232
scalar OsgEarthNet.uav[19] utilizationSecMaintenance 8469.3974285534
scalar OsgEarthNet.uav[19] utilizationSecCharge 76960
scalar OsgEarthNet.uav[19] utilizationSecIdle 161756.59261721
scalar OsgEarthNet.uav[19] utilizationEnergyMission 57364.712547302
scalar OsgEarthNet.uav[19] utilizationEnergyMaintenance 40447.634418487
scalar OsgEarthNet.uav[19] utilizationEnergyCharge 99294.606445312
scalar OsgEarthNet.uav[19] utilizationEnergyOverdrawMission 0
scalar OsgEarthNet.uav[19] utilizationEnergyOverdrawMaintenance 0
scalar OsgEarthNet.uav[19] utilizationCountMissions 22
scalar OsgEarthNet.uav[19] utilizationCountManeuversMission 440
scalar OsgEarthNet.uav[19] utilizationCountManeuversMaintenance 44
scalar OsgEarthNet.uav[19] utilizationCountChargeState 22
scalar OsgEarthNet.uav[19] utilizationCountOverdrawnAfterMission 0
scalar OsgEarthNet.uav[19] utilizationCountIdleState 23
scalar OsgEarthNet.uav[19] utilizationFail 0
scalar OsgEarthNet.uav[19] simulationTime 259200
scalar OsgEarthNet.uav[20] utilizationSecMission 11703.125762901
scalar OsgEarthNet.uav[20] utilizationSecMaintenance 8571.968980544
scalar OsgEarthNet.uav[20] utilizationSecCharge 76710
scalar OsgEarthNet.uav[20] utilizationSecIdle 162214.90425655
scalar OsgEarthNet.uav[20] utilizationEnergyMission 57689.900173187
scalar OsgEarthNet.uav[20] utilizationEnergyMaintenance 41104.492378235
scalar OsgEarthNet.uav[20] utilizationEnergyCharge 98664.209472656
scalar OsgEarthNet.uav[20] utilizationEnergyOverdrawMission 0
scalar OsgEarthNet.uav[20] utilizationEnergyOverdrawMaintenance 0
scalar OsgEarthNet.uav[20] utilizationCountMissions 22
scalar OsgEarthNet.uav[20] utilizationCountManeuversMission 455
scalar OsgEarthNet.uav[20] utilizationCountManeuversMaintenance 44
scalar OsgEarthNet.uav[20] utilizationCountChargeState 22
scalar OsgEarthNet.uav[20] utilizationCountOverdrawnAfterMission 0
scalar OsgEarthNet.uav[20] utilizationCountIdleState 23
scalar OsgEarthNet.uav[20] utilizationFail 0
scalar OsgEarthNet.uav[20] simulationTime 259200
scalar OsgEarthNet.uav[21] utilizationSecMission 21955.499107123
scalar OsgEarthNet.uav[21] utilizationSecMaintenance 14844.48075803
scalar OsgEarthNet.uav[21] utilizationSecCharge 142520
scalar OsgEarthNet.uav[21] utilizationSecIdle 79880.019134847
scalar OsgEarthNet.uav[21] utilizationEnergyMission 106168.38353348
scalar OsgEarthNet.uav[21] utilizationEnergyMaintenance 70478.857795715
scalar OsgEarthNet.uav[21] utilizationEnergyCharge 175904.86181641
scalar OsgEarthNet.uav[21] utilizationEnergyOverdrawMission 0
scalar OsgEarthNet.uav[21] utilizationEnergyOverdrawMaintenance 0
scalar OsgEarthNet.uav[21] utilizationCountMissions 45
scalar OsgEarthNet.uav[21] utilizationCountManeuversMission 688
scalar OsgEarthNet.uav[21] utilizationCountManeuversMaintenance 90
scalar OsgEarthNet.uav[21] utilizationCountChargeState 45
scalar OsgEarthNet.uav[21] utilizationCountOverdrawnAfterMission 0
scalar OsgEarthNet.uav[21] utilizationCountIdleState 46
scalar OsgEarthNet.uav[21] utilizationFail 0
scalar OsgEarthNet.uav[21] simulationTime 259200
scalar OsgEarthNet.uav[22] utilizationSecMission 42198.876515055
scalar OsgEarthNet.uav[22] utilizationSecMaintenance 17693.032162588
scalar OsgEarthNet.uav[22] utilizationSecCharge 197896.08932236
scalar OsgEarthNet.uav[22] utilizationSecIdle 1412.001
scalar OsgEarthNet.uav[22] utilizationEnergyMission 205126.74261475
scalar OsgEarthNet.uav[22] utilizationEnergyMaintenance 81015.597385407
scalar OsgEarthNet.uav[22] utilizationEnergyCharge 280831.56567383
scalar OsgEarthNet.uav[22] utilizationEnergyOverdrawMission 0
scalar OsgEarthNet.uav[22] utilizationEnergyOverdrawMaintenance 0
scalar OsgEarthNet.uav[22] utilizationCountMissions 62
scalar OsgEarthNet.uav[22] utilizationCountManeuversMission 1254
scalar OsgEarthNet.uav[22] utilizationCountManeuversMaintenance 124
scalar OsgEarthNet.uav[22] utilizationCountChargeState 62
scalar OsgEarthNet.uav[22] utilizationCountOverdrawnAfterMission 0
scalar OsgEarthNet.uav[22] utilizationCountIdleState 10
scalar OsgEarthNet.uav[22] utilizationFail 0
scalar OsgEarthNet.uav[22] simulationTime 259200
scalar OsgEarthNet.uav[23] utilizationSecMission 11904.376068062
scalar OsgEarthNet.uav[23] utilizationSecMaintenance 7878.1682483826
scalar OsgEarthNet.uav[23] utilizationSecCharge 73365.005791611
scalar OsgEarthNet.uav[23] utilizationSecIdle 166052.44889194
scalar OsgEarthNet.uav[23] utilizationEnergyMission 55745.811950684
scalar OsgEarthNet.uav[23] utilizationEnergyMaintenance 37505.108242035
scalar OsgEarthNet.uav[23] utilizationEnergyCharge 95182.784667969
scalar OsgEarthNet.uav[23] utilizationEnergyOverdrawMission 0
scalar OsgEarthNet.uav[23] utilizationEnergyOverdrawMaintenance 0
scalar OsgEarthNet.uav[23] utilizationCountMissions 21
scalar OsgEarthNet.uav[23] utilizationCountManeuversMission 413
scalar OsgEarthNet.uav[23] utilizationCountManeuversMaintenance 42
scalar OsgEarthNet.uav[23] utilizationCountChargeState 21
scalar OsgEarthNet.uav[23] utilizationCountOverdrawnAfterMission 0
scalar OsgEarthNet.uav[23] utilizationCountIdleState 21
scalar OsgEarthNet.uav[23] utilizationFail 0
scalar OsgEarthNet.uav[23] simulationTime 259200
scalar OsgEarthNet.uav[24] utilizationSecMission 16873.046546128
scalar OsgEarthNet.uav[24] utilizationSecMaintenance 11265.581769494
scalar OsgEarthNet.uav[24] utilizationSecCharge 109760
scalar OsgEarthNet.uav[24] utilizationSecIdle 121301.37068438
scalar OsgEarthNet.uav[24] utilizationEnergyMission 82616.49508667
scalar OsgEarthNet.uav[24] utilizationEnergyMaintenance 53916.265232086
scalar OsgEarthNet.uav[24] utilizationEnergyCharge 136673.0390625
scalar OsgEarthNet.uav[24] utilizationEnergyOverdrawMission 0
scalar OsgEarthNet.uav[24] utilizationEnergyOverdrawMaintenance 0
scalar OsgEarthNet.uav[24] utilizationCountMissions 34
scalar OsgEarthNet.uav[24] utilizationCountManeuversMission 531
scalar OsgEarthNet.uav[24] utilizationCountManeuversMaintenance 68
scalar OsgEarthNet.uav[24] utilizationCountChargeState 34
scalar OsgEarthNet.uav[24] utilizationCountOverdrawnAfterMission 0
scalar OsgEarthNet.uav[24] utilizationCountIdleState 35
scalar OsgEarthNet.uav[24] utilizationFail 0
scalar OsgEarthNet.uav[24] simulationTime 259200
scalar OsgEarthNet.uav[25] utilizationSecMission 40432.846807389
scalar OsgEarthNet.uav[25] utilizationSecMaintenance 18435.147192611
scalar OsgEarthNet.uav[25] utilizationSecCharge 197150
scalar OsgEarthNet.uav[25] utilizationSecIdle 3182.005
scalar OsgEarthNet.uav[25] utilizationEnergyMission 194235.226465
scalar OsgEarthNet.uav[25] utilizationEnergyMaintenance 85024.087352753
scalar OsgEarthNet.uav[25] utilizationEnergyCharge 278869.77587891
scalar OsgEarthNet.uav[25] utilizationEnergyOverdrawMission 0
scalar OsgEarthNet.uav[25] utilizationEnergyOverdrawMaintenance 0
scalar OsgEarthNet.uav[25] utilizationCountMissions 61
scalar OsgEarthNet.uav[25] utilizationCountManeuversMission 1248
scalar OsgEarthNet.uav[25] utilizationCountManeuversMaintenance 123
scalar OsgEarthNet.uav[25] utilizationCountChargeState 61
scalar OsgEarthNet.uav[25] utilizationCountOverdrawnAfterMission 0
scalar OsgEarthNet.uav[25] utilizationCountIdleState 10
scalar OsgEarthNet.uav[25] utilizationFail 0
scalar OsgEarthNet.uav[25] simulationTime 259200
scalar OsgEarthNet.uav[26] utilizationSecMission 11864.485143141
scalar OsgEarthNet.uav[26] utilizationSecMaintenance 7602.7193470082
scalar OsgEarthNet.uav[26] utilizationSecCharge 72990
scalar OsgEarthNet.uav[26] utilizationSecIdle 166742.79450985
scalar OsgEarthNet.uav[26] utilizationEnergyMission 57666.20860672
scalar OsgEarthNet.uav[26] utilizationEnergyMaintenance 35814.037624359
scalar OsgEarthNet.uav[26] utilizationEnergyCharge 93756.9765625
scalar OsgEarthNet.uav[26] utilizationEnergyOverdrawMission 0
scalar OsgEarthNet.uav[26] utilizationEnergyOverdrawMaintenance 0
scalar OsgEarthNet.uav[26] utilizationCountMissions 21
scalar OsgEarthNet.uav[26] utilizationCountManeuversMission 394
scalar OsgEarthNet.uav[26] utilizationCountManeuversMaintenance 42
scalar OsgEarthNet.uav[26] utilizationCountChargeState 21
scalar OsgEarthNet.uav[26] utilizationCountOverdrawnAfterMission 0
scalar OsgEarthNet.uav[26] utilizationCountIdleState 22
scalar OsgEarthNet.uav[26] utilizationFail 0
scalar OsgEarthNet.uav[26] simulationTime 259200
scalar OsgEarthNet.uav[27] utilizationSecMission 23668.199303372
scalar OsgEarthNet.uav[27] utilizationSecMaintenance 15987.120198324
scalar OsgEarthNet.uav[27] utilizationSecCharge 154120
scalar OsgEarthNet.uav[27] utilizationSecIdle 65424.679498304
scalar OsgEarthNet.uav[27] utilizationEnergyMission 113407.44398499
scalar OsgEarthNet.uav[27] utilizationEnergyMaintenance 76161.961387634
scalar OsgEarthNet.uav[27] utilizationEnergyCharge 189755.6875
scalar OsgEarthNet.uav[27] utilizationEnergyOverdrawMission 0
scalar OsgEarthNet.uav[27] utilizationEnergyOverdrawMaintenance 0
scalar OsgEarthNet.uav[27] utilizationCountMissions 49
scalar OsgEarthNet.uav[27] utilizationCountManeuversMission 714
scalar OsgEarthNet.uav[27] utilizationCountManeuversMaintenance 98
scalar OsgEarthNet.uav[27] utilizationCountChargeState 49
scalar OsgEarthNet.uav[27] utilizationCountOverdrawnAfterMission 0
scalar OsgEarthNet.uav[27] utilizationCountIdleState 50
scalar OsgEarthNet.uav[27] utilizationFail 0
scalar OsgEarthNet.uav[27] simulationTime 259200
scalar OsgEarthNet.uav[28] utilizationSecMission 42738.267096165
scalar OsgEarthNet.uav[28] utilizationSecMaintenance 16729.24518821
scalar OsgEarthNet.uav[28] utilizationSecCharge 198610.48671563
scalar OsgEarthNet.uav[28] utilizationSecIdle 1122
scalar OsgEarthNet.uav[28] utilizationEnergyMission 204465.80831255
scalar OsgEarthNet.uav[28] utilizationEnergyMaintenance 77069.030727387
scalar OsgEarthNet.uav[28] utilizationEnergyCharge 280796.50634766
scalar OsgEarthNet.uav[28] utilizationEnergyOverdrawMission 0
scalar OsgEarthNet.uav[28] utilizationEnergyOverdrawMaintenance 0
scalar OsgEarthNet.uav[28] utilizationCountMissions 61
scalar OsgEarthNet.uav[28] utilizationCountManeuversMission 1122
scalar OsgEarthNet.uav[28] utilizationCountManeuversMaintenance 121
scalar OsgEarthNet.uav[28] utilizationCountChargeState 61
scalar OsgEarthNet.uav[28] utilizationCountOverdrawnAfterMission 0
scalar OsgEarthNet.uav[28] utilizationCountIdleState 12
scalar OsgEarthNet.uav[28] utilizationFail 0
scalar OsgEarthNet.uav[28] simulationTime 259200
scalar OsgEarthNet.uav[29] utilizationSecMission 16036.618639633
scalar OsgEarthNet.uav[29] utilizationSecMaintenance 9938.9128850582
scalar OsgEarthNet.uav[29] utilizationSecCharge 97950
scalar OsgEarthNet.uav[29] utilizationSecIdle 135274.46747531
scalar OsgEarthNet.uav[29] utilizationEnergyMission 77731.048107147
scalar OsgEarthNet.uav[29] utilizationEnergyMaintenance 47068.814559936
scalar OsgEarthNet.uav[29] utilizationEnergyCharge 126054.12841797
scalar OsgEarthNet.uav[29] utilizationEnergyOverdrawMission 0
scalar OsgEarthNet.uav[29] utilizationEnergyOverdrawMaintenance 0
scalar OsgEarthNet.uav[29] utilizationCountMissions 28
scalar OsgEarthNet.uav[29] utilizationCountManeuversMission 520
scalar OsgEarthNet.uav[29] utilizationCountManeuversMaintenance 56
scalar OsgEarthNet.uav[29] utilizationCountChargeState 28
scalar OsgEarthNet.uav[29] utilizationCountOverdrawnAfterMission 0
scalar OsgEarthNet.uav[29] utilizationCountIdleState 29
scalar OsgEarthNet.uav[29] utilizationFail 0
scalar OsgEarthNet.uav[29] simulationTime 259200
scalar OsgEarthNet.uav[30] utilizationSecMission 22388.752136124
scalar OsgEarthNet.uav[30] utilizationSecMaintenance 14414.302618383
scalar OsgEarthNet.uav[30] utilizationSecCharge 135314.94424549
scalar OsgEarthNet.uav[30] utilizationSecIdle 87082
scalar OsgEarthNet.uav[30] utilizationEnergyMission 110773.73101807
scalar OsgEarthNet.uav[30] utilizationEnergyMaintenance 68526.480640411
scalar OsgEarthNet.uav[30] utilizationEnergyCharge 175704.68310547
scalar OsgEarthNet.uav[30] utilizationEnergyOverdrawMission 0
scalar OsgEarthNet.uav[30] utilizationEnergyOverdrawMaintenance 0
scalar OsgEarthNet.uav[30] utilizationCountMissions 39
scalar OsgEarthNet.uav[30] utilizationCountManeuversMission 755
scalar OsgEarthNet.uav[30] utilizationCountManeuversMaintenance 78
scalar OsgEarthNet.uav[30] utilizationCountChargeState 39
scalar OsgEarthNet.uav[30] utilizationCountOverdrawnAfterMission 0
scalar OsgEarthNet.uav[30] utilizationCountIdleState 39
scalar OsgEarthNet.uav[30] utilizationFail 0
scalar OsgEarthNet.uav[30] simulationTime 259200
scalar OsgEarthNet.uav[31] utilizationSecMission 35655.838828198
scalar OsgEarthNet.uav[31] utilizationSecMaintenance 15921.435705343
scalar OsgEarthNet.uav[31] utilizationSecCharge 177430
scalar OsgEarthNet.uav[31] utilizationSecIdle 30192.724466459
scalar OsgEarthNet.uav[31] utilizationEnergyMission 172546.20483398
scalar OsgEarthNet.uav[31] utilizationEnergyMaintenance 74271.422067992
scalar OsgEarthNet.uav[31] utilizationEnergyCharge 245581.31347656
scalar OsgEarthNet.uav[31] utilizationEnergyOverdrawMission 0
scalar OsgEarthNet.uav[31] utilizationEnergyOverdrawMaintenance 0
scalar OsgEarthNet.uav[31] utilizationCountMissions 54
scalar OsgEarthNet.uav[31] utilizationCountManeuversMission 1100
scalar OsgEarthNet.uav[31] utilizationCountManeuversMaintenance 109
scalar OsgEarthNet.uav[31] utilizationCountChargeState 54
scalar OsgEarthNet.uav[31] utilizationCountOverdrawnAfterMission 0
scalar OsgEarthNet.uav[31] utilizationCountIdleState 18
scalar OsgEarthNet.uav[31] utilizationFail 0
scalar OsgEarthNet.uav[31] simulationTime 259200
scalar OsgEarthNet.uav[32] utilizationSecMission 41294.570098734
scalar OsgEarthNet.uav[32] utilizationSecMaintenance 17594.013412712
scalar OsgEarthNet.uav[32] utilizationSecCharge 196441.57867451
scalar OsgEarthNet.uav[32] utilizationSecIdle 3869.83681404
scalar OsgEarthNet.uav[32] utilizationEnergyMission 200787.83898544
scalar OsgEarthNet.uav[32] utilizationEnergyMaintenance 80583.104000092
scalar OsgEarthNet.uav[32] utilizationEnergyCharge 278770.359375
scalar OsgEarthNet.uav[32] utilizationEnergyOverdrawMission 0
scalar OsgEarthNet.uav[32] utilizationEnergyOverdrawMaintenance 0
scalar OsgEarthNet.uav[32] utilizationCountMissions 61
scalar OsgEarthNet.uav[32] utilizationCountManeuversMission 1266
scalar OsgEarthNet.uav[32] utilizationCountManeuversMaintenance 122
scalar OsgEarthNet.uav[32] utilizationCountChargeState 61
scalar OsgEarthNet.uav[32] utilizationCountOverdrawnAfterMission 0
scalar OsgEarthNet.uav[32] utilizationCountIdleState 10
scalar OsgEarthNet.uav[32] utilizationFail 0
scalar OsgEarthNet.uav[32] simulationTime 259200
scalar OsgEarthNet.uav[33] utilizationSecMission 42638.585852376
scalar OsgEarthNet.uav[33] utilizationSecMaintenance 16909.117978848
scalar OsgEarthNet.uav[33] utilizationSecCharge 195561.34591311
scalar OsgEarthNet.uav[33] utilizationSecIdle 4090.9492556647
scalar OsgEarthNet.uav[33] utilizationEnergyMission 204604.37546158
scalar OsgEarthNet.uav[33] utilizationEnergyMaintenance 77373.237937927
scalar OsgEarthNet.uav[33] utilizationEnergyCharge 277902.87524414
scalar OsgEarthNet.uav[33] utilizationEnergyOverdrawMission 0
scalar OsgEarthNet.uav[33] utilizationEnergyOverdrawMaintenance 0
scalar OsgEarthNet.uav[33] utilizationCountMissions 61
scalar OsgEarthNet.uav[33] utilizationCountManeuversMission 1194
scalar OsgEarthNet.uav[33] utilizationCountManeuversMaintenance 122
scalar OsgEarthNet.uav[33] utilizationCountChargeState 61
scalar OsgEarthNet.uav[33] utilizationCountOverdrawnAfterMission 0
scalar OsgEarthNet.uav[33] utilizationCountIdleState 9
scalar OsgEarthNet.uav[33] utilizationFail 0
scalar OsgEarthNet.uav[33] simulationTime 259200
scalar OsgEarthNet.uav[34] utilizationSecMission 20587.686824727
scalar OsgEarthNet.uav[34] utilizationSecMaintenance 14296.376191496
scalar OsgEarthNet.uav[34] utilizationSecCharge 136110
scalar OsgEarthNet.uav[34] utilizationSecIdle 88205.935983778
scalar OsgEarthNet.uav[34] utilizationEnergyMission 101572.99290466
scalar OsgEarthNet.uav[34] utilizationEnergyMaintenance 67931.440982819
scalar OsgEarthNet.uav[34] utilizationEnergyCharge 168107.09570312
scalar OsgEarthNet.uav[34] utilizationEnergyOverdrawMission 0
scalar OsgEarthNet.uav[34] utilizationEnergyOverdrawMaintenance 0
scalar OsgEarthNet.uav[34] utilizationCountMissions 43
scalar OsgEarthNet.uav[34] utilizationCountManeuversMission 662
scalar OsgEarthNet.uav[34] utilizationCountManeuversMaintenance 86
scalar OsgEarthNet.uav[34] utilizationCountChargeState 43
scalar OsgEarthNet.uav[34] utilizationCountOverdrawnAfterMission 0
scalar OsgEarthNet.uav[34] utilizationCountIdleState 44
scalar OsgEarthNet.uav[34] utilizationFail 0
scalar OsgEarthNet.uav[34] simulationTime 259200
scalar OsgEarthNet.uav[35] utilizationSecMission 42943.49688544
scalar OsgEarthNet.uav[35] utilizationSecMaintenance 16638.104646686
scalar OsgEarthNet.uav[35] utilizationSecCharge 197386.39446787
scalar OsgEarthNet.uav[35] utilizationSecIdle 2232.003
scalar OsgEarthNet.uav[35] utilizationEnergyMission 205344.90914536
scalar OsgEarthNet.uav[35] utilizationEnergyMaintenance 75390.003307343
scalar OsgEarthNet.uav[35] utilizationEnergyCharge 276878.01635742
scalar OsgEarthNet.uav[35] utilizationEnergyOverdrawMission 0
scalar OsgEarthNet.uav[35] utilizationEnergyOverdrawMaintenance 0
scalar OsgEarthNet.uav[35] utilizationCountMissions 61
scalar OsgEarthNet.uav[35] utilizationCountManeuversMission 1117
scalar OsgEarthNet.uav[35] utilizationCountManeuversMaintenance 122
scalar OsgEarthNet.uav[35] utilizationCountChargeState 61
scalar OsgEarthNet.uav[35] utilizationCountOverdrawnAfterMission 0
scalar OsgEarthNet.uav[35] utilizationCountIdleState 11
scalar OsgEarthNet.uav[35] utilizationFail 0
scalar OsgEarthNet.uav[35] simulationTime 259200
scalar OsgEarthNet.uav[36] utilizationSecMission 15535.259259393
scalar OsgEarthNet.uav[36] utilizationSecMaintenance 10635.465435682
scalar OsgEarthNet.uav[36] utilizationSecCharge 98240
scalar OsgEarthNet.uav[36] utilizationSecIdle 134789.27430492
scalar OsgEarthNet.uav[36] utilizationEnergyMission 75861.0766716
scalar OsgEarthNet.uav[36] utilizationEnergyMaintenance 50412.428482056
scalar OsgEarthNet.uav[36] utilizationEnergyCharge 126632.72314453
scalar OsgEarthNet.uav[36] utilizationEnergyOverdrawMission 0
scalar OsgEarthNet.uav[36] utilizationEnergyOverdrawMaintenance 0
scalar OsgEarthNet.uav[36] utilizationCountMissions 28
scalar OsgEarthNet.uav[36] utilizationCountManeuversMission 564
scalar OsgEarthNet.uav[36] utilizationCountManeuversMaintenance 56
scalar OsgEarthNet.uav[36] utilizationCountChargeState 28
scalar OsgEarthNet.uav[36] utilizationCountOverdrawnAfterMission 0
scalar OsgEarthNet.uav[36] utilizationCountIdleState 29
scalar OsgEarthNet.uav[36] utilizationFail 0
scalar OsgEarthNet.uav[36] simulationTime 259200
scalar OsgEarthNet.uav[37] utilizationSecMission 21359.478150741
scalar OsgEarthNet.uav[37] utilizationSecMaintenance 13696.852671271
scalar OsgEarthNet.uav[37] utilizationSecCharge 133470
scalar OsgEarthNet.uav[37] utilizationSecIdle 90673.668177988
scalar OsgEarthNet.uav[37] utilizationEnergyMission 102957.62031174
scalar OsgEarthNet.uav[37] utilizationEnergyMaintenance 65705.746086609
scalar OsgEarthNet.uav[37] utilizationEnergyCharge 165015.90307617
scalar OsgEarthNet.uav[37] utilizationEnergyOverdrawMission 0
scalar OsgEarthNet.uav[37] utilizationEnergyOverdrawMaintenance 0
scalar OsgEarthNet.uav[37] utilizationCountMissions 43
scalar OsgEarthNet.uav[37] utilizationCountManeuversMission 612
scalar OsgEarthNet.uav[37] utilizationCountManeuversMaintenance 86
scalar OsgEarthNet.uav[37] utilizationCountChargeState 42
scalar OsgEarthNet.uav[37] utilizationCountOverdrawnAfterMission 0
scalar OsgEarthNet.uav[37] utilizationCountIdleState 43
scalar OsgEarthNet.uav[37] utilizationFail 0
scalar OsgEarthNet.uav[37] simulationTime 259200
scalar OsgEarthNet.uav[38] utilizationSecMission 23332.342393266
scalar OsgEarthNet.uav[38] utilizationSecMaintenance 15130.95124433
scalar OsgEarthNet.uav[38] utilizationSecCharge 142770
scalar OsgEarthNet.uav[38] utilizationSecIdle 77966.705362404
scalar OsgEarthNet.uav[38] utilizationEnergyMission 113940.04446276
scalar OsgEarthNet.uav[38] utilizationEnergyMaintenance 71551.990089417
scalar OsgEarthNet.uav[38] utilizationEnergyCharge 185073.40039062
scalar OsgEarthNet.uav[38] utilizationEnergyOverdrawMission 0
scalar OsgEarthNet.uav[38] utilizationEnergyOverdrawMaintenance 0
scalar OsgEarthNet.uav[38] utilizationCountMissions 45
scalar OsgEarthNet.uav[38] utilizationCountManeuversMission 789
scalar OsgEarthNet.uav[38] utilizationCountManeuversMaintenance 91
scalar OsgEarthNet.uav[38] utilizationCountChargeState 45
scalar OsgEarthNet.uav[38] utilizationCountOverdrawnAfterMission 0
scalar OsgEarthNet.uav[38] utilizationCountIdleState 34
scalar OsgEarthNet.uav[38] utilizationFail 0
scalar OsgEarthNet.uav[38] simulationTime 259200
scalar OsgEarthNet.uav[39] utilizationSecMission 15156.509564553
scalar OsgEarthNet.uav[39] utilizationSecMaintenance 9494.2129144636
scalar OsgEarthNet.uav[39] utilizationSecCharge 89697.263520983
scalar OsgEarthNet.uav[39] utilizationSecIdle 144852.013
scalar OsgEarthNet.uav[39] utilizationEnergyMission 73988.676631928
scalar OsgEarthNet.uav[39] utilizationEnergyMaintenance 45127.848808288
scalar OsgEarthNet.uav[39] utilizationEnergyCharge 116685.69238281
scalar OsgEarthNet.uav[39] utilizationEnergyOverdrawMission 0
scalar OsgEarthNet.uav[39] utilizationEnergyOverdrawMaintenance 0
scalar OsgEarthNet.uav[39] utilizationCountMissions 26
scalar OsgEarthNet.uav[39] utilizationCountManeuversMission 493
scalar OsgEarthNet.uav[39] utilizationCountManeuversMaintenance 52
scalar OsgEarthNet.uav[39] utilizationCountChargeState 26
scalar OsgEarthNet.uav[39] utilizationCountOverdrawnAfterMission 0
scalar OsgEarthNet.uav[39] utilizationCountIdleState 26
scalar OsgEarthNet.uav[39] utilizationFail 0
scalar OsgEarthNet.uav[39] simulationTime 259200
scalar OsgEarthNet.uav[40] utilizationSecMission 17579.744402534
scalar OsgEarthNet.uav[40] utilizationSecMaintenance 8755.0526234608
scalar OsgEarthNet.uav[40] utilizationSecCharge 97610
scalar OsgEarthNet.uav[40] utilizationSecIdle 135255.20197401
scalar OsgEarthNet.uav[40] utilizationEnergyMission 83818.510307312
scalar OsgEarthNet.uav[40] utilizationEnergyMaintenance 41491.072128296
scalar OsgEarthNet.uav[40] utilizationEnergyCharge 125553.47314453
scalar OsgEarthNet.uav[40] utilizationEnergyOverdrawMission 0
scalar OsgEarthNet.uav[40] utilizationEnergyOverdrawMaintenance 0
scalar OsgEarthNet.uav[40] utilizationCountMissions 28
scalar OsgEarthNet.uav[40] utilizationCountManeuversMission 467
scalar OsgEarthNet.uav[40] utilizationCountManeuversMaintenance 56
scalar OsgEarthNet.uav[40] utilizationCountChargeState 28
scalar OsgEarthNet.uav[40] utilizationCountOverdrawnAfterMission 0
scalar OsgEarthNet.uav[40] utilizationCountIdleState 29
scalar OsgEarthNet.uav[40] utilizationFail 0
scalar OsgEarthNet.uav[40] simulationTime 259200
scalar OsgEarthNet.uav[41] utilizationSecMission 23210.098714624
scalar OsgEarthNet.uav[41] utilizationSecMaintenance 16108.494342795
scalar OsgEarthNet.uav[41] utilizationSecCharge 151530
scalar OsgEarthNet.uav[41] utilizationSecIdle 68351.40594258
scalar OsgEarthNet.uav[41] utilizationEnergyMission 116112.46258163
scalar OsgEarthNet.uav[41] utilizationEnergyMaintenance 76459.152656555
scalar OsgEarthNet.uav[41] utilizationEnergyCharge 190556.81665039
scalar OsgEarthNet.uav[41] utilizationEnergyOverdrawMission 0
scalar OsgEarthNet.uav[41] utilizationEnergyOverdrawMaintenance 0
scalar OsgEarthNet.uav[41] utilizationCountMissions 46
scalar OsgEarthNet.uav[41] utilizationCountManeuversMission 870
scalar OsgEarthNet.uav[41] utilizationCountManeuversMaintenance 92
scalar OsgEarthNet.uav[41] utilizationCountChargeState 46
scalar OsgEarthNet.uav[41] utilizationCountOverdrawnAfterMission 0
scalar OsgEarthNet.uav[41] utilizationCountIdleState 47
scalar OsgEarthNet.uav[41] utilizationFail 0
scalar OsgEarthNet.uav[41] simulationTime 259200
scalar OsgEarthNet.uav[42] utilizationSecMission 40482.11560005
scalar OsgEarthNet.uav[42] utilizationSecMaintenance 18735.688356796
scalar OsgEarthNet.uav[42] utilizationSecCharge 197930.19304315
scalar OsgEarthNet.uav[42] utilizationSecIdle 2052.002
scalar OsgEarthNet.uav[42] utilizationEnergyMission 197262.93643188
scalar OsgEarthNet.uav[42] utilizationEnergyMaintenance 85785.875724793
scalar OsgEarthNet.uav[42] utilizationEnergyCharge 281902.26708984
scalar OsgEarthNet.uav[42] utilizationEnergyOverdrawMission 0
scalar OsgEarthNet.uav[42] utilizationEnergyOverdrawMaintenance 0
scalar OsgEarthNet.uav[42] utilizationCountMissions 62
scalar OsgEarthNet.uav[42] utilizationCountManeuversMission 1291
scalar OsgEarthNet.uav[42] utilizationCountManeuversMaintenance 124
scalar OsgEarthNet.uav[42] utilizationCountChargeState 62
scalar OsgEarthNet.uav[42] utilizationCountOverdrawnAfterMission 0
scalar OsgEarthNet.uav[42] utilizationCountIdleState 7
scalar OsgEarthNet.uav[42] utilizationFail 0
scalar OsgEarthNet.uav[42] simulationTime 259200
scalar OsgEarthNet.uav[43] utilizationSecMission 17117.759869714
scalar OsgEarthNet.uav[43] utilizationSecMaintenance 10328.037123794
scalar OsgEarthNet.uav[43] utilizationSecCharge 101870
scalar OsgEarthNet.uav[43] utilizationSecIdle 129884.20200649
scalar OsgEarthNet.uav[43] utilizationEnergyMission 82627.888286591
scalar OsgEarthNet.uav[43] utilizationEnergyMaintenance 49018.593166351
scalar OsgEarthNet.uav[43] utilizationEnergyCharge 131360.88574219
scalar OsgEarthNet.uav[43] utilizationEnergyOverdrawMission 0
scalar OsgEarthNet.uav[43] utilizationEnergyOverdrawMaintenance 0
scalar OsgEarthNet.uav[43] utilizationCountMissions 29
scalar OsgEarthNet.uav[43] utilizationCountManeuversMission 539
scalar OsgEarthNet.uav[43] utilizationCountManeuversMaintenance 58
scalar OsgEarthNet.uav[43] utilizationCountChargeState 29
scalar OsgEarthNet.uav[43] utilizationCountOverdrawnAfterMission 0
scalar OsgEarthNet.uav[43] utilizationCountIdleState 30
scalar OsgEarthNet.uav[43] utilizationFail 0
scalar OsgEarthNet.uav[43] simulationTime 259200
scalar OsgEarthNet.uav[44] utilizationSecMission 23877.354731489
scalar OsgEarthNet.uav[44] utilizationSecMaintenance 15433.88137631
scalar OsgEarthNet.uav[44] utilizationSecCharge 149066.7558922
scalar OsgEarthNet.uav[44] utilizationSecIdle 70822.007
scalar OsgEarthNet.uav[44] utilizationEnergyMission 116315.64828491
scalar OsgEarthNet.uav[44] utilizationEnergyMaintenance 72908.790382385
scalar OsgEarthNet.uav[44] utilizationEnergyCharge 187945.38623047
scalar OsgEarthNet.uav[44] utilizationEnergyOverdrawMission 0
scalar OsgEarthNet.uav[44] utilizationEnergyOverdrawMaintenance 0
scalar OsgEarthNet.uav[44] utilizationCountMissions 46
scalar OsgEarthNet.uav[44] utilizationCountManeuversMission 759
scalar OsgEarthNet.uav[44] utilizationCountManeuversMaintenance 92
scalar OsgEarthNet.uav[44] utilizationCountChargeState 46
scalar OsgEarthNet.uav[44] utilizationCountOverdrawnAfterMission 0
scalar OsgEarthNet.uav[44] utilizationCountIdleState 46
scalar OsgEarthNet.uav[44] utilizationFail 0
scalar OsgEarthNet.uav[44] simulationTime 259200
scalar OsgEarthNet.uav[45] utilizationSecMission 41864.876992287
scalar OsgEarthNet.uav[45] utilizationSecMaintenance 17354.041305534
scalar OsgEarthNet.uav[45] utilizationSecCharge 198173.63043815
scalar OsgEarthNet.uav[45] utilizationSecIdle 1807.4502640309
scalar OsgEarthNet.uav[45] utilizationEnergyMission 203460.37620163
scalar OsgEarthNet.uav[45] utilizationEnergyMaintenance 80438.702365875
scalar OsgEarthNet.uav[45] utilizationEnergyCharge 281476.93017578
scalar OsgEarthNet.uav[45] utilizationEnergyOverdrawMission 0
scalar OsgEarthNet.uav[45] utilizationEnergyOverdrawMaintenance 0
scalar OsgEarthNet.uav[45] utilizationCountMissions 61
scalar OsgEarthNet.uav[45] utilizationCountManeuversMission 1249
scalar OsgEarthNet.uav[45] utilizationCountManeuversMaintenance 122
scalar OsgEarthNet.uav[45] utilizationCountChargeState 61
scalar OsgEarthNet.uav[45] utilizationCountOverdrawnAfterMission 0
scalar OsgEarthNet.uav[45] utilizationCountIdleState 10
scalar OsgEarthNet.uav[45] utilizationFail 0
scalar OsgEarthNet.uav[45] simulationTime 259200
scalar OsgEarthNet.uav[46] utilizationSecMission 20719.119249954
scalar OsgEarthNet.uav[46] utilizationSecMaintenance 12403.422194029
scalar OsgEarthNet.uav[46] utilizationSecCharge 121125.45555602
scalar OsgEarthNet.uav[46] utilizationSecIdle 104952.002
scalar OsgEarthNet.uav[46] utilizationEnergyMission 101049.89654922
scalar OsgEarthNet.uav[46] utilizationEnergyMaintenance 59059.414279938
scalar OsgEarthNet.uav[46] utilizationEnergyCharge 156874.77587891
scalar OsgEarthNet.uav[46] utilizationEnergyOverdrawMission 0
scalar OsgEarthNet.uav[46] utilizationEnergyOverdrawMaintenance 0
scalar OsgEarthNet.uav[46] utilizationCountMissions 35
scalar OsgEarthNet.uav[46] utilizationCountManeuversMission 650
scalar OsgEarthNet.uav[46] utilizationCountManeuversMaintenance 70
scalar OsgEarthNet.uav[46] utilizationCountChargeState 35
scalar OsgEarthNet.uav[46] utilizationCountOverdrawnAfterMission 0
scalar OsgEarthNet.uav[46] utilizationCountIdleState 35
scalar OsgEarthNet.uav[46] utilizationFail 0
scalar OsgEarthNet.uav[46] simulationTime 259200
scalar OsgEarthNet.uav[47] utilizationSecMission 23753.253345991
scalar OsgEarthNet.uav[47] utilizationSecMaintenance 16859.230151943
scalar OsgEarthNet.uav[47] utilizationSecCharge 158180
scalar OsgEarthNet.uav[47] utilizationSecIdle 60407.515502066
scalar OsgEarthNet.uav[47] utilizationEnergyMission 117373.85837555
scalar OsgEarthNet.uav[47] utilizationEnergyMaintenance 80434.325675964
scalar OsgEarthNet.uav[47] utilizationEnergyCharge 197226.78808594
scalar OsgEarthNet.uav[47] utilizationEnergyOverdrawMission 0
scalar OsgEarthNet.uav[47] utilizationEnergyOverdrawMaintenance 0
scalar OsgEarthNet.uav[47] utilizationCountMissions 49
scalar OsgEarthNet.uav[47] utilizationCountManeuversMission 852
scalar OsgEarthNet.uav[47] utilizationCountManeuversMaintenance 98
scalar OsgEarthNet.uav[47] utilizationCountChargeState 49
scalar OsgEarthNet.uav[47] utilizationCountOverdrawnAfterMission 0
scalar OsgEarthNet.uav[47] utilizationCountIdleState 50
scalar OsgEarthNet.uav[47] utilizationFail 0
scalar OsgEarthNet.uav[47] simulationTime 259200
scalar OsgEarthNet.uav[48] utilizationSecMission 41786.534321358
scalar OsgEarthNet.uav[48] utilizationSecMaintenance 18272.722231636
scalar OsgEarthNet.uav[48] utilizationSecCharge 197688.74244701
scalar OsgEarthNet.uav[48] utilizationSecIdle 1452
scalar OsgEarthNet.uav[48] utilizationEnergyMission 201052.04655196
scalar OsgEarthNet.uav[48] utilizationEnergyMaintenance 83102.371482849
scalar OsgEarthNet.uav[48] utilizationEnergyCharge 280383.86999512
scalar OsgEarthNet.uav[48] utilizationEnergyOverdrawMission 0
scalar OsgEarthNet.uav[48] utilizationEnergyOverdrawMaintenance 0
scalar OsgEarthNet.uav[48] utilizationCountMissions 62
scalar OsgEarthNet.uav[48] utilizationCountManeuversMission 1284
scalar OsgEarthNet.uav[48] utilizationCountManeuversMaintenance 123
scalar OsgEarthNet.uav[48] utilizationCountChargeState 62
scalar OsgEarthNet.uav[48] utilizationCountOverdrawnAfterMission 0
scalar OsgEarthNet.uav[48] utilizationCountIdleState 9
scalar OsgEarthNet.uav[48] utilizationFail 0
scalar OsgEarthNet.uav[48] simulationTime 259200
scalar OsgEarthNet.uav[49] utilizationSecMission 19976.509564553
scalar OsgEarthNet.uav[49] utilizationSecMaintenance 13813.81560123
scalar OsgEarthNet.uav[49] utilizationSecCharge 126820
scalar OsgEarthNet.uav[49] utilizationSecIdle 98589.673834217
scalar OsgEarthNet.uav[49] utilizationEnergyMission 96171.747905731
scalar OsgEarthNet.uav[49] utilizationEnergyMaintenance 65547.830482483
scalar OsgEarthNet.uav[49] utilizationEnergyCharge 163625.35986328
scalar OsgEarthNet.uav[49] utilizationEnergyOverdrawMission 0
scalar OsgEarthNet.uav[49] utilizationEnergyOverdrawMaintenance 0
scalar OsgEarthNet.uav[49] utilizationCountMissions 36
scalar OsgEarthNet.uav[49] utilizationCountManeuversMission 734
scalar OsgEarthNet.uav[49] utilizationCountManeuversMaintenance 72
scalar OsgEarthNet.uav[49] utilizationCountChargeState 36
scalar OsgEarthNet.uav[49] utilizationCountOverdrawnAfterMission 0
scalar OsgEarthNet.uav[49] utilizationCountIdleState 37
scalar OsgEarthNet.uav[49] utilizationFail 0
scalar OsgEarthNet.uav[49] simulationTime 259200
scalar OsgEarthNet.uav[50] utilizationSecMission 20749.377288704
scalar OsgEarthNet.uav[50] utilizationSecMaintenance 12195.615612541
scalar OsgEarthNet.uav[50] utilizationSecCharge 121443.18336202
scalar OsgEarthNet.uav[50] utilizationSecIdle 104811.82273673
scalar OsgEarthNet.uav[50] utilizationEnergyMission 98789.571296692
scalar OsgEarthNet.uav[50] utilizationEnergyMaintenance 57819.155582428
scalar OsgEarthNet.uav[50] utilizationEnergyCharge 157333.80810547
scalar OsgEarthNet.uav[50] utilizationEnergyOverdrawMission 0
scalar OsgEarthNet.uav[50] utilizationEnergyOverdrawMaintenance 0
scalar OsgEarthNet.uav[50] utilizationCountMissions 35
scalar OsgEarthNet.uav[50] utilizationCountManeuversMission 647
scalar OsgEarthNet.uav[50] utilizationCountManeuversMaintenance 70
scalar OsgEarthNet.uav[50] utilizationCountChargeState 35
scalar OsgEarthNet.uav[50] utilizationCountOverdrawnAfterMission 0
scalar OsgEarthNet.uav[50] utilizationCountIdleState 35
scalar OsgEarthNet.uav[50] utilizationFail 0
scalar OsgEarthNet.uav[50] simulationTime 259200
scalar OsgEarthNet.uav[51] utilizationSecMission 18089.388051408
scalar OsgEarthNet.uav[51] utilizationSecMaintenance 11408.600948592
scalar OsgEarthNet.uav[51] utilizationSecCharge 109270
scalar OsgEarthNet.uav[51] utilizationSecIdle 120432.01
scalar OsgEarthNet.uav[51] utilizationEnergyMission 86969.93345075
scalar OsgEarthNet.uav[51] utilizationEnergyMaintenance 53913.388122558
scalar OsgEarthNet.uav[51] utilizationEnergyCharge 139277.44799805
scalar OsgEarthNet.uav[51] utilizationEnergyOverdrawMission 0
scalar OsgEarthNet.uav[51] utilizationEnergyOverdrawMaintenance 0
scalar OsgEarthNet.uav[51] utilizationCountMissions 32
scalar OsgEarthNet.uav[51] utilizationCountManeuversMission 581
scalar OsgEarthNet.uav[51] utilizationCountManeuversMaintenance 65
scalar OsgEarthNet.uav[51] utilizationCountChargeState 32
scalar OsgEarthNet.uav[51] utilizationCountOverdrawnAfterMission 0
scalar OsgEarthNet.uav[51] utilizationCountIdleState 33
scalar OsgEarthNet.uav[51] utilizationFail 0
scalar OsgEarthNet.uav[51] simulationTime 259200
scalar OsgEarthNet.uav[52] utilizationSecMission 40496.354751646
scalar OsgEarthNet.uav[52] utilizationSecMaintenance 17918.965878399
scalar OsgEarthNet.uav[52] utilizationSecCharge 197231.15303872
scalar OsgEarthNet.uav[52] utilizationSecIdle 3553.5253312322
scalar OsgEarthNet.uav[52] utilizationEnergyMission 197500.17412186
scalar OsgEarthNet.uav[52] utilizationEnergyMaintenance 82844.460781097
scalar OsgEarthNet.uav[52] utilizationEnergyCharge 280762.90917969
scalar OsgEarthNet.uav[52] utilizationEnergyOverdrawMission 0
scalar OsgEarthNet.uav[52] utilizationEnergyOverdrawMaintenance 0
scalar OsgEarthNet.uav[52] utilizationCountMissions 61
scalar OsgEarthNet.uav[52] utilizationCountManeuversMission 1246
scalar OsgEarthNet.uav[52] utilizationCountManeuversMaintenance 122
scalar OsgEarthNet.uav[52] utilizationCountChargeState 61
scalar OsgEarthNet.uav[52] utilizationCountOverdrawnAfterMission 0
scalar OsgEarthNet.uav[52] utilizationCountIdleState 10
scalar OsgEarthNet.uav[52] utilizationFail 0
scalar OsgEarthNet.uav[52] simulationTime 259200
scalar OsgEarthNet.uav[53] utilizationSecMission 20015.644955042
scalar OsgEarthNet.uav[53] utilizationSecMaintenance 13432.350044958
scalar OsgEarthNet.uav[53] utilizationSecCharge 123410
scalar OsgEarthNet.uav[53] utilizationSecIdle 102342.004
scalar OsgEarthNet.uav[53] utilizationEnergyMission 97713.079283128
scalar OsgEarthNet.uav[53] utilizationEnergyMaintenance 64114.206760406
scalar OsgEarthNet.uav[53] utilizationEnergyCharge 159335.12695312
scalar OsgEarthNet.uav[53] utilizationEnergyOverdrawMission 0
scalar OsgEarthNet.uav[53] utilizationEnergyOverdrawMaintenance 0
scalar OsgEarthNet.uav[53] utilizationCountMissions 35
scalar OsgEarthNet.uav[53] utilizationCountManeuversMission 710
scalar OsgEarthNet.uav[53] utilizationCountManeuversMaintenance 71
scalar OsgEarthNet.uav[53] utilizationCountChargeState 35
scalar OsgEarthNet.uav[53] utilizationCountOverdrawnAfterMission 0
scalar OsgEarthNet.uav[53] utilizationCountIdleState 36
scalar OsgEarthNet.uav[53] utilizationFail 0
scalar OsgEarthNet.uav[53] simulationTime 259200
scalar OsgEarthNet.uav[54] utilizationSecMission 20682.058956604
scalar OsgEarthNet.uav[54] utilizationSecMaintenance 16081.044745691
scalar OsgEarthNet.uav[54] utilizationSecCharge 146110
scalar OsgEarthNet.uav[54] utilizationSecIdle 76326.895297705
scalar OsgEarthNet.uav[54] utilizationEnergyMission 100913.83581543
scalar OsgEarthNet.uav[54] utilizationEnergyMaintenance 76403.369976044
scalar OsgEarthNet.uav[54] utilizationEnergyCharge 177177.78344727
scalar OsgEarthNet.uav[54] utilizationEnergyOverdrawMission 0
scalar OsgEarthNet.uav[54] utilizationEnergyOverdrawMaintenance 0
scalar OsgEarthNet.uav[54] utilizationCountMissions 48
scalar OsgEarthNet.uav[54] utilizationCountManeuversMission 715
scalar OsgEarthNet.uav[54] utilizationCountManeuversMaintenance 96
scalar OsgEarthNet.uav[54] utilizationCountChargeState 48
scalar OsgEarthNet.uav[54] utilizationCountOverdrawnAfterMission 0
scalar OsgEarthNet.uav[54] utilizationCountIdleState 49
scalar OsgEarthNet.uav[54] utilizationFail 0
scalar OsgEarthNet.uav[54] simulationTime 259200
scalar OsgEarthNet.uav[55] utilizationSecMission 42253.155181158
scalar OsgEarthNet.uav[55] utilizationSecMaintenance 16925.069739596
scalar OsgEarthNet.uav[55] utilizationSecCharge 197672.59896883
scalar OsgEarthNet.uav[55] utilizationSecIdle 2349.1751104107
scalar OsgEarthNet.uav[55] utilizationEnergyMission 203421.23927307
scalar OsgEarthNet.uav[55] utilizationEnergyMaintenance 77094.938999176
scalar OsgEarthNet.uav[55] utilizationEnergyCharge 277387.42993164
scalar OsgEarthNet.uav[55] utilizationEnergyOverdrawMission 0
scalar OsgEarthNet.uav[55] utilizationEnergyOverdrawMaintenance 0
scalar OsgEarthNet.uav[55] utilizationCountMissions 61
scalar OsgEarthNet.uav[55] utilizationCountManeuversMission 1073
scalar OsgEarthNet.uav[55] utilizationCountManeuversMaintenance 122
scalar OsgEarthNet.uav[55] utilizationCountChargeState 61
scalar OsgEarthNet.uav[55] utilizationCountOverdrawnAfterMission 0
scalar OsgEarthNet.uav[55] utilizationCountIdleState 18
scalar OsgEarthNet.uav[55] utilizationFail 0
scalar OsgEarthNet.uav[55] simulationTime 259200
scalar OsgEarthNet.uav[56] utilizationSecMission 20850.627593865
scalar OsgEarthNet.uav[56] utilizationSecMaintenance 11249.704110599
scalar OsgEarthNet.uav[56] utilizationSecCharge 118702.51724132
scalar OsgEarthNet.uav[56] utilizationSecIdle 108397.15005422
scalar OsgEarthNet.uav[56] utilizationEnergyMission 99795.404037476
scalar OsgEarthNet.uav[56] utilizationEnergyMaintenance 52933.875522613
scalar OsgEarthNet.uav[56] utilizationEnergyCharge 153385.92431641
scalar OsgEarthNet.uav[56] utilizationEnergyOverdrawMission 0
scalar OsgEarthNet.uav[56] utilizationEnergyOverdrawMaintenance 0
scalar OsgEarthNet.uav[56] utilizationCountMissions 34
scalar OsgEarthNet.uav[56] utilizationCountManeuversMission 600
scalar OsgEarthNet.uav[56] utilizationCountManeuversMaintenance 68
scalar OsgEarthNet.uav[56] utilizationCountChargeState 34
scalar OsgEarthNet.uav[56] utilizationCountOverdrawnAfterMission 0
scalar OsgEarthNet.uav[56] utilizationCountIdleState 34
scalar OsgEarthNet.uav[56] utilizationFail 0
scalar OsgEarthNet.uav[56] simulationTime 259200
scalar OsgEarthNet.uav[57] utilizationSecMission 26310.526735287
scalar OsgEarthNet.uav[57] utilizationSecMaintenance 16391.118661834
scalar OsgEarthNet.uav[57] utilizationSecCharge 158120
scalar OsgEarthNet.uav[57] utilizationSecIdle 58378.353602879
scalar OsgEarthNet.uav[57] utilizationEnergyMission 128635.36985397
scalar OsgEarthNet.uav[57] utilizationEnergyMaintenance 77446.520595594
scalar OsgEarthNet.uav[57] utilizationEnergyCharge 200422.73046875
scalar OsgEarthNet.uav[57] utilizationEnergyOverdrawMission 0
scalar OsgEarthNet.uav[57] utilizationEnergyOverdrawMaintenance 0
scalar OsgEarthNet.uav[57] utilizationCountMissions 48
scalar OsgEarthNet.uav[57] utilizationCountManeuversMission 893
scalar OsgEarthNet.uav[57] utilizationCountManeuversMaintenance 96
scalar OsgEarthNet.uav[57] utilizationCountChargeState 47
scalar OsgEarthNet.uav[57] utilizationCountOverdrawnAfterMission 0
scalar OsgEarthNet.uav[57] utilizationCountIdleState 48
scalar OsgEarthNet.uav[57] utilizationFail 0
scalar OsgEarthNet.uav[57] simulationTime 259200
scalar OsgEarthNet.uav[58] utilizationSecMission 40352.726867744
scalar OsgEarthNet.uav[58] utilizationSecMaintenance 19166.458579797
scalar OsgEarthNet.uav[58] utilizationSecCharge 197159.36059374
scalar OsgEarthNet.uav[58] utilizationSecIdle 2521.4529587171
scalar OsgEarthNet.uav[58] utilizationEnergyMission 196751.33788681
scalar OsgEarthNet.uav[58] utilizationEnergyMaintenance 87876.118549347
scalar OsgEarthNet.uav[58] utilizationEnergyCharge 282492.40234375
scalar OsgEarthNet.uav[58] utilizationEnergyOverdrawMission 0
scalar OsgEarthNet.uav[58] utilizationEnergyOverdrawMaintenance 0
scalar OsgEarthNet.uav[58] utilizationCountMissions 62
scalar OsgEarthNet.uav[58] utilizationCountManeuversMission 1391
scalar OsgEarthNet.uav[58] utilizationCountManeuversMaintenance 124
scalar OsgEarthNet.uav[58] utilizationCountChargeState 62
scalar OsgEarthNet.uav[58] utilizationCountOverdrawnAfterMission 0
scalar OsgEarthNet.uav[58] utilizationCountIdleState 9
scalar OsgEarthNet.uav[58] utilizationFail 0
scalar OsgEarthNet.uav[58] simulationTime 259200
scalar OsgEarthNet.uav[59] utilizationSecMission 19367.501830963
scalar OsgEarthNet.uav[59] utilizationSecMaintenance 12423.533051654
scalar OsgEarthNet.uav[59] utilizationSecCharge 119340
scalar OsgEarthNet.uav[59] utilizationSecIdle 108068.96411738
scalar OsgEarthNet.uav[59] utilizationEnergyMission 93786.343887329
scalar OsgEarthNet.uav[59] utilizationEnergyMaintenance 59155.945732117
scalar OsgEarthNet.uav[59] utilizationEnergyCharge 153859.95117188
scalar OsgEarthNet.uav[59] utilizationEnergyOverdrawMission 0
scalar OsgEarthNet.uav[59] utilizationEnergyOverdrawMaintenance 0
scalar OsgEarthNet.uav[59] utilizationCountMissions 34
scalar OsgEarthNet.uav[59] utilizationCountManeuversMission 656
scalar OsgEarthNet.uav[59] utilizationCountManeuversMaintenance 68
scalar OsgEarthNet.uav[59] utilizationCountChargeState 34
scalar OsgEarthNet.uav[59] utilizationCountOverdrawnAfterMission 0
scalar OsgEarthNet.uav[59] utilizationCountIdleState 35
scalar OsgEarthNet.uav[59] utilizationFail 0
scalar OsgEarthNet.uav[59] simulationTime 259200
scalar OsgEarthNet.uav[60] utilizationSecMission 24000.924751489
scalar OsgEarthNet.uav[60] utilizationSecMaintenance 14353.695873381
scalar OsgEarthNet.uav[60] utilizationSecCharge 140813.37837513
scalar OsgEarthNet.uav[60] utilizationSecIdle 80032
scalar OsgEarthNet.uav[60] utilizationEnergyMission 115047.06478119
scalar OsgEarthNet.uav[60] utilizationEnergyMaintenance 68247.607372284
scalar OsgEarthNet.uav[60] utilizationEnergyCharge 181817.48779297
scalar OsgEarthNet.uav[60] utilizationEnergyOverdrawMission 0
scalar OsgEarthNet.uav[60] utilizationEnergyOverdrawMaintenance 0
scalar OsgEarthNet.uav[60] utilizationCountMissions 41
scalar OsgEarthNet.uav[60] utilizationCountManeuversMission 753
scalar OsgEarthNet.uav[60] utilizationCountManeuversMaintenance 81
scalar OsgEarthNet.uav[60] utilizationCountChargeState 41
scalar OsgEarthNet.uav[60] utilizationCountOverdrawnAfterMission 0
scalar OsgEarthNet.uav[60] utilizationCountIdleState 41
scalar OsgEarthNet.uav[60] utilizationFail 0
scalar OsgEarthNet.uav[60] simulationTime 259200
scalar OsgEarthNet.uav[61] utilizationSecMission 24578.653738489
scalar OsgEarthNet.uav[61] utilizationSecMaintenance 17157.361937411
scalar OsgEarthNet.uav[61] utilizationSecCharge 160641.9823241
scalar OsgEarthNet.uav[61] utilizationSecIdle 56822.001
scalar OsgEarthNet.uav[61] utilizationEnergyMission 119998.55868149
scalar OsgEarthNet.uav[61] utilizationEnergyMaintenance 81342.071609497
scalar OsgEarthNet.uav[61] utilizationEnergyCharge 197991.60302734
scalar OsgEarthNet.uav[61] utilizationEnergyOverdrawMission 0
scalar OsgEarthNet.uav[61] utilizationEnergyOverdrawMaintenance 0
scalar OsgEarthNet.uav[61] utilizationCountMissions 52
scalar OsgEarthNet.uav[61] utilizationCountManeuversMission 774
scalar OsgEarthNet.uav[61] utilizationCountManeuversMaintenance 104
scalar OsgEarthNet.uav[61] utilizationCountChargeState 52
scalar OsgEarthNet.uav[61] utilizationCountOverdrawnAfterMission 0
scalar OsgEarthNet.uav[61] utilizationCountIdleState 52
scalar OsgEarthNet.uav[61] utilizationFail 0
scalar OsgEarthNet.uav[61] simulationTime 259200
scalar OsgEarthNet.uav[62] utilizationSecMission 41443.214247714
scalar OsgEarthNet.uav[62] utilizationSecMaintenance 18350.674876084
scalar OsgEarthNet.uav[62] utilizationSecCharge 198684.1098762
scalar OsgEarthNet.uav[62] utilizationSecIdle 722
scalar OsgEarthNet.uav[62] utilizationEnergyMission 200576.7964859
scalar OsgEarthNet.uav[62] utilizationEnergyMaintenance 84332.198425293
scalar OsgEarthNet.uav[62] utilizationEnergyCharge 283461.07763672
scalar OsgEarthNet.uav[62] utilizationEnergyOverdrawMission 0
scalar OsgEarthNet.uav[62] utilizationEnergyOverdrawMaintenance 0
scalar OsgEarthNet.uav[62] utilizationCountMissions 62
scalar OsgEarthNet.uav[62] utilizationCountManeuversMission 1307
scalar OsgEarthNet.uav[62] utilizationCountManeuversMaintenance 124
scalar OsgEarthNet.uav[62] utilizationCountChargeState 62
scalar OsgEarthNet.uav[62] utilizationCountOverdrawnAfterMission 0
scalar OsgEarthNet.uav[62] utilizationCountIdleState 9
scalar OsgEarthNet.uav[62] utilizationFail 0
scalar OsgEarthNet.uav[62] simulationTime 259200
scalar OsgEarthNet.uav[63] utilizationSecMission 20906.876678383
scalar OsgEarthNet.uav[63] utilizationSecMaintenance 14350.047274461
scalar OsgEarthNet.uav[63] utilizationSecCharge 129400
scalar OsgEarthNet.uav[63] utilizationSecIdle 94543.075047156
scalar OsgEarthNet.uav[63] utilizationEnergyMission 103557.01135635
scalar OsgEarthNet.uav[63] utilizationEnergyMaintenance 67842.259200787
scalar OsgEarthNet.uav[63] utilizationEnergyCharge 166669.08837891
scalar OsgEarthNet.uav[63] utilizationEnergyOverdrawMission 0
scalar OsgEarthNet.uav[63] utilizationEnergyOverdrawMaintenance 0
scalar OsgEarthNet.uav[63] utilizationCountMissions 38
scalar OsgEarthNet.uav[63] utilizationCountManeuversMission 759
scalar OsgEarthNet.uav[63] utilizationCountManeuversMaintenance 76
scalar OsgEarthNet.uav[63] utilizationCountChargeState 37
scalar OsgEarthNet.uav[63] utilizationCountOverdrawnAfterMission 0
scalar OsgEarthNet.uav[63] utilizationCountIdleState 38
scalar OsgEarthNet.uav[63] utilizationFail 0
scalar OsgEarthNet.uav[63] simulationTime 259200
scalar OsgEarthNet.uav[64] utilizationSecMission 25169.092112583
scalar OsgEarthNet.uav[64] utilizationSecMaintenance 17470.099481818
scalar OsgEarthNet.uav[64] utilizationSecCharge 164998.8074056
scalar OsgEarthNet.uav[64] utilizationSecIdle 51562
scalar OsgEarthNet.uav[64] utilizationEnergyMission 122488.97708893
scalar OsgEarthNet.uav[64] utilizationEnergyMaintenance 83462.347408295
scalar OsgEarthNet.uav[64] utilizationEnergyCharge 203553.11889648
scalar OsgEarthNet.uav[64] utilizationEnergyOverdrawMission 0
scalar OsgEarthNet.uav[64] utilizationEnergyOverdrawMaintenance 0
scalar OsgEarthNet.uav[64] utilizationCountMissions 53
scalar OsgEarthNet.uav[64] utilizationCountManeuversMission 815
scalar OsgEarthNet.uav[64] utilizationCountManeuversMaintenance 105
scalar OsgEarthNet.uav[64] utilizationCountChargeState 53
scalar OsgEarthNet.uav[64] utilizationCountOverdrawnAfterMission 0
scalar OsgEarthNet.uav[64] utilizationCountIdleState 53
scalar OsgEarthNet.uav[64] utilizationFail 0
scalar OsgEarthNet.uav[64] simulationTime 259200
scalar OsgEarthNet.uav[65] utilizationSecMission 42001.217104085
scalar OsgEarthNet.uav[65] utilizationSecMaintenance 17577.455834128
scalar OsgEarthNet.uav[65] utilizationSecCharge 196239.32206179
scalar OsgEarthNet.uav[65] utilizationSecIdle 3382.004
[...]
scalar OsgEarthNet.uav[69] utilizationCountMissions 62
scalar OsgEarthNet.uav[69] utilizationCountManeuversMission 1200
scalar OsgEarthNet.uav[69] utilizationCountManeuversMaintenance 123
scalar OsgEarthNet.uav[69] utilizationCountChargeState 62
scalar OsgEarthNet.uav[69] utilizationCountOverdrawnAfterMission 0
scalar OsgEarthNet.uav[69] utilizationCountIdleState 6
scalar OsgEarthNet.uav[69] utilizationFail 0
scalar OsgEarthNet.uav[69] simulationTime 259200
scalar OsgEarthNet.uav[70] utilizationSecMission 23031.252746445
scalar OsgEarthNet.uav[70] utilizationSecMaintenance 13037.256146649
scalar OsgEarthNet.uav[70] utilizationSecCharge 133450
scalar OsgEarthNet.uav[70] utilizationSecIdle 89681.490106906
scalar OsgEarthNet.uav[70] utilizationEnergyMission 110642.9839859
scalar OsgEarthNet.uav[70] utilizationEnergyMaintenance 61771.315101623
scalar OsgEarthNet.uav[70] utilizationEnergyCharge 172276.71923828
scalar OsgEarthNet.uav[70] utilizationEnergyOverdrawMission 0
scalar OsgEarthNet.uav[70] utilizationEnergyOverdrawMaintenance 0
scalar OsgEarthNet.uav[70] utilizationCountMissions 38
scalar OsgEarthNet.uav[70] utilizationCountManeuversMission 683
scalar OsgEarthNet.uav[70] utilizationCountManeuversMaintenance 76
scalar OsgEarthNet.uav[70] utilizationCountChargeState 38
scalar OsgEarthNet.uav[70] utilizationCountOverdrawnAfterMission 0
scalar OsgEarthNet.uav[70] utilizationCountIdleState 39
scalar OsgEarthNet.uav[70] utilizationFail 0
scalar OsgEarthNet.uav[70] simulationTime 259200
scalar OsgEarthNet.uav[71] utilizationSecMission 23396.61477722
scalar OsgEarthNet.uav[71] utilizationSecMaintenance 16866.491243893
scalar OsgEarthNet.uav[71] utilizationSecCharge 156665.92899321
scalar OsgEarthNet.uav[71] utilizationSecIdle 62270.963985674
scalar OsgEarthNet.uav[71] utilizationEnergyMission 114370.10298538
scalar OsgEarthNet.uav[71] utilizationEnergyMaintenance 79713.705978394
scalar OsgEarthNet.uav[71] utilizationEnergyCharge 192613.03637695
scalar OsgEarthNet.uav[71] utilizationEnergyOverdrawMission 0
scalar OsgEarthNet.uav[71] utilizationEnergyOverdrawMaintenance 0
scalar OsgEarthNet.uav[71] utilizationCountMissions 51
scalar OsgEarthNet.uav[71] utilizationCountManeuversMission 766
scalar OsgEarthNet.uav[71] utilizationCountManeuversMaintenance 102
scalar OsgEarthNet.uav[71] utilizationCountChargeState 51
scalar OsgEarthNet.uav[71] utilizationCountOverdrawnAfterMission 0
scalar OsgEarthNet.uav[71] utilizationCountIdleState 51
scalar OsgEarthNet.uav[71] utilizationFail 0
scalar OsgEarthNet.uav[71] simulationTime 259200
scalar OsgEarthNet.uav[72] utilizationSecMission 42182.480777667
scalar OsgEarthNet.uav[72] utilizationSecMaintenance 17307.918627272
scalar OsgEarthNet.uav[72] utilizationSecCharge 197163.24937424
scalar OsgEarthNet.uav[72] utilizationSecIdle 2546.3502208215
scalar OsgEarthNet.uav[72] utilizationEnergyMission 202682.83341217
scalar OsgEarthNet.uav[72] utilizationEnergyMaintenance 79481.111061096
scalar OsgEarthNet.uav[72] utilizationEnergyCharge 280883.12744141
scalar OsgEarthNet.uav[72] utilizationEnergyOverdrawMission 0
scalar OsgEarthNet.uav[72] utilizationEnergyOverdrawMaintenance 0
scalar OsgEarthNet.uav[72] utilizationCountMissions 61
scalar OsgEarthNet.uav[72] utilizationCountManeuversMission 1189
scalar OsgEarthNet.uav[72] utilizationCountManeuversMaintenance 122
scalar OsgEarthNet.uav[72] utilizationCountChargeState 61
scalar OsgEarthNet.uav[72] utilizationCountOverdrawnAfterMission 0
scalar OsgEarthNet.uav[72] utilizationCountIdleState 8
scalar OsgEarthNet.uav[72] utilizationFail 0
scalar OsgEarthNet.uav[72] simulationTime 259200
scalar OsgEarthNet.uav[73] utilizationSecMission 18135.993487052
scalar OsgEarthNet.uav[73] utilizationSecMaintenance 12605.051679958
scalar OsgEarthNet.uav[73] utilizationSecCharge 116520
scalar OsgEarthNet.uav[73] utilizationSecIdle 111938.95383299
scalar OsgEarthNet.uav[73] utilizationEnergyMission 89653.895397186
scalar OsgEarthNet.uav[73] utilizationEnergyMaintenance 60031.014659881
scalar OsgEarthNet.uav[73] utilizationEnergyCharge 150409.42333984
scalar OsgEarthNet.uav[73] utilizationEnergyOverdrawMission 0
scalar OsgEarthNet.uav[73] utilizationEnergyOverdrawMaintenance 0
scalar OsgEarthNet.uav[73] utilizationCountMissions 33
scalar OsgEarthNet.uav[73] utilizationCountManeuversMission 651
scalar OsgEarthNet.uav[73] utilizationCountManeuversMaintenance 66
scalar OsgEarthNet.uav[73] utilizationCountChargeState 33
scalar OsgEarthNet.uav[73] utilizationCountOverdrawnAfterMission 0
scalar OsgEarthNet.uav[73] utilizationCountIdleState 34
scalar OsgEarthNet.uav[73] utilizationFail 0
scalar OsgEarthNet.uav[73] simulationTime 259200
scalar OsgEarthNet.uav[74] utilizationSecMission 25784.135801771
scalar OsgEarthNet.uav[74] utilizationSecMaintenance 16839.900493781
scalar OsgEarthNet.uav[74] utilizationSecCharge 163403.96119773
scalar OsgEarthNet.uav[74] utilizationSecIdle 53172.001506722
scalar OsgEarthNet.uav[74] utilizationEnergyMission 126670.64484024
scalar OsgEarthNet.uav[74] utilizationEnergyMaintenance 80467.64673233
scalar OsgEarthNet.uav[74] utilizationEnergyCharge 205990.75219727
scalar OsgEarthNet.uav[74] utilizationEnergyOverdrawMission 0
scalar OsgEarthNet.uav[74] utilizationEnergyOverdrawMaintenance 0
scalar OsgEarthNet.uav[74] utilizationCountMissions 50
scalar OsgEarthNet.uav[74] utilizationCountManeuversMission 836
scalar OsgEarthNet.uav[74] utilizationCountManeuversMaintenance 100
scalar OsgEarthNet.uav[74] utilizationCountChargeState 50
scalar OsgEarthNet.uav[74] utilizationCountOverdrawnAfterMission 0
scalar OsgEarthNet.uav[74] utilizationCountIdleState 50
scalar OsgEarthNet.uav[74] utilizationFail 0
scalar OsgEarthNet.uav[74] simulationTime 259200
scalar OsgEarthNet.uav[75] utilizationSecMission 41987.980952686
scalar OsgEarthNet.uav[75] utilizationSecMaintenance 17520.904417238
scalar OsgEarthNet.uav[75] utilizationSecCharge 196559.10963008
scalar OsgEarthNet.uav[75] utilizationSecIdle 3132.004
scalar OsgEarthNet.uav[75] utilizationEnergyMission 202368.43930435
scalar OsgEarthNet.uav[75] utilizationEnergyMaintenance 80577.686439514
scalar OsgEarthNet.uav[75] utilizationEnergyCharge 279480.53015137
scalar OsgEarthNet.uav[75] utilizationEnergyOverdrawMission 0
scalar OsgEarthNet.uav[75] utilizationEnergyOverdrawMaintenance 0
scalar OsgEarthNet.uav[75] utilizationCountMissions 62
scalar OsgEarthNet.uav[75] utilizationCountManeuversMission 1203
scalar OsgEarthNet.uav[75] utilizationCountManeuversMaintenance 124
scalar OsgEarthNet.uav[75] utilizationCountChargeState 62
scalar OsgEarthNet.uav[75] utilizationCountOverdrawnAfterMission 0
scalar OsgEarthNet.uav[75] utilizationCountIdleState 10
scalar OsgEarthNet.uav[75] utilizationFail 0
scalar OsgEarthNet.uav[75] simulationTime 259200
scalar OsgEarthNet.uav[76] utilizationSecMission 25353.128204186
scalar OsgEarthNet.uav[76] utilizationSecMaintenance 13616.814777058
scalar OsgEarthNet.uav[76] utilizationSecCharge 141138.05501876
scalar OsgEarthNet.uav[76] utilizationSecIdle 79092.001
scalar OsgEarthNet.uav[76] utilizationEnergyMission 121596.5205574
scalar OsgEarthNet.uav[76] utilizationEnergyMaintenance 64559.792888641
scalar OsgEarthNet.uav[76] utilizationEnergyCharge 182405.61450195
scalar OsgEarthNet.uav[76] utilizationEnergyOverdrawMission 0
scalar OsgEarthNet.uav[76] utilizationEnergyOverdrawMaintenance 0
scalar OsgEarthNet.uav[76] utilizationCountMissions 41
scalar OsgEarthNet.uav[76] utilizationCountManeuversMission 721
scalar OsgEarthNet.uav[76] utilizationCountManeuversMaintenance 82
scalar OsgEarthNet.uav[76] utilizationCountChargeState 41
scalar OsgEarthNet.uav[76] utilizationCountOverdrawnAfterMission 0
scalar OsgEarthNet.uav[76] utilizationCountIdleState 41
scalar OsgEarthNet.uav[76] utilizationFail 0
scalar OsgEarthNet.uav[76] simulationTime 259200
scalar OsgEarthNet.uav[77] utilizationSecMission 23716.61477722
scalar OsgEarthNet.uav[77] utilizationSecMaintenance 17251.880893388
scalar OsgEarthNet.uav[77] utilizationSecCharge 158739.50032939
scalar OsgEarthNet.uav[77] utilizationSecIdle 59492.003
scalar OsgEarthNet.uav[77] utilizationEnergyMission 113478.83465195
scalar OsgEarthNet.uav[77] utilizationEnergyMaintenance 82043.038101196
scalar OsgEarthNet.uav[77] utilizationEnergyCharge 194537.02539062
scalar OsgEarthNet.uav[77] utilizationEnergyOverdrawMission 0
scalar OsgEarthNet.uav[77] utilizationEnergyOverdrawMaintenance 0
scalar OsgEarthNet.uav[77] utilizationCountMissions 52
scalar OsgEarthNet.uav[77] utilizationCountManeuversMission 782
scalar OsgEarthNet.uav[77] utilizationCountManeuversMaintenance 104
scalar OsgEarthNet.uav[77] utilizationCountChargeState 52
scalar OsgEarthNet.uav[77] utilizationCountOverdrawnAfterMission 0
scalar OsgEarthNet.uav[77] utilizationCountIdleState 52
scalar OsgEarthNet.uav[77] utilizationFail 0
scalar OsgEarthNet.uav[77] simulationTime 259200
scalar OsgEarthNet.uav[78] utilizationSecMission 41686.098284516
scalar OsgEarthNet.uav[78] utilizationSecMaintenance 17335.58661697
scalar OsgEarthNet.uav[78] utilizationSecCharge 197948.88875122
scalar OsgEarthNet.uav[78] utilizationSecIdle 2229.4253472904
scalar OsgEarthNet.uav[78] utilizationEnergyMission 201692.365242
scalar OsgEarthNet.uav[78] utilizationEnergyMaintenance 79903.955303192
scalar OsgEarthNet.uav[78] utilizationEnergyCharge 282708.25683594
scalar OsgEarthNet.uav[78] utilizationEnergyOverdrawMission 0
scalar OsgEarthNet.uav[78] utilizationEnergyOverdrawMaintenance 0
scalar OsgEarthNet.uav[78] utilizationCountMissions 61
scalar OsgEarthNet.uav[78] utilizationCountManeuversMission 1269
scalar OsgEarthNet.uav[78] utilizationCountManeuversMaintenance 122
scalar OsgEarthNet.uav[78] utilizationCountChargeState 61
scalar OsgEarthNet.uav[78] utilizationCountOverdrawnAfterMission 0
scalar OsgEarthNet.uav[78] utilizationCountIdleState 9
scalar OsgEarthNet.uav[78] utilizationFail 0
scalar OsgEarthNet.uav[78] simulationTime 259200
scalar OsgEarthNet.uav[79] utilizationSecMission 41768.287108014
scalar OsgEarthNet.uav[79] utilizationSecMaintenance 17490.761636321
scalar OsgEarthNet.uav[79] utilizationSecCharge 195510
scalar OsgEarthNet.uav[79] utilizationSecIdle 4430.9502556647
scalar OsgEarthNet.uav[79] utilizationEnergyMission 200900.63115204
scalar OsgEarthNet.uav[79] utilizationEnergyMaintenance 80173.981063843
scalar OsgEarthNet.uav[79] utilizationEnergyCharge 275665.14257812
scalar OsgEarthNet.uav[79] utilizationEnergyOverdrawMission 0
scalar OsgEarthNet.uav[79] utilizationEnergyOverdrawMaintenance 0
scalar OsgEarthNet.uav[79] utilizationCountMissions 60
scalar OsgEarthNet.uav[79] utilizationCountManeuversMission 1205
scalar OsgEarthNet.uav[79] utilizationCountManeuversMaintenance 121
scalar OsgEarthNet.uav[79] utilizationCountChargeState 60
scalar OsgEarthNet.uav[79] utilizationCountOverdrawnAfterMission 0
scalar OsgEarthNet.uav[79] utilizationCountIdleState 10
scalar OsgEarthNet.uav[79] utilizationFail 0
scalar OsgEarthNet.uav[79] simulationTime 259200
scalar OsgEarthNet.uav[80] utilizationSecMission 22890.002441285
scalar OsgEarthNet.uav[80] utilizationSecMaintenance 13905.811584956
scalar OsgEarthNet.uav[80] utilizationSecCharge 136472.17597376
scalar OsgEarthNet.uav[80] utilizationSecIdle 85932.009
scalar OsgEarthNet.uav[80] utilizationEnergyMission 109594.51647949
scalar OsgEarthNet.uav[80] utilizationEnergyMaintenance 66357.026569366
scalar OsgEarthNet.uav[80] utilizationEnergyCharge 177151.98779297
scalar OsgEarthNet.uav[80] utilizationEnergyOverdrawMission 0
scalar OsgEarthNet.uav[80] utilizationEnergyOverdrawMaintenance 0
scalar OsgEarthNet.uav[80] utilizationCountMissions 39
scalar OsgEarthNet.uav[80] utilizationCountManeuversMission 728
scalar OsgEarthNet.uav[80] utilizationCountManeuversMaintenance 78
scalar OsgEarthNet.uav[80] utilizationCountChargeState 39
scalar OsgEarthNet.uav[80] utilizationCountOverdrawnAfterMission 0
scalar OsgEarthNet.uav[80] utilizationCountIdleState 39
scalar OsgEarthNet.uav[80] utilizationFail 0
scalar OsgEarthNet.uav[80] simulationTime 259200
scalar OsgEarthNet.uav[81] utilizationSecMission 22883.005710736
scalar OsgEarthNet.uav[81] utilizationSecMaintenance 16121.48868184
scalar OsgEarthNet.uav[81] utilizationSecCharge 152390
scalar OsgEarthNet.uav[81] utilizationSecIdle 67805.504607424
scalar OsgEarthNet.uav[81] utilizationEnergyMission 111834.54766083
scalar OsgEarthNet.uav[81] utilizationEnergyMaintenance 76332.089569092
scalar OsgEarthNet.uav[81] utilizationEnergyCharge 188582.76416016
scalar OsgEarthNet.uav[81] utilizationEnergyOverdrawMission 0
scalar OsgEarthNet.uav[81] utilizationEnergyOverdrawMaintenance 0
scalar OsgEarthNet.uav[81] utilizationCountMissions 48
scalar OsgEarthNet.uav[81] utilizationCountManeuversMission 771
scalar OsgEarthNet.uav[81] utilizationCountManeuversMaintenance 96
scalar OsgEarthNet.uav[81] utilizationCountChargeState 48
scalar OsgEarthNet.uav[81] utilizationCountOverdrawnAfterMission 0
scalar OsgEarthNet.uav[81] utilizationCountIdleState 49
scalar OsgEarthNet.uav[81] utilizationFail 0
scalar OsgEarthNet.uav[81] simulationTime 259200
scalar OsgEarthNet.uav[82] utilizationSecMission 40759.28372198
scalar OsgEarthNet.uav[82] utilizationSecMaintenance 18364.080710355
scalar OsgEarthNet.uav[82] utilizationSecCharge 198614.63256766
scalar OsgEarthNet.uav[82] utilizationSecIdle 1462.002
scalar OsgEarthNet.uav[82] utilizationEnergyMission 197169.49078369
scalar OsgEarthNet.uav[82] utilizationEnergyMaintenance 84764.79914093
scalar OsgEarthNet.uav[82] utilizationEnergyCharge 282823.31567383
scalar OsgEarthNet.uav[82] utilizationEnergyOverdrawMission 0
scalar OsgEarthNet.uav[82] utilizationEnergyOverdrawMaintenance 0
scalar OsgEarthNet.uav[82] utilizationCountMissions 62
scalar OsgEarthNet.uav[82] utilizationCountManeuversMission 1290
scalar OsgEarthNet.uav[82] utilizationCountManeuversMaintenance 124
scalar OsgEarthNet.uav[82] utilizationCountChargeState 62
scalar OsgEarthNet.uav[82] utilizationCountOverdrawnAfterMission 0
scalar OsgEarthNet.uav[82] utilizationCountIdleState 6
scalar OsgEarthNet.uav[82] utilizationFail 0
scalar OsgEarthNet.uav[82] simulationTime 259200
scalar OsgEarthNet.uav[83] utilizationSecMission 24906.467719507
scalar OsgEarthNet.uav[83] utilizationSecMaintenance 15281.073485329
scalar OsgEarthNet.uav[83] utilizationSecCharge 149155.21295961
scalar OsgEarthNet.uav[83] utilizationSecIdle 69857.24483555
scalar OsgEarthNet.uav[83] utilizationEnergyMission 122158.69618225
scalar OsgEarthNet.uav[83] utilizationEnergyMaintenance 73259.224491119
scalar OsgEarthNet.uav[83] utilizationEnergyCharge 192970.29833984
scalar OsgEarthNet.uav[83] utilizationEnergyOverdrawMission 0
scalar OsgEarthNet.uav[83] utilizationEnergyOverdrawMaintenance 0
scalar OsgEarthNet.uav[83] utilizationCountMissions 43
scalar OsgEarthNet.uav[83] utilizationCountManeuversMission 788
scalar OsgEarthNet.uav[83] utilizationCountManeuversMaintenance 86
scalar OsgEarthNet.uav[83] utilizationCountChargeState 43
scalar OsgEarthNet.uav[83] utilizationCountOverdrawnAfterMission 0
scalar OsgEarthNet.uav[83] utilizationCountIdleState 43
scalar OsgEarthNet.uav[83] utilizationFail 0
scalar OsgEarthNet.uav[83] simulationTime 259200
scalar OsgEarthNet.uav[84] utilizationSecMission 24968.149410944
scalar OsgEarthNet.uav[84] utilizationSecMaintenance 16004.439697706
scalar OsgEarthNet.uav[84] utilizationSecCharge 155050
scalar OsgEarthNet.uav[84] utilizationSecIdle 63177.40989135
scalar OsgEarthNet.uav[84] utilizationEnergyMission 123645.69819819
scalar OsgEarthNet.uav[84] utilizationEnergyMaintenance 75811.491077423
scalar OsgEarthNet.uav[84] utilizationEnergyCharge 196799.92651367
scalar OsgEarthNet.uav[84] utilizationEnergyOverdrawMission 0
scalar OsgEarthNet.uav[84] utilizationEnergyOverdrawMaintenance 0
scalar OsgEarthNet.uav[84] utilizationCountMissions 46
scalar OsgEarthNet.uav[84] utilizationCountManeuversMission 850
scalar OsgEarthNet.uav[84] utilizationCountManeuversMaintenance 93
scalar OsgEarthNet.uav[84] utilizationCountChargeState 46
scalar OsgEarthNet.uav[84] utilizationCountOverdrawnAfterMission 0
scalar OsgEarthNet.uav[84] utilizationCountIdleState 47
scalar OsgEarthNet.uav[84] utilizationFail 0
scalar OsgEarthNet.uav[84] simulationTime 259200
scalar OsgEarthNet.uav[85] utilizationSecMission 41911.516840374
scalar OsgEarthNet.uav[85] utilizationSecMaintenance 16726.479159626
scalar OsgEarthNet.uav[85] utilizationSecCharge 197600
scalar OsgEarthNet.uav[85] utilizationSecIdle 2962.003
scalar OsgEarthNet.uav[85] utilizationEnergyMission 201715.4089908
scalar OsgEarthNet.uav[85] utilizationEnergyMaintenance 78239.28163147
scalar OsgEarthNet.uav[85] utilizationEnergyCharge 278914.29541016
scalar OsgEarthNet.uav[85] utilizationEnergyOverdrawMission 0
scalar OsgEarthNet.uav[85] utilizationEnergyOverdrawMaintenance 0
scalar OsgEarthNet.uav[85] utilizationCountMissions 60
scalar OsgEarthNet.uav[85] utilizationCountManeuversMission 1211
scalar OsgEarthNet.uav[85] utilizationCountManeuversMaintenance 121
scalar OsgEarthNet.uav[85] utilizationCountChargeState 60
scalar OsgEarthNet.uav[85] utilizationCountOverdrawnAfterMission 0
scalar OsgEarthNet.uav[85] utilizationCountIdleState 10
scalar OsgEarthNet.uav[85] utilizationFail 0
scalar OsgEarthNet.uav[85] simulationTime 259200
scalar OsgEarthNet.uav[86] utilizationSecMission 21167.501830963
scalar OsgEarthNet.uav[86] utilizationSecMaintenance 14300.627281022
scalar OsgEarthNet.uav[86] utilizationSecCharge 133950
scalar OsgEarthNet.uav[86] utilizationSecIdle 89781.869888015
scalar OsgEarthNet.uav[86] utilizationEnergyMission 104810.83896255
scalar OsgEarthNet.uav[86] utilizationEnergyMaintenance 68315.123390198
scalar OsgEarthNet.uav[86] utilizationEnergyCharge 173020.33007812
scalar OsgEarthNet.uav[86] utilizationEnergyOverdrawMission 0
scalar OsgEarthNet.uav[86] utilizationEnergyOverdrawMaintenance 0
scalar OsgEarthNet.uav[86] utilizationCountMissions 38
scalar OsgEarthNet.uav[86] utilizationCountManeuversMission 746
scalar OsgEarthNet.uav[86] utilizationCountManeuversMaintenance 76
scalar OsgEarthNet.uav[86] utilizationCountChargeState 38
scalar OsgEarthNet.uav[86] utilizationCountOverdrawnAfterMission 0
scalar OsgEarthNet.uav[86] utilizationCountIdleState 39
scalar OsgEarthNet.uav[86] utilizationFail 0
scalar OsgEarthNet.uav[86] simulationTime 259200
scalar OsgEarthNet.uav[87] utilizationSecMission 24185.458271731
scalar OsgEarthNet.uav[87] utilizationSecMaintenance 16941.29017443
scalar OsgEarthNet.uav[87] utilizationSecCharge 160122.19275865
scalar OsgEarthNet.uav[87] utilizationSecIdle 57951.057795193
scalar OsgEarthNet.uav[87] utilizationEnergyMission 114300.62244034
scalar OsgEarthNet.uav[87] utilizationEnergyMaintenance 79873.000881195
scalar OsgEarthNet.uav[87] utilizationEnergyCharge 196158.55932617
scalar OsgEarthNet.uav[87] utilizationEnergyOverdrawMission 0
scalar OsgEarthNet.uav[87] utilizationEnergyOverdrawMaintenance 0
scalar OsgEarthNet.uav[87] utilizationCountMissions 52
scalar OsgEarthNet.uav[87] utilizationCountManeuversMission 739
scalar OsgEarthNet.uav[87] utilizationCountManeuversMaintenance 104
scalar OsgEarthNet.uav[87] utilizationCountChargeState 52
scalar OsgEarthNet.uav[87] utilizationCountOverdrawnAfterMission 0
scalar OsgEarthNet.uav[87] utilizationCountIdleState 52
scalar OsgEarthNet.uav[87] utilizationFail 0
scalar OsgEarthNet.uav[87] simulationTime 259200
scalar OsgEarthNet.cs[0] usedPower 4006958.1639402
scalar OsgEarthNet.cs[0] chargedPower 4006958.1639402
scalar OsgEarthNet.cs[0] chargedMobileNodes 878
scalar OsgEarthNet.cs[0] reservations 891
scalar OsgEarthNet.cs[1] usedPower 4152474.495035
scalar OsgEarthNet.cs[1] chargedPower 4152474.495035
scalar OsgEarthNet.cs[1] chargedMobileNodes 1038
scalar OsgEarthNet.cs[1] reservations 1051
scalar OsgEarthNet.cs[2] usedPower 8680959.235095
scalar OsgEarthNet.cs[2] chargedPower 8680959.235095
scalar OsgEarthNet.cs[2] chargedMobileNodes 281
scalar OsgEarthNet.cs[2] reservations 1899

