version 2
run Szenario_Hotel_Gabelbach-112-20180719-05:22:08-15432
attr configname Szenario_Hotel_Gabelbach
attr datetime 20180719-05:22:08
attr experiment Szenario_Hotel_Gabelbach
attr inifile omnetpp.ini
attr iterationvars "$replM=2, $biWeight=0.35, $replSearchM=1, $numUAVs=59"
attr iterationvarsf replM=2,biWeight=0.35,replSearchM=1,numUAVs=59-
attr measurement "$replM=2, $biWeight=0.35, $replSearchM=1, $numUAVs=59"
attr network OsgEarthNet
attr processid 15432
attr repetition 16
attr replication #16
attr resultdir results
attr runnumber 112
attr seedset 112
itervar biWeight 0.35
itervar numUAVs 59
itervar replM 2
itervar replSearchM 1
param *.osgEarthScene.scene "\"Szenario_Hotel_Gabelbach.earth\""
param *.playgroundLatitude 50.6830269
param *.playgroundLongitude 10.8538055
param *.playgroundWidth 3500m
param *.playgroundHeight 3500m
param *.cs[0].posX 3537m
param *.cs[0].posY 965m
param *.cs[0].posZ 538m
param *.cs[1].posX 312m
param *.cs[1].posY 1262m
param *.cs[1].posZ 539m
param *.cs[2].posX 2185m
param *.cs[2].posY 3026m
param *.cs[2].posZ 777m
param *.cs[3].posX 10m
param *.cs[3].posY 2200m
param *.cs[3].posZ 560m
param *.cs[4].posX 750m
param *.cs[4].posY 200m
param *.cs[4].posZ 540m
param *.cs[5].posX 2450m
param *.cs[5].posY 180m
param *.cs[5].posZ 524m
param *.cs[6].posX 3140m
param *.cs[6].posY 1790m
param *.cs[6].posZ 606m
param *.numCSs 3
param *.uav[*].replacementMethod 2
param *.uav[*].weightedSumWeight 0.35
param *.missionControl.replacementSearchMethod 1
param *.numUAVs 59
param *.*.timeStep 10s
param *.uav[*].commandPreviewCommandCount 20
param *.missionControl.missionFiles "\"missions\\\\Szenario_WB_Hotel_Gabelbach_Mission_Hotel.waypoints,missions\\\\Szenario_WB_Hotel_Gabelbach_Mission_Kickelhahn.waypoints,missions\\\\Szenario_WB_Hotel_Gabelbach_Mission_Ilmenau_Sportplatz.waypoints,missions\\\\Szenario_WB_Hotel_Gabelbach_Mission_Manebach_Mitte.waypoints,missions\\\\Szenario_WB_Hotel_Gabelbach_Mission_Manebach_Sued.waypoints,missions\\\\Szenario_WB_Hotel_Gabelbach_Hover_HoheSchlaufe.waypoints,missions\\\\Szenario_WB_Hotel_Gabelbach_Hover_Kickelhahn.waypoints,missions\\\\Szenario_WB_Hotel_Gabelbach_Hover_Gabelbachskopf.waypoints,missions\\\\Szenario_WB_Hotel_Gabelbach_Hover_Dachskopf.waypoints\""
param *.uav[0].startX 3537m
param *.uav[0].startY 965m
param *.uav[0].startZ 539m
param *.uav[1].startX 312m
param *.uav[1].startY 1262m
param *.uav[1].startZ 540m
param *.uav[2].startX 2185m
param *.uav[2].startY 3026m
param *.uav[2].startZ 778m
param *.uav[3].startX 3537m
param *.uav[3].startY 965m
param *.uav[3].startZ 539m
param *.uav[4].startX 312m
param *.uav[4].startY 1262m
param *.uav[4].startZ 540m
param *.uav[5].startX 2185m
param *.uav[5].startY 3026m
param *.uav[5].startZ 778m
param *.uav[6].startX 3537m
param *.uav[6].startY 965m
param *.uav[6].startZ 539m
param *.uav[7].startX 312m
param *.uav[7].startY 1262m
param *.uav[7].startZ 540m
param *.uav[8].startX 2185m
param *.uav[8].startY 3026m
param *.uav[8].startZ 778m
param *.uav[9].startX 3537m
param *.uav[9].startY 965m
param *.uav[9].startZ 539m
param *.uav[10].startX 3537m
param *.uav[10].startY 965m
param *.uav[10].startZ 539m
param *.uav[11].startX 312m
param *.uav[11].startY 1262m
param *.uav[11].startZ 540m
param *.uav[12].startX 2185m
param *.uav[12].startY 3026m
param *.uav[12].startZ 778m
param *.uav[13].startX 3537m
param *.uav[13].startY 965m
param *.uav[13].startZ 539m
param *.uav[14].startX 312m
param *.uav[14].startY 1262m
param *.uav[14].startZ 540m
param *.uav[15].startX 2185m
param *.uav[15].startY 3026m
param *.uav[15].startZ 778m
param *.uav[16].startX 3537m
param *.uav[16].startY 965m
param *.uav[16].startZ 539m
param *.uav[17].startX 312m
param *.uav[17].startY 1262m
param *.uav[17].startZ 540m
param *.uav[18].startX 2185m
param *.uav[18].startY 3026m
param *.uav[18].startZ 778m
param *.uav[19].startX 3537m
param *.uav[19].startY 965m
param *.uav[19].startZ 539m
param *.uav[20].startX 3537m
param *.uav[20].startY 965m
param *.uav[20].startZ 539m
param *.uav[21].startX 312m
param *.uav[21].startY 1262m
param *.uav[21].startZ 540m
param *.uav[22].startX 2185m
param *.uav[22].startY 3026m
param *.uav[22].startZ 778m
param *.uav[23].startX 3537m
param *.uav[23].startY 965m
param *.uav[23].startZ 539m
param *.uav[24].startX 312m
param *.uav[24].startY 1262m
param *.uav[24].startZ 540m
param *.uav[25].startX 2185m
param *.uav[25].startY 3026m
param *.uav[25].startZ 778m
param *.uav[26].startX 3537m
param *.uav[26].startY 965m
param *.uav[26].startZ 539m
param *.uav[27].startX 312m
param *.uav[27].startY 1262m
param *.uav[27].startZ 540m
param *.uav[28].startX 2185m
param *.uav[28].startY 3026m
param *.uav[28].startZ 778m
param *.uav[29].startX 3537m
param *.uav[29].startY 965m
param *.uav[29].startZ 539m
param *.uav[30].startX 3537m
param *.uav[30].startY 965m
param *.uav[30].startZ 539m
param *.uav[31].startX 312m
param *.uav[31].startY 1262m
param *.uav[31].startZ 540m
param *.uav[32].startX 2185m
param *.uav[32].startY 3026m
param *.uav[32].startZ 778m
param *.uav[33].startX 3537m
param *.uav[33].startY 965m
param *.uav[33].startZ 539m
param *.uav[34].startX 312m
param *.uav[34].startY 1262m
param *.uav[34].startZ 540m
param *.uav[35].startX 2185m
param *.uav[35].startY 3026m
param *.uav[35].startZ 778m
param *.uav[36].startX 3537m
param *.uav[36].startY 965m
param *.uav[36].startZ 539m
param *.uav[37].startX 312m
param *.uav[37].startY 1262m
param *.uav[37].startZ 540m
param *.uav[38].startX 2185m
param *.uav[38].startY 3026m
param *.uav[38].startZ 778m
param *.uav[39].startX 3537m
param *.uav[39].startY 965m
param *.uav[39].startZ 539m
param *.uav[40].startX 3537m
param *.uav[40].startY 965m
param *.uav[40].startZ 539m
param *.uav[41].startX 312m
param *.uav[41].startY 1262m
param *.uav[41].startZ 540m
param *.uav[42].startX 2185m
param *.uav[42].startY 3026m
param *.uav[42].startZ 778m
param *.uav[43].startX 3537m
param *.uav[43].startY 965m
param *.uav[43].startZ 539m
param *.uav[44].startX 312m
param *.uav[44].startY 1262m
param *.uav[44].startZ 540m
param *.uav[45].startX 2185m
param *.uav[45].startY 3026m
param *.uav[45].startZ 778m
param *.uav[46].startX 3537m
param *.uav[46].startY 965m
param *.uav[46].startZ 539m
param *.uav[47].startX 312m
param *.uav[47].startY 1262m
param *.uav[47].startZ 540m
param *.uav[48].startX 2185m
param *.uav[48].startY 3026m
param *.uav[48].startZ 778m
param *.uav[49].startX 3537m
param *.uav[49].startY 965m
param *.uav[49].startZ 539m
param *.uav[50].startX 3537m
param *.uav[50].startY 965m
param *.uav[50].startZ 539m
param *.uav[51].startX 312m
param *.uav[51].startY 1262m
param *.uav[51].startZ 540m
param *.uav[52].startX 2185m
param *.uav[52].startY 3026m
param *.uav[52].startZ 778m
param *.uav[53].startX 3537m
param *.uav[53].startY 965m
param *.uav[53].startZ 539m
param *.uav[54].startX 312m
param *.uav[54].startY 1262m
param *.uav[54].startZ 540m
param *.uav[55].startX 2185m
param *.uav[55].startY 3026m
param *.uav[55].startZ 778m
param *.uav[56].startX 3537m
param *.uav[56].startY 965m
param *.uav[56].startZ 539m
param *.uav[57].startX 312m
param *.uav[57].startY 1262m
param *.uav[57].startZ 540m
param *.uav[58].startX 2185m
param *.uav[58].startY 3026m
param *.uav[58].startZ 778m
param *.uav[59].startX 3537m
param *.uav[59].startY 965m
param *.uav[59].startZ 539m
param *.uav[60].startX 3537m
param *.uav[60].startY 965m
param *.uav[60].startZ 539m
param *.uav[61].startX 312m
param *.uav[61].startY 1262m
param *.uav[61].startZ 540m
param *.uav[62].startX 2185m
param *.uav[62].startY 3026m
param *.uav[62].startZ 778m
param *.uav[63].startX 3537m
param *.uav[63].startY 965m
param *.uav[63].startZ 539m
param *.uav[64].startX 312m
param *.uav[64].startY 1262m
param *.uav[64].startZ 540m
param *.uav[65].startX 2185m
param *.uav[65].startY 3026m
param *.uav[65].startZ 778m
param *.uav[66].startX 3537m
param *.uav[66].startY 965m
param *.uav[66].startZ 539m
param *.uav[67].startX 312m
param *.uav[67].startY 1262m
param *.uav[67].startZ 540m
param *.uav[68].startX 2185m
param *.uav[68].startY 3026m
param *.uav[68].startZ 778m
param *.uav[69].startX 3537m
param *.uav[69].startY 965m
param *.uav[69].startZ 539m
param *.uav[70].startX 3537m
param *.uav[70].startY 965m
param *.uav[70].startZ 539m
param *.uav[71].startX 312m
param *.uav[71].startY 1262m
param *.uav[71].startZ 540m
param *.uav[72].startX 2185m
param *.uav[72].startY 3026m
param *.uav[72].startZ 778m
param *.uav[73].startX 3537m
param *.uav[73].startY 965m
param *.uav[73].startZ 539m
param *.uav[74].startX 312m
param *.uav[74].startY 1262m
param *.uav[74].startZ 540m
param *.uav[75].startX 2185m
param *.uav[75].startY 3026m
param *.uav[75].startZ 778m
param *.uav[76].startX 3537m
param *.uav[76].startY 965m
param *.uav[76].startZ 539m
param *.uav[77].startX 312m
param *.uav[77].startY 1262m
param *.uav[77].startZ 540m
param *.uav[78].startX 2185m
param *.uav[78].startY 3026m
param *.uav[78].startZ 778m
param *.uav[79].startX 3537m
param *.uav[79].startY 965m
param *.uav[79].startZ 539m
param *.uav[80].startX 3537m
param *.uav[80].startY 965m
param *.uav[80].startZ 539m
param *.uav[81].startX 312m
param *.uav[81].startY 1262m
param *.uav[81].startZ 540m
param *.uav[82].startX 2185m
param *.uav[82].startY 3026m
param *.uav[82].startZ 778m
param *.uav[83].startX 3537m
param *.uav[83].startY 965m
param *.uav[83].startZ 539m
param *.uav[84].startX 312m
param *.uav[84].startY 1262m
param *.uav[84].startZ 540m
param *.uav[85].startX 2185m
param *.uav[85].startY 3026m
param *.uav[85].startZ 778m
param *.uav[86].startX 3537m
param *.uav[86].startY 965m
param *.uav[86].startZ 539m
param *.uav[87].startX 312m
param *.uav[87].startY 1262m
param *.uav[87].startZ 540m
param *.uav[88].startX 2185m
param *.uav[88].startY 3026m
param *.uav[88].startZ 778m
param *.uav[89].startX 3537m
param *.uav[89].startY 965m
param *.uav[89].startZ 539m
param *.uav[90].startX 3537m
param *.uav[90].startY 965m
param *.uav[90].startZ 539m
param *.uav[91].startX 312m
param *.uav[91].startY 1262m
param *.uav[91].startZ 540m
param *.uav[92].startX 2185m
param *.uav[92].startY 3026m
param *.uav[92].startZ 778m
param *.uav[93].startX 3537m
param *.uav[93].startY 965m
param *.uav[93].startZ 539m
param *.uav[94].startX 312m
param *.uav[94].startY 1262m
param *.uav[94].startZ 540m
param *.uav[95].startX 2185m
param *.uav[95].startY 3026m
param *.uav[95].startZ 778m
param *.uav[96].startX 3537m
param *.uav[96].startY 965m
param *.uav[96].startZ 539m
param *.uav[97].startX 312m
param *.uav[97].startY 1262m
param *.uav[97].startZ 540m
param *.uav[98].startX 2185m
param *.uav[98].startY 3026m
param *.uav[98].startZ 778m
param *.uav[99].startX 3537m
param *.uav[99].startY 965m
param *.uav[99].startZ 539m
param *.osgEarthScene.scene "\"boston.earth\""
param *.playgroundLatitude 42.3558
param *.playgroundLongitude -71.0677
param *.playgroundWidth 400m
param *.playgroundHeight 200m
param *.channelController.connectionColor "\"#0000FF40\""
param *.channelController.showConnections false
param *.uav[*].modelURL "\"quadrocopter.small.obj.15.scale.0,0,90.rot\""
param *.uav[*].labelColor "\"#FF7C00CC\""
param *.uav[*].label2Color "\"#FF7C00EE\""
param *.uav[*].batteryCapacity 5200mAh
param *.uav[*].batteryRemaining uav[index].batteryCapacity
param *.uav[*].predictionQuantile 0.95
param *.uav[*].replacementMethod 2
param *.uav[*].weightedSumWeight 0.5
param *.cs[*].modelURL "\"chargingstation_v1.osgt.2.scale.0,0,0.rot.0,0,-15e-1.trans\""
param *.cs[*].spotsWaiting 999
param *.cs[*].spotsCharging 999
param *.cs[*].chargeEffectivenessPercentage 100
param *.cs[*].nonLinearPhaseStartPercentage 85
param *.cs[*].chargeCurrent 6.0A
param *.cs[*].prioritizeFastCharge true
param *.missionControl.replacementSearchMethod 0
param *.*.timeStep 9s

scalar OsgEarthNet.uav[0] utilizationSecMission 34970.002441285
scalar OsgEarthNet.uav[0] utilizationSecMaintenance 26619.22969769
scalar OsgEarthNet.uav[0] utilizationSecCharge 195478.76286103
scalar OsgEarthNet.uav[0] utilizationSecIdle 2132.004
scalar OsgEarthNet.uav[0] utilizationEnergyMission 171949.92366791
scalar OsgEarthNet.uav[0] utilizationEnergyMaintenance 126318.45988464
scalar OsgEarthNet.uav[0] utilizationEnergyCharge 293787.93804932
scalar OsgEarthNet.uav[0] utilizationEnergyOverdrawMission 0
scalar OsgEarthNet.uav[0] utilizationEnergyOverdrawMaintenance 0
scalar OsgEarthNet.uav[0] utilizationCountMissions 68
scalar OsgEarthNet.uav[0] utilizationCountManeuversMission 1332
scalar OsgEarthNet.uav[0] utilizationCountManeuversMaintenance 136
scalar OsgEarthNet.uav[0] utilizationCountChargeState 68
scalar OsgEarthNet.uav[0] utilizationCountOverdrawnAfterMission 0
scalar OsgEarthNet.uav[0] utilizationCountIdleState 5
scalar OsgEarthNet.uav[0] utilizationFail 0
scalar OsgEarthNet.uav[0] simulationTime 259200
scalar OsgEarthNet.uav[1] utilizationSecMission 37264.213529001
scalar OsgEarthNet.uav[1] utilizationSecMaintenance 23730.342382308
scalar OsgEarthNet.uav[1] utilizationSecCharge 194970
scalar OsgEarthNet.uav[1] utilizationSecIdle 3235.443088691
scalar OsgEarthNet.uav[1] utilizationEnergyMission 181992.80605924
scalar OsgEarthNet.uav[1] utilizationEnergyMaintenance 111850.38610077
scalar OsgEarthNet.uav[1] utilizationEnergyCharge 289297.56982422
scalar OsgEarthNet.uav[1] utilizationEnergyOverdrawMission 0
scalar OsgEarthNet.uav[1] utilizationEnergyOverdrawMaintenance 0
scalar OsgEarthNet.uav[1] utilizationCountMissions 66
scalar OsgEarthNet.uav[1] utilizationCountManeuversMission 1269
scalar OsgEarthNet.uav[1] utilizationCountManeuversMaintenance 133
scalar OsgEarthNet.uav[1] utilizationCountChargeState 66
scalar OsgEarthNet.uav[1] utilizationCountOverdrawnAfterMission 0
scalar OsgEarthNet.uav[1] utilizationCountIdleState 7
scalar OsgEarthNet.uav[1] utilizationFail 0
scalar OsgEarthNet.uav[1] simulationTime 259200
scalar OsgEarthNet.uav[2] utilizationSecMission 37291.5670478
scalar OsgEarthNet.uav[2] utilizationSecMaintenance 21239.327722606
scalar OsgEarthNet.uav[2] utilizationSecCharge 198089.47314893
scalar OsgEarthNet.uav[2] utilizationSecIdle 2579.6310806652
scalar OsgEarthNet.uav[2] utilizationEnergyMission 181163.5376091
scalar OsgEarthNet.uav[2] utilizationEnergyMaintenance 100430.97970963
scalar OsgEarthNet.uav[2] utilizationEnergyCharge 280111.11108398
scalar OsgEarthNet.uav[2] utilizationEnergyOverdrawMission 0
scalar OsgEarthNet.uav[2] utilizationEnergyOverdrawMaintenance 0
scalar OsgEarthNet.uav[2] utilizationCountMissions 66
scalar OsgEarthNet.uav[2] utilizationCountManeuversMission 1133
scalar OsgEarthNet.uav[2] utilizationCountManeuversMaintenance 132
scalar OsgEarthNet.uav[2] utilizationCountChargeState 66
scalar OsgEarthNet.uav[2] utilizationCountOverdrawnAfterMission 0
scalar OsgEarthNet.uav[2] utilizationCountIdleState 7
scalar OsgEarthNet.uav[2] utilizationFail 0
scalar OsgEarthNet.uav[2] simulationTime 259200
scalar OsgEarthNet.uav[3] utilizationSecMission 44004.195116954
scalar OsgEarthNet.uav[3] utilizationSecMaintenance 17530.223811579
scalar OsgEarthNet.uav[3] utilizationSecCharge 194773.43533152
scalar OsgEarthNet.uav[3] utilizationSecIdle 2892.1447399488
scalar OsgEarthNet.uav[3] utilizationEnergyMission 215239.9979248
scalar OsgEarthNet.uav[3] utilizationEnergyMaintenance 81332.325740814
scalar OsgEarthNet.uav[3] utilizationEnergyCharge 288633.18841553
scalar OsgEarthNet.uav[3] utilizationEnergyOverdrawMission 0
scalar OsgEarthNet.uav[3] utilizationEnergyOverdrawMaintenance 0
scalar OsgEarthNet.uav[3] utilizationCountMissions 64
scalar OsgEarthNet.uav[3] utilizationCountManeuversMission 1404
scalar OsgEarthNet.uav[3] utilizationCountManeuversMaintenance 128
scalar OsgEarthNet.uav[3] utilizationCountChargeState 64
scalar OsgEarthNet.uav[3] utilizationCountOverdrawnAfterMission 0
scalar OsgEarthNet.uav[3] utilizationCountIdleState 2
scalar OsgEarthNet.uav[3] utilizationFail 0
scalar OsgEarthNet.uav[3] simulationTime 259200
scalar OsgEarthNet.uav[4] utilizationSecMission 35269.174429495
scalar OsgEarthNet.uav[4] utilizationSecMaintenance 20745.314863001
scalar OsgEarthNet.uav[4] utilizationSecCharge 198893.5037075
scalar OsgEarthNet.uav[4] utilizationSecIdle 4292.006
scalar OsgEarthNet.uav[4] utilizationEnergyMission 169567.33973694
scalar OsgEarthNet.uav[4] utilizationEnergyMaintenance 98251.550235748
scalar OsgEarthNet.uav[4] utilizationEnergyCharge 269550.46630859
scalar OsgEarthNet.uav[4] utilizationEnergyOverdrawMission 0
scalar OsgEarthNet.uav[4] utilizationEnergyOverdrawMaintenance 0
scalar OsgEarthNet.uav[4] utilizationCountMissions 66
scalar OsgEarthNet.uav[4] utilizationCountManeuversMission 1058
scalar OsgEarthNet.uav[4] utilizationCountManeuversMaintenance 132
scalar OsgEarthNet.uav[4] utilizationCountChargeState 66
scalar OsgEarthNet.uav[4] utilizationCountOverdrawnAfterMission 0
scalar OsgEarthNet.uav[4] utilizationCountIdleState 11
scalar OsgEarthNet.uav[4] utilizationFail 0
scalar OsgEarthNet.uav[4] simulationTime 259200
scalar OsgEarthNet.uav[5] utilizationSecMission 42946.676163428
scalar OsgEarthNet.uav[5] utilizationSecMaintenance 18591.486769738
scalar OsgEarthNet.uav[5] utilizationSecCharge 195840.38310812
scalar OsgEarthNet.uav[5] utilizationSecIdle 1821.4529587171
scalar OsgEarthNet.uav[5] utilizationEnergyMission 210923.61805344
scalar OsgEarthNet.uav[5] utilizationEnergyMaintenance 86454.052467346
scalar OsgEarthNet.uav[5] utilizationEnergyCharge 293292.32299805
scalar OsgEarthNet.uav[5] utilizationEnergyOverdrawMission 0
scalar OsgEarthNet.uav[5] utilizationEnergyOverdrawMaintenance 0
scalar OsgEarthNet.uav[5] utilizationCountMissions 65
scalar OsgEarthNet.uav[5] utilizationCountManeuversMission 1436
scalar OsgEarthNet.uav[5] utilizationCountManeuversMaintenance 130
scalar OsgEarthNet.uav[5] utilizationCountChargeState 65
scalar OsgEarthNet.uav[5] utilizationCountOverdrawnAfterMission 0
scalar OsgEarthNet.uav[5] utilizationCountIdleState 3
scalar OsgEarthNet.uav[5] utilizationFail 0
scalar OsgEarthNet.uav[5] simulationTime 259200
scalar OsgEarthNet.uav[6] utilizationSecMission 37842.988120252
scalar OsgEarthNet.uav[6] utilizationSecMaintenance 22529.683628128
scalar OsgEarthNet.uav[6] utilizationSecCharge 198555.32725162
scalar OsgEarthNet.uav[6] utilizationSecIdle 272
scalar OsgEarthNet.uav[6] utilizationEnergyMission 182868.72759628
scalar OsgEarthNet.uav[6] utilizationEnergyMaintenance 106732.47172546
scalar OsgEarthNet.uav[6] utilizationEnergyCharge 288758.91455078
scalar OsgEarthNet.uav[6] utilizationEnergyOverdrawMission 0
scalar OsgEarthNet.uav[6] utilizationEnergyOverdrawMaintenance 0
scalar OsgEarthNet.uav[6] utilizationCountMissions 68
scalar OsgEarthNet.uav[6] utilizationCountManeuversMission 1075
scalar OsgEarthNet.uav[6] utilizationCountManeuversMaintenance 135
scalar OsgEarthNet.uav[6] utilizationCountChargeState 68
scalar OsgEarthNet.uav[6] utilizationCountOverdrawnAfterMission 0
scalar OsgEarthNet.uav[6] utilizationCountIdleState 4
scalar OsgEarthNet.uav[6] utilizationFail 0
scalar OsgEarthNet.uav[6] simulationTime 259200
scalar OsgEarthNet.uav[7] utilizationSecMission 36125.828691125
scalar OsgEarthNet.uav[7] utilizationSecMaintenance 20998.233059641
scalar OsgEarthNet.uav[7] utilizationSecCharge 199453.93324923
scalar OsgEarthNet.uav[7] utilizationSecIdle 2622.004
scalar OsgEarthNet.uav[7] utilizationEnergyMission 175744.94953537
scalar OsgEarthNet.uav[7] utilizationEnergyMaintenance 99562.235313416
scalar OsgEarthNet.uav[7] utilizationEnergyCharge 274287.25146484
scalar OsgEarthNet.uav[7] utilizationEnergyOverdrawMission 0
scalar OsgEarthNet.uav[7] utilizationEnergyOverdrawMaintenance 0
scalar OsgEarthNet.uav[7] utilizationCountMissions 65
scalar OsgEarthNet.uav[7] utilizationCountManeuversMission 1147
scalar OsgEarthNet.uav[7] utilizationCountManeuversMaintenance 130
scalar OsgEarthNet.uav[7] utilizationCountChargeState 65
scalar OsgEarthNet.uav[7] utilizationCountOverdrawnAfterMission 0
scalar OsgEarthNet.uav[7] utilizationCountIdleState 10
scalar OsgEarthNet.uav[7] utilizationFail 0
scalar OsgEarthNet.uav[7] simulationTime 259200
scalar OsgEarthNet.uav[8] utilizationSecMission 39401.040068935
scalar OsgEarthNet.uav[8] utilizationSecMaintenance 22592.516364116
scalar OsgEarthNet.uav[8] utilizationSecCharge 196208.99230292
scalar OsgEarthNet.uav[8] utilizationSecIdle 997.4502640309
scalar OsgEarthNet.uav[8] utilizationEnergyMission 191949.89624786
scalar OsgEarthNet.uav[8] utilizationEnergyMaintenance 105702.87161255
scalar OsgEarthNet.uav[8] utilizationEnergyCharge 295262.40270996
scalar OsgEarthNet.uav[8] utilizationEnergyOverdrawMission 0
scalar OsgEarthNet.uav[8] utilizationEnergyOverdrawMaintenance 0
scalar OsgEarthNet.uav[8] utilizationCountMissions 67
scalar OsgEarthNet.uav[8] utilizationCountManeuversMission 1351
scalar OsgEarthNet.uav[8] utilizationCountManeuversMaintenance 134
scalar OsgEarthNet.uav[8] utilizationCountChargeState 67
scalar OsgEarthNet.uav[8] utilizationCountOverdrawnAfterMission 0
scalar OsgEarthNet.uav[8] utilizationCountIdleState 3
scalar OsgEarthNet.uav[8] utilizationFail 0
scalar OsgEarthNet.uav[8] simulationTime 259200
scalar OsgEarthNet.uav[9] utilizationSecMission 44949.381229899
scalar OsgEarthNet.uav[9] utilizationSecMaintenance 16788.169846777
scalar OsgEarthNet.uav[9] utilizationSecCharge 197370.44792332
scalar OsgEarthNet.uav[9] utilizationSecIdle 92
scalar OsgEarthNet.uav[9] utilizationEnergyMission 217551.49993515
scalar OsgEarthNet.uav[9] utilizationEnergyMaintenance 76792.813243866
scalar OsgEarthNet.uav[9] utilizationEnergyCharge 291947.75024414
scalar OsgEarthNet.uav[9] utilizationEnergyOverdrawMission 0
scalar OsgEarthNet.uav[9] utilizationEnergyOverdrawMaintenance 0
scalar OsgEarthNet.uav[9] utilizationCountMissions 64
scalar OsgEarthNet.uav[9] utilizationCountManeuversMission 1303
scalar OsgEarthNet.uav[9] utilizationCountManeuversMaintenance 127
scalar OsgEarthNet.uav[9] utilizationCountChargeState 64
scalar OsgEarthNet.uav[9] utilizationCountOverdrawnAfterMission 0
scalar OsgEarthNet.uav[9] utilizationCountIdleState 2
scalar OsgEarthNet.uav[9] utilizationFail 0
scalar OsgEarthNet.uav[9] simulationTime 259200
scalar OsgEarthNet.uav[10] utilizationSecMission 42835.268855381
scalar OsgEarthNet.uav[10] utilizationSecMaintenance 18364.032027226
scalar OsgEarthNet.uav[10] utilizationSecCharge 194899.74986173
scalar OsgEarthNet.uav[10] utilizationSecIdle 3100.9482556647
scalar OsgEarthNet.uav[10] utilizationEnergyMission 208144.54985428
scalar OsgEarthNet.uav[10] utilizationEnergyMaintenance 84726.610687256
scalar OsgEarthNet.uav[10] utilizationEnergyCharge 292079.30957031
scalar OsgEarthNet.uav[10] utilizationEnergyOverdrawMission 0
scalar OsgEarthNet.uav[10] utilizationEnergyOverdrawMaintenance 0
scalar OsgEarthNet.uav[10] utilizationCountMissions 64
scalar OsgEarthNet.uav[10] utilizationCountManeuversMission 1423
scalar OsgEarthNet.uav[10] utilizationCountManeuversMaintenance 128
scalar OsgEarthNet.uav[10] utilizationCountChargeState 64
scalar OsgEarthNet.uav[10] utilizationCountOverdrawnAfterMission 0
scalar OsgEarthNet.uav[10] utilizationCountIdleState 4
scalar OsgEarthNet.uav[10] utilizationFail 0
scalar OsgEarthNet.uav[10] simulationTime 259200
scalar OsgEarthNet.uav[11] utilizationSecMission 35513.599455137
scalar OsgEarthNet.uav[11] utilizationSecMaintenance 21144.396544863
scalar OsgEarthNet.uav[11] utilizationSecCharge 199950
scalar OsgEarthNet.uav[11] utilizationSecIdle 2592.003
scalar OsgEarthNet.uav[11] utilizationEnergyMission 171310.70210618
scalar OsgEarthNet.uav[11] utilizationEnergyMaintenance 99309.731113434
scalar OsgEarthNet.uav[11] utilizationEnergyCharge 268860.97583008
scalar OsgEarthNet.uav[11] utilizationEnergyOverdrawMission 0
scalar OsgEarthNet.uav[11] utilizationEnergyOverdrawMaintenance 0
scalar OsgEarthNet.uav[11] utilizationCountMissions 67
scalar OsgEarthNet.uav[11] utilizationCountManeuversMission 1050
scalar OsgEarthNet.uav[11] utilizationCountManeuversMaintenance 135
scalar OsgEarthNet.uav[11] utilizationCountChargeState 67
scalar OsgEarthNet.uav[11] utilizationCountOverdrawnAfterMission 0
scalar OsgEarthNet.uav[11] utilizationCountIdleState 13
scalar OsgEarthNet.uav[11] utilizationFail 0
scalar OsgEarthNet.uav[11] simulationTime 259200
scalar OsgEarthNet.uav[12] utilizationSecMission 41628.104076721
scalar OsgEarthNet.uav[12] utilizationSecMaintenance 19653.797453571
scalar OsgEarthNet.uav[12] utilizationSecCharge 197716.09746971
scalar OsgEarthNet.uav[12] utilizationSecIdle 202
scalar OsgEarthNet.uav[12] utilizationEnergyMission 201579.13072205
scalar OsgEarthNet.uav[12] utilizationEnergyMaintenance 92048.96906662
scalar OsgEarthNet.uav[12] utilizationEnergyCharge 292777.11132812
scalar OsgEarthNet.uav[12] utilizationEnergyOverdrawMission 0
scalar OsgEarthNet.uav[12] utilizationEnergyOverdrawMaintenance 0
scalar OsgEarthNet.uav[12] utilizationCountMissions 65
scalar OsgEarthNet.uav[12] utilizationCountManeuversMission 1286
scalar OsgEarthNet.uav[12] utilizationCountManeuversMaintenance 130
scalar OsgEarthNet.uav[12] utilizationCountChargeState 65
scalar OsgEarthNet.uav[12] utilizationCountOverdrawnAfterMission 0
scalar OsgEarthNet.uav[12] utilizationCountIdleState 2
scalar OsgEarthNet.uav[12] utilizationFail 0
scalar OsgEarthNet.uav[12] simulationTime 259200
scalar OsgEarthNet.uav[13] utilizationSecMission 35918.647819547
scalar OsgEarthNet.uav[13] utilizationSecMaintenance 23840.499728576
scalar OsgEarthNet.uav[13] utilizationSecCharge 195968.84445188
scalar OsgEarthNet.uav[13] utilizationSecIdle 3472.007
scalar OsgEarthNet.uav[13] utilizationEnergyMission 176287.7005043
scalar OsgEarthNet.uav[13] utilizationEnergyMaintenance 113624.58327484
scalar OsgEarthNet.uav[13] utilizationEnergyCharge 289440.47192383
scalar OsgEarthNet.uav[13] utilizationEnergyOverdrawMission 0
scalar OsgEarthNet.uav[13] utilizationEnergyOverdrawMaintenance 0
scalar OsgEarthNet.uav[13] utilizationCountMissions 66
scalar OsgEarthNet.uav[13] utilizationCountManeuversMission 1185
scalar OsgEarthNet.uav[13] utilizationCountManeuversMaintenance 132
scalar OsgEarthNet.uav[13] utilizationCountChargeState 66
scalar OsgEarthNet.uav[13] utilizationCountOverdrawnAfterMission 0
scalar OsgEarthNet.uav[13] utilizationCountIdleState 3
scalar OsgEarthNet.uav[13] utilizationFail 0
scalar OsgEarthNet.uav[13] simulationTime 259200
scalar OsgEarthNet.uav[14] utilizationSecMission 38506.633281233
scalar OsgEarthNet.uav[14] utilizationSecMaintenance 20097.924630076
scalar OsgEarthNet.uav[14] utilizationSecCharge 198110
scalar OsgEarthNet.uav[14] utilizationSecIdle 2485.4410886909
scalar OsgEarthNet.uav[14] utilizationEnergyMission 186170.78144836
scalar OsgEarthNet.uav[14] utilizationEnergyMaintenance 94702.329695174
scalar OsgEarthNet.uav[14] utilizationEnergyCharge 279110.35180664
scalar OsgEarthNet.uav[14] utilizationEnergyOverdrawMission 0
scalar OsgEarthNet.uav[14] utilizationEnergyOverdrawMaintenance 0
scalar OsgEarthNet.uav[14] utilizationCountMissions 68
scalar OsgEarthNet.uav[14] utilizationCountManeuversMission 1026
scalar OsgEarthNet.uav[14] utilizationCountManeuversMaintenance 137
scalar OsgEarthNet.uav[14] utilizationCountChargeState 68
scalar OsgEarthNet.uav[14] utilizationCountOverdrawnAfterMission 0
scalar OsgEarthNet.uav[14] utilizationCountIdleState 7
scalar OsgEarthNet.uav[14] utilizationFail 0
scalar OsgEarthNet.uav[14] simulationTime 259200
scalar OsgEarthNet.uav[15] utilizationSecMission 43006.760898351
scalar OsgEarthNet.uav[15] utilizationSecMaintenance 18788.686607955
scalar OsgEarthNet.uav[15] utilizationSecCharge 196002.54949369
scalar OsgEarthNet.uav[15] utilizationSecIdle 1402.002
scalar OsgEarthNet.uav[15] utilizationEnergyMission 209328.60909653
scalar OsgEarthNet.uav[15] utilizationEnergyMaintenance 86881.476207733
scalar OsgEarthNet.uav[15] utilizationEnergyCharge 291648.22485352
scalar OsgEarthNet.uav[15] utilizationEnergyOverdrawMission 0
scalar OsgEarthNet.uav[15] utilizationEnergyOverdrawMaintenance 0
scalar OsgEarthNet.uav[15] utilizationCountMissions 65
scalar OsgEarthNet.uav[15] utilizationCountManeuversMission 1382
scalar OsgEarthNet.uav[15] utilizationCountManeuversMaintenance 130
scalar OsgEarthNet.uav[15] utilizationCountChargeState 65
scalar OsgEarthNet.uav[15] utilizationCountOverdrawnAfterMission 0
scalar OsgEarthNet.uav[15] utilizationCountIdleState 1
scalar OsgEarthNet.uav[15] utilizationFail 0
scalar OsgEarthNet.uav[15] simulationTime 259200
scalar OsgEarthNet.uav[16] utilizationSecMission 42039.829148194
scalar OsgEarthNet.uav[16] utilizationSecMaintenance 19347.436679026
scalar OsgEarthNet.uav[16] utilizationSecCharge 194891.83048821
scalar OsgEarthNet.uav[16] utilizationSecIdle 2920.9026845731
scalar OsgEarthNet.uav[16] utilizationEnergyMission 206320.30318069
scalar OsgEarthNet.uav[16] utilizationEnergyMaintenance 89907.867191315
scalar OsgEarthNet.uav[16] utilizationEnergyCharge 292326.20556641
scalar OsgEarthNet.uav[16] utilizationEnergyOverdrawMission 0
scalar OsgEarthNet.uav[16] utilizationEnergyOverdrawMaintenance 0
scalar OsgEarthNet.uav[16] utilizationCountMissions 65
scalar OsgEarthNet.uav[16] utilizationCountManeuversMission 1410
scalar OsgEarthNet.uav[16] utilizationCountManeuversMaintenance 130
scalar OsgEarthNet.uav[16] utilizationCountChargeState 65
scalar OsgEarthNet.uav[16] utilizationCountOverdrawnAfterMission 0
scalar OsgEarthNet.uav[16] utilizationCountIdleState 1
scalar OsgEarthNet.uav[16] utilizationFail 0
scalar OsgEarthNet.uav[16] simulationTime 259200
scalar OsgEarthNet.uav[17] utilizationSecMission 36274.06025212
scalar OsgEarthNet.uav[17] utilizationSecMaintenance 23871.113911328
scalar OsgEarthNet.uav[17] utilizationSecCharge 197782.82332983
scalar OsgEarthNet.uav[17] utilizationSecIdle 1272.0015067221
scalar OsgEarthNet.uav[17] utilizationEnergyMission 176695.72925186
scalar OsgEarthNet.uav[17] utilizationEnergyMaintenance 113279.06528091
scalar OsgEarthNet.uav[17] utilizationEnergyCharge 289002.27905273
scalar OsgEarthNet.uav[17] utilizationEnergyOverdrawMission 0
scalar OsgEarthNet.uav[17] utilizationEnergyOverdrawMaintenance 0
scalar OsgEarthNet.uav[17] utilizationCountMissions 66
scalar OsgEarthNet.uav[17] utilizationCountManeuversMission 1223
scalar OsgEarthNet.uav[17] utilizationCountManeuversMaintenance 132
scalar OsgEarthNet.uav[17] utilizationCountChargeState 66
scalar OsgEarthNet.uav[17] utilizationCountOverdrawnAfterMission 0
scalar OsgEarthNet.uav[17] utilizationCountIdleState 7
scalar OsgEarthNet.uav[17] utilizationFail 0
scalar OsgEarthNet.uav[17] simulationTime 259200
scalar OsgEarthNet.uav[18] utilizationSecMission 42848.540127948
scalar OsgEarthNet.uav[18] utilizationSecMaintenance 17918.699871973
scalar OsgEarthNet.uav[18] utilizationSecCharge 195630.75600008
scalar OsgEarthNet.uav[18] utilizationSecIdle 2802.003
scalar OsgEarthNet.uav[18] utilizationEnergyMission 206849.80351257
scalar OsgEarthNet.uav[18] utilizationEnergyMaintenance 82181.223510742
scalar OsgEarthNet.uav[18] utilizationEnergyCharge 288434.75195312
scalar OsgEarthNet.uav[18] utilizationEnergyOverdrawMission 0
scalar OsgEarthNet.uav[18] utilizationEnergyOverdrawMaintenance 0
scalar OsgEarthNet.uav[18] utilizationCountMissions 64
scalar OsgEarthNet.uav[18] utilizationCountManeuversMission 1350
scalar OsgEarthNet.uav[18] utilizationCountManeuversMaintenance 128
scalar OsgEarthNet.uav[18] utilizationCountChargeState 64
scalar OsgEarthNet.uav[18] utilizationCountOverdrawnAfterMission 0
scalar OsgEarthNet.uav[18] utilizationCountIdleState 4
scalar OsgEarthNet.uav[18] utilizationFail 0
scalar OsgEarthNet.uav[18] simulationTime 259200
scalar OsgEarthNet.uav[19] utilizationSecMission 39541.264357111
scalar OsgEarthNet.uav[19] utilizationSecMaintenance 21903.803164667
scalar OsgEarthNet.uav[19] utilizationSecCharge 195329.03679923
scalar OsgEarthNet.uav[19] utilizationSecIdle 2425.8946789918
scalar OsgEarthNet.uav[19] utilizationEnergyMission 190339.41340637
scalar OsgEarthNet.uav[19] utilizationEnergyMaintenance 103082.9444313
scalar OsgEarthNet.uav[19] utilizationEnergyCharge 291973.92504883
scalar OsgEarthNet.uav[19] utilizationEnergyOverdrawMission 0
scalar OsgEarthNet.uav[19] utilizationEnergyOverdrawMaintenance 0
scalar OsgEarthNet.uav[19] utilizationCountMissions 66
scalar OsgEarthNet.uav[19] utilizationCountManeuversMission 1170
scalar OsgEarthNet.uav[19] utilizationCountManeuversMaintenance 132
scalar OsgEarthNet.uav[19] utilizationCountChargeState 66
scalar OsgEarthNet.uav[19] utilizationCountOverdrawnAfterMission 0
scalar OsgEarthNet.uav[19] utilizationCountIdleState 3
scalar OsgEarthNet.uav[19] utilizationFail 0
scalar OsgEarthNet.uav[19] simulationTime 259200
scalar OsgEarthNet.uav[20] utilizationSecMission 36087.097496797
scalar OsgEarthNet.uav[20] utilizationSecMaintenance 20808.523560003
scalar OsgEarthNet.uav[20] utilizationSecCharge 200628.42870017
scalar OsgEarthNet.uav[20] utilizationSecIdle 1675.94924303
scalar OsgEarthNet.uav[20] utilizationEnergyMission 174622.39280701
scalar OsgEarthNet.uav[20] utilizationEnergyMaintenance 99315.525569916
scalar OsgEarthNet.uav[20] utilizationEnergyCharge 269724.97241211
scalar OsgEarthNet.uav[20] utilizationEnergyOverdrawMission 0
scalar OsgEarthNet.uav[20] utilizationEnergyOverdrawMaintenance 0
scalar OsgEarthNet.uav[20] utilizationCountMissions 68
scalar OsgEarthNet.uav[20] utilizationCountManeuversMission 1019
scalar OsgEarthNet.uav[20] utilizationCountManeuversMaintenance 136
scalar OsgEarthNet.uav[20] utilizationCountChargeState 68
scalar OsgEarthNet.uav[20] utilizationCountOverdrawnAfterMission 0
scalar OsgEarthNet.uav[20] utilizationCountIdleState 10
scalar OsgEarthNet.uav[20] utilizationFail 0
scalar OsgEarthNet.uav[20] simulationTime 259200
scalar OsgEarthNet.uav[21] utilizationSecMission 38209.835552389
scalar OsgEarthNet.uav[21] utilizationSecMaintenance 20538.163447611
scalar OsgEarthNet.uav[21] utilizationSecCharge 199240
scalar OsgEarthNet.uav[21] utilizationSecIdle 1212
scalar OsgEarthNet.uav[21] utilizationEnergyMission 186741.795771
scalar OsgEarthNet.uav[21] utilizationEnergyMaintenance 95583.686519623
scalar OsgEarthNet.uav[21] utilizationEnergyCharge 280773.91235352
scalar OsgEarthNet.uav[21] utilizationEnergyOverdrawMission 0
scalar OsgEarthNet.uav[21] utilizationEnergyOverdrawMaintenance 0
scalar OsgEarthNet.uav[21] utilizationCountMissions 64
scalar OsgEarthNet.uav[21] utilizationCountManeuversMission 1301
scalar OsgEarthNet.uav[21] utilizationCountManeuversMaintenance 129
scalar OsgEarthNet.uav[21] utilizationCountChargeState 64
scalar OsgEarthNet.uav[21] utilizationCountOverdrawnAfterMission 0
scalar OsgEarthNet.uav[21] utilizationCountIdleState 10
scalar OsgEarthNet.uav[21] utilizationFail 0
scalar OsgEarthNet.uav[21] simulationTime 259200
scalar OsgEarthNet.uav[22] utilizationSecMission 44038.107701857
scalar OsgEarthNet.uav[22] utilizationSecMaintenance 17659.890298143
scalar OsgEarthNet.uav[22] utilizationSecCharge 196930
scalar OsgEarthNet.uav[22] utilizationSecIdle 572.001
scalar OsgEarthNet.uav[22] utilizationEnergyMission 213167.88545033
scalar OsgEarthNet.uav[22] utilizationEnergyMaintenance 82028.598693848
scalar OsgEarthNet.uav[22] utilizationEnergyCharge 290434.83300781
scalar OsgEarthNet.uav[22] utilizationEnergyOverdrawMission 0
scalar OsgEarthNet.uav[22] utilizationEnergyOverdrawMaintenance 0
scalar OsgEarthNet.uav[22] utilizationCountMissions 64
scalar OsgEarthNet.uav[22] utilizationCountManeuversMission 1329
scalar OsgEarthNet.uav[22] utilizationCountManeuversMaintenance 129
scalar OsgEarthNet.uav[22] utilizationCountChargeState 64
scalar OsgEarthNet.uav[22] utilizationCountOverdrawnAfterMission 0
scalar OsgEarthNet.uav[22] utilizationCountIdleState 4
scalar OsgEarthNet.uav[22] utilizationFail 0
scalar OsgEarthNet.uav[22] simulationTime 259200
scalar OsgEarthNet.uav[23] utilizationSecMission 42828.13657391
scalar OsgEarthNet.uav[23] utilizationSecMaintenance 17671.918665115
scalar OsgEarthNet.uav[23] utilizationSecCharge 194378.99350531
scalar OsgEarthNet.uav[23] utilizationSecIdle 4320.9502556647
scalar OsgEarthNet.uav[23] utilizationEnergyMission 209910.43875885
scalar OsgEarthNet.uav[23] utilizationEnergyMaintenance 81646.560516357
scalar OsgEarthNet.uav[23] utilizationEnergyCharge 289394.80297852
scalar OsgEarthNet.uav[23] utilizationEnergyOverdrawMission 0
scalar OsgEarthNet.uav[23] utilizationEnergyOverdrawMaintenance 0
scalar OsgEarthNet.uav[23] utilizationCountMissions 64
scalar OsgEarthNet.uav[23] utilizationCountManeuversMission 1512
scalar OsgEarthNet.uav[23] utilizationCountManeuversMaintenance 128
scalar OsgEarthNet.uav[23] utilizationCountChargeState 64
scalar OsgEarthNet.uav[23] utilizationCountOverdrawnAfterMission 0
scalar OsgEarthNet.uav[23] utilizationCountIdleState 3
scalar OsgEarthNet.uav[23] utilizationFail 0
scalar OsgEarthNet.uav[23] simulationTime 259200
scalar OsgEarthNet.uav[24] utilizationSecMission 34923.726243383
scalar OsgEarthNet.uav[24] utilizationSecMaintenance 21492.75889946
scalar OsgEarthNet.uav[24] utilizationSecCharge 200021.51185716
scalar OsgEarthNet.uav[24] utilizationSecIdle 2762.002
scalar OsgEarthNet.uav[24] utilizationEnergyMission 167159.61096954
scalar OsgEarthNet.uav[24] utilizationEnergyMaintenance 102612.67314148
scalar OsgEarthNet.uav[24] utilizationEnergyCharge 269517.71313477
scalar OsgEarthNet.uav[24] utilizationEnergyOverdrawMission 0
scalar OsgEarthNet.uav[24] utilizationEnergyOverdrawMaintenance 0
scalar OsgEarthNet.uav[24] utilizationCountMissions 68
scalar OsgEarthNet.uav[24] utilizationCountManeuversMission 1053
scalar OsgEarthNet.uav[24] utilizationCountManeuversMaintenance 136
scalar OsgEarthNet.uav[24] utilizationCountChargeState 68
scalar OsgEarthNet.uav[24] utilizationCountOverdrawnAfterMission 0
scalar OsgEarthNet.uav[24] utilizationCountIdleState 11
scalar OsgEarthNet.uav[24] utilizationFail 0
scalar OsgEarthNet.uav[24] simulationTime 259200
scalar OsgEarthNet.uav[25] utilizationSecMission 44109.7457801
scalar OsgEarthNet.uav[25] utilizationSecMaintenance 17930.434716173
scalar OsgEarthNet.uav[25] utilizationSecCharge 196797.81850373
scalar OsgEarthNet.uav[25] utilizationSecIdle 362
scalar OsgEarthNet.uav[25] utilizationEnergyMission 215227.29858398
scalar OsgEarthNet.uav[25] utilizationEnergyMaintenance 82403.087520599
scalar OsgEarthNet.uav[25] utilizationEnergyCharge 294322.38659668
scalar OsgEarthNet.uav[25] utilizationEnergyOverdrawMission 0
scalar OsgEarthNet.uav[25] utilizationEnergyOverdrawMaintenance 0
scalar OsgEarthNet.uav[25] utilizationCountMissions 65
scalar OsgEarthNet.uav[25] utilizationCountManeuversMission 1360
scalar OsgEarthNet.uav[25] utilizationCountManeuversMaintenance 130
scalar OsgEarthNet.uav[25] utilizationCountChargeState 65
scalar OsgEarthNet.uav[25] utilizationCountOverdrawnAfterMission 0
scalar OsgEarthNet.uav[25] utilizationCountIdleState 4
scalar OsgEarthNet.uav[25] utilizationFail 0
scalar OsgEarthNet.uav[25] simulationTime 259200
scalar OsgEarthNet.uav[26] utilizationSecMission 36795.003661927
scalar OsgEarthNet.uav[26] utilizationSecMaintenance 23777.769432253
scalar OsgEarthNet.uav[26] utilizationSecCharge 194505.21790582
scalar OsgEarthNet.uav[26] utilizationSecIdle 4122.008
scalar OsgEarthNet.uav[26] utilizationEnergyMission 177178.63456345
scalar OsgEarthNet.uav[26] utilizationEnergyMaintenance 113275.63515472
scalar OsgEarthNet.uav[26] utilizationEnergyCharge 287614.47961426
scalar OsgEarthNet.uav[26] utilizationEnergyOverdrawMission 0
scalar OsgEarthNet.uav[26] utilizationEnergyOverdrawMaintenance 0
scalar OsgEarthNet.uav[26] utilizationCountMissions 66
scalar OsgEarthNet.uav[26] utilizationCountManeuversMission 1215
scalar OsgEarthNet.uav[26] utilizationCountManeuversMaintenance 132
scalar OsgEarthNet.uav[26] utilizationCountChargeState 66
scalar OsgEarthNet.uav[26] utilizationCountOverdrawnAfterMission 0
scalar OsgEarthNet.uav[26] utilizationCountIdleState 6
scalar OsgEarthNet.uav[26] utilizationFail 0
scalar OsgEarthNet.uav[26] simulationTime 259200
scalar OsgEarthNet.uav[27] utilizationSecMission 37486.604043603
scalar OsgEarthNet.uav[27] utilizationSecMaintenance 19252.430970724
scalar OsgEarthNet.uav[27] utilizationSecCharge 199280
scalar OsgEarthNet.uav[27] utilizationSecIdle 3180.9639856735
scalar OsgEarthNet.uav[27] utilizationEnergyMission 180273.67820954
scalar OsgEarthNet.uav[27] utilizationEnergyMaintenance 91216.44348526
scalar OsgEarthNet.uav[27] utilizationEnergyCharge 268525.98095703
scalar OsgEarthNet.uav[27] utilizationEnergyOverdrawMission 0
scalar OsgEarthNet.uav[27] utilizationEnergyOverdrawMaintenance 0
scalar OsgEarthNet.uav[27] utilizationCountMissions 66
scalar OsgEarthNet.uav[27] utilizationCountManeuversMission 954
scalar OsgEarthNet.uav[27] utilizationCountManeuversMaintenance 133
scalar OsgEarthNet.uav[27] utilizationCountChargeState 66
scalar OsgEarthNet.uav[27] utilizationCountOverdrawnAfterMission 0
scalar OsgEarthNet.uav[27] utilizationCountIdleState 16
scalar OsgEarthNet.uav[27] utilizationFail 0
scalar OsgEarthNet.uav[27] simulationTime 259200
scalar OsgEarthNet.uav[28] utilizationSecMission 35456.627510925
scalar OsgEarthNet.uav[28] utilizationSecMaintenance 22177.302346122
scalar OsgEarthNet.uav[28] utilizationSecCharge 199649.71892213
scalar OsgEarthNet.uav[28] utilizationSecIdle 1916.3502208215
scalar OsgEarthNet.uav[28] utilizationEnergyMission 172555.25560379
scalar OsgEarthNet.uav[28] utilizationEnergyMaintenance 104089.80405807
scalar OsgEarthNet.uav[28] utilizationEnergyCharge 276733.8840332
scalar OsgEarthNet.uav[28] utilizationEnergyOverdrawMission 0
scalar OsgEarthNet.uav[28] utilizationEnergyOverdrawMaintenance 0
scalar OsgEarthNet.uav[28] utilizationCountMissions 69
scalar OsgEarthNet.uav[28] utilizationCountManeuversMission 1212
scalar OsgEarthNet.uav[28] utilizationCountManeuversMaintenance 138
scalar OsgEarthNet.uav[28] utilizationCountChargeState 69
scalar OsgEarthNet.uav[28] utilizationCountOverdrawnAfterMission 0
scalar OsgEarthNet.uav[28] utilizationCountIdleState 5
scalar OsgEarthNet.uav[28] utilizationFail 0
scalar OsgEarthNet.uav[28] simulationTime 259200
scalar OsgEarthNet.uav[29] utilizationSecMission 36651.268118314
scalar OsgEarthNet.uav[29] utilizationSecMaintenance 23294.712614551
scalar OsgEarthNet.uav[29] utilizationSecCharge 195120
scalar OsgEarthNet.uav[29] utilizationSecIdle 4134.0182671353
scalar OsgEarthNet.uav[29] utilizationEnergyMission 180372.33263429
scalar OsgEarthNet.uav[29] utilizationEnergyMaintenance 111067.68384171
scalar OsgEarthNet.uav[29] utilizationEnergyCharge 289433.05126953
scalar OsgEarthNet.uav[29] utilizationEnergyOverdrawMission 0
scalar OsgEarthNet.uav[29] utilizationEnergyOverdrawMaintenance 0
scalar OsgEarthNet.uav[29] utilizationCountMissions 65
scalar OsgEarthNet.uav[29] utilizationCountManeuversMission 1187
scalar OsgEarthNet.uav[29] utilizationCountManeuversMaintenance 131
scalar OsgEarthNet.uav[29] utilizationCountChargeState 65
scalar OsgEarthNet.uav[29] utilizationCountOverdrawnAfterMission 0
scalar OsgEarthNet.uav[29] utilizationCountIdleState 4
scalar OsgEarthNet.uav[29] utilizationFail 0
scalar OsgEarthNet.uav[29] simulationTime 259200
scalar OsgEarthNet.uav[30] utilizationSecMission 40619.140064482
scalar OsgEarthNet.uav[30] utilizationSecMaintenance 18978.858935518
scalar OsgEarthNet.uav[30] utilizationSecCharge 198740
scalar OsgEarthNet.uav[30] utilizationSecIdle 862
scalar OsgEarthNet.uav[30] utilizationEnergyMission 197052.219944
scalar OsgEarthNet.uav[30] utilizationEnergyMaintenance 89077.490772276
scalar OsgEarthNet.uav[30] utilizationEnergyCharge 283373.87646484
scalar OsgEarthNet.uav[30] utilizationEnergyOverdrawMission 0
scalar OsgEarthNet.uav[30] utilizationEnergyOverdrawMaintenance 0
scalar OsgEarthNet.uav[30] utilizationCountMissions 65
scalar OsgEarthNet.uav[30] utilizationCountManeuversMission 1287
scalar OsgEarthNet.uav[30] utilizationCountManeuversMaintenance 130
scalar OsgEarthNet.uav[30] utilizationCountChargeState 64
scalar OsgEarthNet.uav[30] utilizationCountOverdrawnAfterMission 0
scalar OsgEarthNet.uav[30] utilizationCountIdleState 8
scalar OsgEarthNet.uav[30] utilizationFail 0
scalar OsgEarthNet.uav[30] simulationTime 259200
scalar OsgEarthNet.uav[31] utilizationSecMission 33627.965420266
scalar OsgEarthNet.uav[31] utilizationSecMaintenance 23163.850127574
scalar OsgEarthNet.uav[31] utilizationSecCharge 200786.18245216
scalar OsgEarthNet.uav[31] utilizationSecIdle 1622.001
scalar OsgEarthNet.uav[31] utilizationEnergyMission 161642.70488739
scalar OsgEarthNet.uav[31] utilizationEnergyMaintenance 110299.63703537
scalar OsgEarthNet.uav[31] utilizationEnergyCharge 268656.97790527
scalar OsgEarthNet.uav[31] utilizationEnergyOverdrawMission 0
scalar OsgEarthNet.uav[31] utilizationEnergyOverdrawMaintenance 0
scalar OsgEarthNet.uav[31] utilizationCountMissions 72
scalar OsgEarthNet.uav[31] utilizationCountManeuversMission 1033
scalar OsgEarthNet.uav[31] utilizationCountManeuversMaintenance 144
scalar OsgEarthNet.uav[31] utilizationCountChargeState 72
scalar OsgEarthNet.uav[31] utilizationCountOverdrawnAfterMission 0
scalar OsgEarthNet.uav[31] utilizationCountIdleState 12
scalar OsgEarthNet.uav[31] utilizationFail 0
scalar OsgEarthNet.uav[31] simulationTime 259200
scalar OsgEarthNet.uav[32] utilizationSecMission 42857.237182722
scalar OsgEarthNet.uav[32] utilizationSecMaintenance 18948.490528023
scalar OsgEarthNet.uav[32] utilizationSecCharge 196962.27128926
scalar OsgEarthNet.uav[32] utilizationSecIdle 432
scalar OsgEarthNet.uav[32] utilizationEnergyMission 208865.33693672
scalar OsgEarthNet.uav[32] utilizationEnergyMaintenance 87006.939907074
scalar OsgEarthNet.uav[32] utilizationEnergyCharge 294925.96435547
scalar OsgEarthNet.uav[32] utilizationEnergyOverdrawMission 0
scalar OsgEarthNet.uav[32] utilizationEnergyOverdrawMaintenance 0
scalar OsgEarthNet.uav[32] utilizationCountMissions 65
scalar OsgEarthNet.uav[32] utilizationCountManeuversMission 1390
scalar OsgEarthNet.uav[32] utilizationCountManeuversMaintenance 129
scalar OsgEarthNet.uav[32] utilizationCountChargeState 65
scalar OsgEarthNet.uav[32] utilizationCountOverdrawnAfterMission 0
scalar OsgEarthNet.uav[32] utilizationCountIdleState 4
scalar OsgEarthNet.uav[32] utilizationFail 0
scalar OsgEarthNet.uav[32] simulationTime 259200
scalar OsgEarthNet.uav[33] utilizationSecMission 37767.028083339
scalar OsgEarthNet.uav[33] utilizationSecMaintenance 23539.503007972
scalar OsgEarthNet.uav[33] utilizationSecCharge 196161.32809814
scalar OsgEarthNet.uav[33] utilizationSecIdle 1732.1398105514
scalar OsgEarthNet.uav[33] utilizationEnergyMission 181980.96372604
scalar OsgEarthNet.uav[33] utilizationEnergyMaintenance 112233.78648376
scalar OsgEarthNet.uav[33] utilizationEnergyCharge 291451.3347168
scalar OsgEarthNet.uav[33] utilizationEnergyOverdrawMission 0
scalar OsgEarthNet.uav[33] utilizationEnergyOverdrawMaintenance 0
scalar OsgEarthNet.uav[33] utilizationCountMissions 66
scalar OsgEarthNet.uav[33] utilizationCountManeuversMission 1198
scalar OsgEarthNet.uav[33] utilizationCountManeuversMaintenance 132
scalar OsgEarthNet.uav[33] utilizationCountChargeState 66
scalar OsgEarthNet.uav[33] utilizationCountOverdrawnAfterMission 0
scalar OsgEarthNet.uav[33] utilizationCountIdleState 3
scalar OsgEarthNet.uav[33] utilizationFail 0
scalar OsgEarthNet.uav[33] simulationTime 259200
scalar OsgEarthNet.uav[34] utilizationSecMission 35340.484662582
scalar OsgEarthNet.uav[34] utilizationSecMaintenance 21400.861743377
scalar OsgEarthNet.uav[34] utilizationSecCharge 199026.64759404
scalar OsgEarthNet.uav[34] utilizationSecIdle 3432.005
scalar OsgEarthNet.uav[34] utilizationEnergyMission 169958.33670425
scalar OsgEarthNet.uav[34] utilizationEnergyMaintenance 100838.56423569
scalar OsgEarthNet.uav[34] utilizationEnergyCharge 270873.31542969
scalar OsgEarthNet.uav[34] utilizationEnergyOverdrawMission 0
scalar OsgEarthNet.uav[34] utilizationEnergyOverdrawMaintenance 0
scalar OsgEarthNet.uav[34] utilizationCountMissions 68
scalar OsgEarthNet.uav[34] utilizationCountManeuversMission 1031
scalar OsgEarthNet.uav[34] utilizationCountManeuversMaintenance 136
scalar OsgEarthNet.uav[34] utilizationCountChargeState 68
scalar OsgEarthNet.uav[34] utilizationCountOverdrawnAfterMission 0
scalar OsgEarthNet.uav[34] utilizationCountIdleState 12
scalar OsgEarthNet.uav[34] utilizationFail 0
scalar OsgEarthNet.uav[34] simulationTime 259200
scalar OsgEarthNet.uav[35] utilizationSecMission 41948.275264611
scalar OsgEarthNet.uav[35] utilizationSecMaintenance 19865.72737566
scalar OsgEarthNet.uav[35] utilizationSecCharge 196173.99535973
scalar OsgEarthNet.uav[35] utilizationSecIdle 1212.001
scalar OsgEarthNet.uav[35] utilizationEnergyMission 205336.59024429
scalar OsgEarthNet.uav[35] utilizationEnergyMaintenance 91270.180702209
scalar OsgEarthNet.uav[35] utilizationEnergyCharge 295289.61938477
scalar OsgEarthNet.uav[35] utilizationEnergyOverdrawMission 0
scalar OsgEarthNet.uav[35] utilizationEnergyOverdrawMaintenance 0
scalar OsgEarthNet.uav[35] utilizationCountMissions 66
scalar OsgEarthNet.uav[35] utilizationCountManeuversMission 1476
scalar OsgEarthNet.uav[35] utilizationCountManeuversMaintenance 132
scalar OsgEarthNet.uav[35] utilizationCountChargeState 66
scalar OsgEarthNet.uav[35] utilizationCountOverdrawnAfterMission 0
scalar OsgEarthNet.uav[35] utilizationCountIdleState 5
scalar OsgEarthNet.uav[35] utilizationFail 0
scalar OsgEarthNet.uav[35] simulationTime 259200
scalar OsgEarthNet.uav[36] utilizationSecMission 36513.455228206
scalar OsgEarthNet.uav[36] utilizationSecMaintenance 21568.399362399
scalar OsgEarthNet.uav[36] utilizationSecCharge 199796.1434094
scalar OsgEarthNet.uav[36] utilizationSecIdle 1322.001
scalar OsgEarthNet.uav[36] utilizationEnergyMission 174593.28533554
scalar OsgEarthNet.uav[36] utilizationEnergyMaintenance 102930.81938934
scalar OsgEarthNet.uav[36] utilizationEnergyCharge 278050.95654297
scalar OsgEarthNet.uav[36] utilizationEnergyOverdrawMission 0
scalar OsgEarthNet.uav[36] utilizationEnergyOverdrawMaintenance 0
scalar OsgEarthNet.uav[36] utilizationCountMissions 66
scalar OsgEarthNet.uav[36] utilizationCountManeuversMission 1140
scalar OsgEarthNet.uav[36] utilizationCountManeuversMaintenance 132
scalar OsgEarthNet.uav[36] utilizationCountChargeState 66
scalar OsgEarthNet.uav[36] utilizationCountOverdrawnAfterMission 0
scalar OsgEarthNet.uav[36] utilizationCountIdleState 12
scalar OsgEarthNet.uav[36] utilizationFail 0
scalar OsgEarthNet.uav[36] simulationTime 259200
scalar OsgEarthNet.uav[37] utilizationSecMission 37121.907657052
scalar OsgEarthNet.uav[37] utilizationSecMaintenance 20856.088797737
scalar OsgEarthNet.uav[37] utilizationSecCharge 197290
scalar OsgEarthNet.uav[37] utilizationSecIdle 3932.0025452107
scalar OsgEarthNet.uav[37] utilizationEnergyMission 177722.65661621
scalar OsgEarthNet.uav[37] utilizationEnergyMaintenance 98929.828834758
scalar OsgEarthNet.uav[37] utilizationEnergyCharge 273893.82202148
scalar OsgEarthNet.uav[37] utilizationEnergyOverdrawMission 0
scalar OsgEarthNet.uav[37] utilizationEnergyOverdrawMaintenance 0
scalar OsgEarthNet.uav[37] utilizationCountMissions 67
scalar OsgEarthNet.uav[37] utilizationCountManeuversMission 1044
scalar OsgEarthNet.uav[37] utilizationCountManeuversMaintenance 134
scalar OsgEarthNet.uav[37] utilizationCountChargeState 66
scalar OsgEarthNet.uav[37] utilizationCountOverdrawnAfterMission 0
scalar OsgEarthNet.uav[37] utilizationCountIdleState 10
scalar OsgEarthNet.uav[37] utilizationFail 0
scalar OsgEarthNet.uav[37] simulationTime 259200
scalar OsgEarthNet.uav[38] utilizationSecMission 42382.414175219
scalar OsgEarthNet.uav[38] utilizationSecMaintenance 18875.35515105
scalar OsgEarthNet.uav[38] utilizationSecCharge 196502.80432644
scalar OsgEarthNet.uav[38] utilizationSecIdle 1439.4253472904
scalar OsgEarthNet.uav[38] utilizationEnergyMission 205374.59155273
scalar OsgEarthNet.uav[38] utilizationEnergyMaintenance 86204.229625702
scalar OsgEarthNet.uav[38] utilizationEnergyCharge 292372.10253906
scalar OsgEarthNet.uav[38] utilizationEnergyOverdrawMission 0
scalar OsgEarthNet.uav[38] utilizationEnergyOverdrawMaintenance 0
scalar OsgEarthNet.uav[38] utilizationCountMissions 65
scalar OsgEarthNet.uav[38] utilizationCountManeuversMission 1425
scalar OsgEarthNet.uav[38] utilizationCountManeuversMaintenance 130
scalar OsgEarthNet.uav[38] utilizationCountChargeState 65
scalar OsgEarthNet.uav[38] utilizationCountOverdrawnAfterMission 0
scalar OsgEarthNet.uav[38] utilizationCountIdleState 1
scalar OsgEarthNet.uav[38] utilizationFail 0
scalar OsgEarthNet.uav[38] simulationTime 259200
scalar OsgEarthNet.uav[39] utilizationSecMission 36895.003661927
scalar OsgEarthNet.uav[39] utilizationSecMaintenance 24039.87139816
scalar OsgEarthNet.uav[39] utilizationSecCharge 196803.12193991
scalar OsgEarthNet.uav[39] utilizationSecIdle 1462.002
scalar OsgEarthNet.uav[39] utilizationEnergyMission 180151.79301834
scalar OsgEarthNet.uav[39] utilizationEnergyMaintenance 114845.83592987
scalar OsgEarthNet.uav[39] utilizationEnergyCharge 291896.68164062
scalar OsgEarthNet.uav[39] utilizationEnergyOverdrawMission 0
scalar OsgEarthNet.uav[39] utilizationEnergyOverdrawMaintenance 0
scalar OsgEarthNet.uav[39] utilizationCountMissions 66
scalar OsgEarthNet.uav[39] utilizationCountManeuversMission 1220
scalar OsgEarthNet.uav[39] utilizationCountManeuversMaintenance 132
scalar OsgEarthNet.uav[39] utilizationCountChargeState 66
scalar OsgEarthNet.uav[39] utilizationCountOverdrawnAfterMission 0
scalar OsgEarthNet.uav[39] utilizationCountIdleState 4
scalar OsgEarthNet.uav[39] utilizationFail 0
scalar OsgEarthNet.uav[39] simulationTime 259200
scalar OsgEarthNet.uav[40] utilizationSecMission 35955.816019898
scalar OsgEarthNet.uav[40] utilizationSecMaintenance 21142.289458354
scalar OsgEarthNet.uav[40] utilizationSecCharge 197230.10741923
scalar OsgEarthNet.uav[40] utilizationSecIdle 4871.7861025228
scalar OsgEarthNet.uav[40] utilizationEnergyMission 177028.40822601
scalar OsgEarthNet.uav[40] utilizationEnergyMaintenance 100473.87520599
scalar OsgEarthNet.uav[40] utilizationEnergyCharge 273039.29296875
scalar OsgEarthNet.uav[40] utilizationEnergyOverdrawMission 0
scalar OsgEarthNet.uav[40] utilizationEnergyOverdrawMaintenance 0
scalar OsgEarthNet.uav[40] utilizationCountMissions 65
scalar OsgEarthNet.uav[40] utilizationCountManeuversMission 1121
scalar OsgEarthNet.uav[40] utilizationCountManeuversMaintenance 130
scalar OsgEarthNet.uav[40] utilizationCountChargeState 65
scalar OsgEarthNet.uav[40] utilizationCountOverdrawnAfterMission 0
scalar OsgEarthNet.uav[40] utilizationCountIdleState 11
scalar OsgEarthNet.uav[40] utilizationFail 0
scalar OsgEarthNet.uav[40] simulationTime 259200
scalar OsgEarthNet.uav[41] utilizationSecMission 36645.117721821
scalar OsgEarthNet.uav[41] utilizationSecMaintenance 20189.454676794
scalar OsgEarthNet.uav[41] utilizationSecCharge 198548.11051955
scalar OsgEarthNet.uav[41] utilizationSecIdle 3817.3160818306
scalar OsgEarthNet.uav[41] utilizationEnergyMission 175708.82843399
scalar OsgEarthNet.uav[41] utilizationEnergyMaintenance 95080.684200287
scalar OsgEarthNet.uav[41] utilizationEnergyCharge 266869.79174805
scalar OsgEarthNet.uav[41] utilizationEnergyOverdrawMission 0
scalar OsgEarthNet.uav[41] utilizationEnergyOverdrawMaintenance 0
scalar OsgEarthNet.uav[41] utilizationCountMissions 68
scalar OsgEarthNet.uav[41] utilizationCountManeuversMission 955
scalar OsgEarthNet.uav[41] utilizationCountManeuversMaintenance 136
scalar OsgEarthNet.uav[41] utilizationCountChargeState 68
scalar OsgEarthNet.uav[41] utilizationCountOverdrawnAfterMission 0
scalar OsgEarthNet.uav[41] utilizationCountIdleState 11
scalar OsgEarthNet.uav[41] utilizationFail 0
scalar OsgEarthNet.uav[41] simulationTime 259200
scalar OsgEarthNet.uav[42] utilizationSecMission 44493.132636991
scalar OsgEarthNet.uav[42] utilizationSecMaintenance 17224.866363009
scalar OsgEarthNet.uav[42] utilizationSecCharge 197270
scalar OsgEarthNet.uav[42] utilizationSecIdle 212
scalar OsgEarthNet.uav[42] utilizationEnergyMission 216113.95507261
scalar OsgEarthNet.uav[42] utilizationEnergyMaintenance 79580.871963501
scalar OsgEarthNet.uav[42] utilizationEnergyCharge 291277.41894531
scalar OsgEarthNet.uav[42] utilizationEnergyOverdrawMission 0
scalar OsgEarthNet.uav[42] utilizationEnergyOverdrawMaintenance 0
scalar OsgEarthNet.uav[42] utilizationCountMissions 64
scalar OsgEarthNet.uav[42] utilizationCountManeuversMission 1334
scalar OsgEarthNet.uav[42] utilizationCountManeuversMaintenance 128
scalar OsgEarthNet.uav[42] utilizationCountChargeState 64
scalar OsgEarthNet.uav[42] utilizationCountOverdrawnAfterMission 0
scalar OsgEarthNet.uav[42] utilizationCountIdleState 2
scalar OsgEarthNet.uav[42] utilizationFail 0
scalar OsgEarthNet.uav[42] simulationTime 259200
scalar OsgEarthNet.uav[43] utilizationSecMission 36895.737889586
scalar OsgEarthNet.uav[43] utilizationSecMaintenance 22898.030671493
scalar OsgEarthNet.uav[43] utilizationSecCharge 196124.22443892
scalar OsgEarthNet.uav[43] utilizationSecIdle 3282.006
scalar OsgEarthNet.uav[43] utilizationEnergyMission 177768.27109146
scalar OsgEarthNet.uav[43] utilizationEnergyMaintenance 109142.41048431
scalar OsgEarthNet.uav[43] utilizationEnergyCharge 287567.58886719
scalar OsgEarthNet.uav[43] utilizationEnergyOverdrawMission 0
scalar OsgEarthNet.uav[43] utilizationEnergyOverdrawMaintenance 0
scalar OsgEarthNet.uav[43] utilizationCountMissions 65
scalar OsgEarthNet.uav[43] utilizationCountManeuversMission 1177
scalar OsgEarthNet.uav[43] utilizationCountManeuversMaintenance 130
scalar OsgEarthNet.uav[43] utilizationCountChargeState 65
scalar OsgEarthNet.uav[43] utilizationCountOverdrawnAfterMission 0
scalar OsgEarthNet.uav[43] utilizationCountIdleState 5
scalar OsgEarthNet.uav[43] utilizationFail 0
scalar OsgEarthNet.uav[43] simulationTime 259200
scalar OsgEarthNet.uav[44] utilizationSecMission 36702.167137728
scalar OsgEarthNet.uav[44] utilizationSecMaintenance 19362.381360268
scalar OsgEarthNet.uav[44] utilizationSecCharge 199440.74480297
scalar OsgEarthNet.uav[44] utilizationSecIdle 3694.7056990363
scalar OsgEarthNet.uav[44] utilizationEnergyMission 173800.23366165
scalar OsgEarthNet.uav[44] utilizationEnergyMaintenance 92508.162086487
scalar OsgEarthNet.uav[44] utilizationEnergyCharge 260853.30181885
scalar OsgEarthNet.uav[44] utilizationEnergyOverdrawMission 0
scalar OsgEarthNet.uav[44] utilizationEnergyOverdrawMaintenance 0
scalar OsgEarthNet.uav[44] utilizationCountMissions 69
scalar OsgEarthNet.uav[44] utilizationCountManeuversMission 882
scalar OsgEarthNet.uav[44] utilizationCountManeuversMaintenance 138
scalar OsgEarthNet.uav[44] utilizationCountChargeState 69
scalar OsgEarthNet.uav[44] utilizationCountOverdrawnAfterMission 0
scalar OsgEarthNet.uav[44] utilizationCountIdleState 15
scalar OsgEarthNet.uav[44] utilizationFail 0
scalar OsgEarthNet.uav[44] simulationTime 259200
scalar OsgEarthNet.uav[45] utilizationSecMission 42775.678904549
scalar OsgEarthNet.uav[45] utilizationSecMaintenance 19444.626146369
scalar OsgEarthNet.uav[45] utilizationSecCharge 195977.69194908
scalar OsgEarthNet.uav[45] utilizationSecIdle 1002.002
scalar OsgEarthNet.uav[45] utilizationEnergyMission 207046.66827393
scalar OsgEarthNet.uav[45] utilizationEnergyMaintenance 89290.371696472
scalar OsgEarthNet.uav[45] utilizationEnergyCharge 294036.90991211
scalar OsgEarthNet.uav[45] utilizationEnergyOverdrawMission 0
scalar OsgEarthNet.uav[45] utilizationEnergyOverdrawMaintenance 0
scalar OsgEarthNet.uav[45] utilizationCountMissions 66
scalar OsgEarthNet.uav[45] utilizationCountManeuversMission 1376
scalar OsgEarthNet.uav[45] utilizationCountManeuversMaintenance 132
scalar OsgEarthNet.uav[45] utilizationCountChargeState 66
scalar OsgEarthNet.uav[45] utilizationCountOverdrawnAfterMission 0
scalar OsgEarthNet.uav[45] utilizationCountIdleState 1
scalar OsgEarthNet.uav[45] utilizationFail 0
scalar OsgEarthNet.uav[45] simulationTime 259200
scalar OsgEarthNet.uav[46] utilizationSecMission 36020.847526467
scalar OsgEarthNet.uav[46] utilizationSecMaintenance 22876.577418439
scalar OsgEarthNet.uav[46] utilizationSecCharge 197769.80809235
scalar OsgEarthNet.uav[46] utilizationSecIdle 2532.765962746
scalar OsgEarthNet.uav[46] utilizationEnergyMission 174850.58638763
scalar OsgEarthNet.uav[46] utilizationEnergyMaintenance 108776.10609436
scalar OsgEarthNet.uav[46] utilizationEnergyCharge 280137.49365234
scalar OsgEarthNet.uav[46] utilizationEnergyOverdrawMission 0
scalar OsgEarthNet.uav[46] utilizationEnergyOverdrawMaintenance 0
scalar OsgEarthNet.uav[46] utilizationCountMissions 67
scalar OsgEarthNet.uav[46] utilizationCountManeuversMission 1169
scalar OsgEarthNet.uav[46] utilizationCountManeuversMaintenance 134
scalar OsgEarthNet.uav[46] utilizationCountChargeState 67
scalar OsgEarthNet.uav[46] utilizationCountOverdrawnAfterMission 0
scalar OsgEarthNet.uav[46] utilizationCountIdleState 5
scalar OsgEarthNet.uav[46] utilizationFail 0
scalar OsgEarthNet.uav[46] simulationTime 259200
scalar OsgEarthNet.uav[47] utilizationSecMission 38344.022536567
scalar OsgEarthNet.uav[47] utilizationSecMaintenance 23103.976463433
scalar OsgEarthNet.uav[47] utilizationSecCharge 197400
scalar OsgEarthNet.uav[47] utilizationSecIdle 352
scalar OsgEarthNet.uav[47] utilizationEnergyMission 185342.75769806
scalar OsgEarthNet.uav[47] utilizationEnergyMaintenance 110013.9638457
scalar OsgEarthNet.uav[47] utilizationEnergyCharge 293236.109375
scalar OsgEarthNet.uav[47] utilizationEnergyOverdrawMission 0
scalar OsgEarthNet.uav[47] utilizationEnergyOverdrawMaintenance 0
scalar OsgEarthNet.uav[47] utilizationCountMissions 67
scalar OsgEarthNet.uav[47] utilizationCountManeuversMission 1171
scalar OsgEarthNet.uav[47] utilizationCountManeuversMaintenance 133
scalar OsgEarthNet.uav[47] utilizationCountChargeState 66
scalar OsgEarthNet.uav[47] utilizationCountOverdrawnAfterMission 0
scalar OsgEarthNet.uav[47] utilizationCountIdleState 4
scalar OsgEarthNet.uav[47] utilizationFail 0
scalar OsgEarthNet.uav[47] simulationTime 259200
scalar OsgEarthNet.uav[48] utilizationSecMission 41937.430431116
scalar OsgEarthNet.uav[48] utilizationSecMaintenance 18543.722237483
scalar OsgEarthNet.uav[48] utilizationSecCharge 196513.390678
scalar OsgEarthNet.uav[48] utilizationSecIdle 2205.4556534032
scalar OsgEarthNet.uav[48] utilizationEnergyMission 208574.91106415
scalar OsgEarthNet.uav[48] utilizationEnergyMaintenance 85673.651329041
scalar OsgEarthNet.uav[48] utilizationEnergyCharge 293862.81298828
scalar OsgEarthNet.uav[48] utilizationEnergyOverdrawMission 0
scalar OsgEarthNet.uav[48] utilizationEnergyOverdrawMaintenance 0
scalar OsgEarthNet.uav[48] utilizationCountMissions 65
scalar OsgEarthNet.uav[48] utilizationCountManeuversMission 1583
scalar OsgEarthNet.uav[48] utilizationCountManeuversMaintenance 130
scalar OsgEarthNet.uav[48] utilizationCountChargeState 65
scalar OsgEarthNet.uav[48] utilizationCountOverdrawnAfterMission 0
scalar OsgEarthNet.uav[48] utilizationCountIdleState 3
scalar OsgEarthNet.uav[48] utilizationFail 0
scalar OsgEarthNet.uav[48] simulationTime 259200
scalar OsgEarthNet.uav[49] utilizationSecMission 36926.512005838
scalar OsgEarthNet.uav[49] utilizationSecMaintenance 22886.15331473
scalar OsgEarthNet.uav[49] utilizationSecCharge 195793.94156449
scalar OsgEarthNet.uav[49] utilizationSecIdle 3593.3921149407
scalar OsgEarthNet.uav[49] utilizationEnergyMission 178311.88449097
scalar OsgEarthNet.uav[49] utilizationEnergyMaintenance 108671.58135223
scalar OsgEarthNet.uav[49] utilizationEnergyCharge 286742.02563477
scalar OsgEarthNet.uav[49] utilizationEnergyOverdrawMission 0
scalar OsgEarthNet.uav[49] utilizationEnergyOverdrawMaintenance 0
scalar OsgEarthNet.uav[49] utilizationCountMissions 65
scalar OsgEarthNet.uav[49] utilizationCountManeuversMission 1165
scalar OsgEarthNet.uav[49] utilizationCountManeuversMaintenance 130
scalar OsgEarthNet.uav[49] utilizationCountChargeState 65
scalar OsgEarthNet.uav[49] utilizationCountOverdrawnAfterMission 0
scalar OsgEarthNet.uav[49] utilizationCountIdleState 5
scalar OsgEarthNet.uav[49] utilizationFail 0
scalar OsgEarthNet.uav[49] simulationTime 259200
scalar OsgEarthNet.uav[50] utilizationSecMission 43088.099954039
scalar OsgEarthNet.uav[50] utilizationSecMaintenance 18627.216018153
scalar OsgEarthNet.uav[50] utilizationSecCharge 194253.73377214
scalar OsgEarthNet.uav[50] utilizationSecIdle 3230.9492556647
scalar OsgEarthNet.uav[50] utilizationEnergyMission 208758.01747894
scalar OsgEarthNet.uav[50] utilizationEnergyMaintenance 86230.556560516
scalar OsgEarthNet.uav[50] utilizationEnergyCharge 290620.65966797
scalar OsgEarthNet.uav[50] utilizationEnergyOverdrawMission 0
scalar OsgEarthNet.uav[50] utilizationEnergyOverdrawMaintenance 0
scalar OsgEarthNet.uav[50] utilizationCountMissions 65
scalar OsgEarthNet.uav[50] utilizationCountManeuversMission 1353
scalar OsgEarthNet.uav[50] utilizationCountManeuversMaintenance 130
scalar OsgEarthNet.uav[50] utilizationCountChargeState 65
scalar OsgEarthNet.uav[50] utilizationCountOverdrawnAfterMission 0
scalar OsgEarthNet.uav[50] utilizationCountIdleState 2
scalar OsgEarthNet.uav[50] utilizationFail 0
scalar OsgEarthNet.uav[50] simulationTime 259200
scalar OsgEarthNet.uav[51] utilizationSecMission 42994.412049787
scalar OsgEarthNet.uav[51] utilizationSecMaintenance 18640.144861522
scalar OsgEarthNet.uav[51] utilizationSecCharge 195160
scalar OsgEarthNet.uav[51] utilizationSecIdle 2405.4420886909
scalar OsgEarthNet.uav[51] utilizationEnergyMission 209986.77069473
scalar OsgEarthNet.uav[51] utilizationEnergyMaintenance 85250.557197112
scalar OsgEarthNet.uav[51] utilizationEnergyCharge 289910.97460938
scalar OsgEarthNet.uav[51] utilizationEnergyOverdrawMission 0
scalar OsgEarthNet.uav[51] utilizationEnergyOverdrawMaintenance 0
scalar OsgEarthNet.uav[51] utilizationCountMissions 65
scalar OsgEarthNet.uav[51] utilizationCountManeuversMission 1399
scalar OsgEarthNet.uav[51] utilizationCountManeuversMaintenance 130
scalar OsgEarthNet.uav[51] utilizationCountChargeState 64
scalar OsgEarthNet.uav[51] utilizationCountOverdrawnAfterMission 0
scalar OsgEarthNet.uav[51] utilizationCountIdleState 4
scalar OsgEarthNet.uav[51] utilizationFail 0
scalar OsgEarthNet.uav[51] simulationTime 259200
scalar OsgEarthNet.uav[52] utilizationSecMission 43079.577192573
scalar OsgEarthNet.uav[52] utilizationSecMaintenance 18040.564319535
scalar OsgEarthNet.uav[52] utilizationSecCharge 196880.68237748
scalar OsgEarthNet.uav[52] utilizationSecIdle 1199.1751104107
scalar OsgEarthNet.uav[52] utilizationEnergyMission 210968.52647018
scalar OsgEarthNet.uav[52] utilizationEnergyMaintenance 83096.08190155
scalar OsgEarthNet.uav[52] utilizationEnergyCharge 291635.71191406
scalar OsgEarthNet.uav[52] utilizationEnergyOverdrawMission 0
scalar OsgEarthNet.uav[52] utilizationEnergyOverdrawMaintenance 0
scalar OsgEarthNet.uav[52] utilizationCountMissions 65
scalar OsgEarthNet.uav[52] utilizationCountManeuversMission 1366
scalar OsgEarthNet.uav[52] utilizationCountManeuversMaintenance 130
scalar OsgEarthNet.uav[52] utilizationCountChargeState 65
scalar OsgEarthNet.uav[52] utilizationCountOverdrawnAfterMission 0
scalar OsgEarthNet.uav[52] utilizationCountIdleState 4
scalar OsgEarthNet.uav[52] utilizationFail 0
scalar OsgEarthNet.uav[52] simulationTime 259200
scalar OsgEarthNet.uav[53] utilizationSecMission 35005.393385984
scalar OsgEarthNet.uav[53] utilizationSecMaintenance 23384.003752426
scalar OsgEarthNet.uav[53] utilizationSecCharge 199038.59886159
scalar OsgEarthNet.uav[53] utilizationSecIdle 1772.003
scalar OsgEarthNet.uav[53] utilizationEnergyMission 168510.5426178
scalar OsgEarthNet.uav[53] utilizationEnergyMaintenance 111114.4914093
scalar OsgEarthNet.uav[53] utilizationEnergyCharge 279101.27636719
scalar OsgEarthNet.uav[53] utilizationEnergyOverdrawMission 0
scalar OsgEarthNet.uav[53] utilizationEnergyOverdrawMaintenance 0
scalar OsgEarthNet.uav[53] utilizationCountMissions 68
scalar OsgEarthNet.uav[53] utilizationCountManeuversMission 1157
scalar OsgEarthNet.uav[53] utilizationCountManeuversMaintenance 136
scalar OsgEarthNet.uav[53] utilizationCountChargeState 68
scalar OsgEarthNet.uav[53] utilizationCountOverdrawnAfterMission 0
scalar OsgEarthNet.uav[53] utilizationCountIdleState 5
scalar OsgEarthNet.uav[53] utilizationFail 0
scalar OsgEarthNet.uav[53] simulationTime 259200
scalar OsgEarthNet.uav[54] utilizationSecMission 41649.729089264
scalar OsgEarthNet.uav[54] utilizationSecMaintenance 19005.658021219
scalar OsgEarthNet.uav[54] utilizationSecCharge 197700
scalar OsgEarthNet.uav[54] utilizationSecIdle 844.61188951643
scalar OsgEarthNet.uav[54] utilizationEnergyMission 202344.27080191
scalar OsgEarthNet.uav[54] utilizationEnergyMaintenance 88158.429477692
scalar OsgEarthNet.uav[54] utilizationEnergyCharge 287039.22705078
scalar OsgEarthNet.uav[54] utilizationEnergyOverdrawMission 0
scalar OsgEarthNet.uav[54] utilizationEnergyOverdrawMaintenance 0
scalar OsgEarthNet.uav[54] utilizationCountMissions 65
scalar OsgEarthNet.uav[54] utilizationCountManeuversMission 1215
scalar OsgEarthNet.uav[54] utilizationCountManeuversMaintenance 131
scalar OsgEarthNet.uav[54] utilizationCountChargeState 65
scalar OsgEarthNet.uav[54] utilizationCountOverdrawnAfterMission 0
scalar OsgEarthNet.uav[54] utilizationCountIdleState 5
scalar OsgEarthNet.uav[54] utilizationFail 0
scalar OsgEarthNet.uav[54] simulationTime 259200
scalar OsgEarthNet.uav[55] utilizationSecMission 44634.252542828
scalar OsgEarthNet.uav[55] utilizationSecMaintenance 17554.978993954
scalar OsgEarthNet.uav[55] utilizationSecCharge 196081.5478493
scalar OsgEarthNet.uav[55] utilizationSecIdle 929.21961391566
scalar OsgEarthNet.uav[55] utilizationEnergyMission 214190.77775574
scalar OsgEarthNet.uav[55] utilizationEnergyMaintenance 82068.135280609
scalar OsgEarthNet.uav[55] utilizationEnergyCharge 292353.85076904
scalar OsgEarthNet.uav[55] utilizationEnergyOverdrawMission 0
scalar OsgEarthNet.uav[55] utilizationEnergyOverdrawMaintenance 0
scalar OsgEarthNet.uav[55] utilizationCountMissions 65
scalar OsgEarthNet.uav[55] utilizationCountManeuversMission 1192
scalar OsgEarthNet.uav[55] utilizationCountManeuversMaintenance 130
scalar OsgEarthNet.uav[55] utilizationCountChargeState 65
scalar OsgEarthNet.uav[55] utilizationCountOverdrawnAfterMission 0
scalar OsgEarthNet.uav[55] utilizationCountIdleState 3
scalar OsgEarthNet.uav[55] utilizationFail 0
scalar OsgEarthNet.uav[55] simulationTime 259200
scalar OsgEarthNet.uav[56] utilizationSecMission 36371.085643379
scalar OsgEarthNet.uav[56] utilizationSecMaintenance 21325.722105886
scalar OsgEarthNet.uav[56] utilizationSecCharge 198571.18625073
scalar OsgEarthNet.uav[56] utilizationSecIdle 2932.005
scalar OsgEarthNet.uav[56] utilizationEnergyMission 175960.65525818
scalar OsgEarthNet.uav[56] utilizationEnergyMaintenance 102035.37509537
scalar OsgEarthNet.uav[56] utilizationEnergyCharge 277322.82397461
scalar OsgEarthNet.uav[56] utilizationEnergyOverdrawMission 0
scalar OsgEarthNet.uav[56] utilizationEnergyOverdrawMaintenance 0
scalar OsgEarthNet.uav[56] utilizationCountMissions 67
scalar OsgEarthNet.uav[56] utilizationCountManeuversMission 1033
scalar OsgEarthNet.uav[56] utilizationCountManeuversMaintenance 134
scalar OsgEarthNet.uav[56] utilizationCountChargeState 67
scalar OsgEarthNet.uav[56] utilizationCountOverdrawnAfterMission 0
scalar OsgEarthNet.uav[56] utilizationCountIdleState 7
scalar OsgEarthNet.uav[56] utilizationFail 0
scalar OsgEarthNet.uav[56] simulationTime 259200
scalar OsgEarthNet.uav[57] utilizationSecMission 35910.867796693
scalar OsgEarthNet.uav[57] utilizationSecMaintenance 21130.777600428
scalar OsgEarthNet.uav[57] utilizationSecCharge 199620
scalar OsgEarthNet.uav[57] utilizationSecIdle 2538.3536028792
scalar OsgEarthNet.uav[57] utilizationEnergyMission 173455.59231252
scalar OsgEarthNet.uav[57] utilizationEnergyMaintenance 100539.15782166
scalar OsgEarthNet.uav[57] utilizationEnergyCharge 270980.59912109
scalar OsgEarthNet.uav[57] utilizationEnergyOverdrawMission 0
scalar OsgEarthNet.uav[57] utilizationEnergyOverdrawMaintenance 0
scalar OsgEarthNet.uav[57] utilizationCountMissions 67
scalar OsgEarthNet.uav[57] utilizationCountManeuversMission 1054
scalar OsgEarthNet.uav[57] utilizationCountManeuversMaintenance 135
scalar OsgEarthNet.uav[57] utilizationCountChargeState 67
scalar OsgEarthNet.uav[57] utilizationCountOverdrawnAfterMission 0
scalar OsgEarthNet.uav[57] utilizationCountIdleState 6
scalar OsgEarthNet.uav[57] utilizationFail 0
scalar OsgEarthNet.uav[57] simulationTime 259200
scalar OsgEarthNet.uav[58] utilizationSecMission 43350.319277226
scalar OsgEarthNet.uav[58] utilizationSecMaintenance 17692.697114888
scalar OsgEarthNet.uav[58] utilizationSecCharge 196354.97960789
scalar OsgEarthNet.uav[58] utilizationSecIdle 1802.003
scalar OsgEarthNet.uav[58] utilizationEnergyMission 209322.85871124
scalar OsgEarthNet.uav[58] utilizationEnergyMaintenance 82236.650177002
scalar OsgEarthNet.uav[58] utilizationEnergyCharge 290918.33178711
scalar OsgEarthNet.uav[58] utilizationEnergyOverdrawMission 0
scalar OsgEarthNet.uav[58] utilizationEnergyOverdrawMaintenance 0
scalar OsgEarthNet.uav[58] utilizationCountMissions 64
scalar OsgEarthNet.uav[58] utilizationCountManeuversMission 1226
scalar OsgEarthNet.uav[58] utilizationCountManeuversMaintenance 128
scalar OsgEarthNet.uav[58] utilizationCountChargeState 64
scalar OsgEarthNet.uav[58] utilizationCountOverdrawnAfterMission 0
scalar OsgEarthNet.uav[58] utilizationCountIdleState 5
scalar OsgEarthNet.uav[58] utilizationFail 0
scalar OsgEarthNet.uav[58] simulationTime 259200
scalar OsgEarthNet.cs[0] usedPower 4063151.2347555
scalar OsgEarthNet.cs[0] chargedPower 4063151.2347555
scalar OsgEarthNet.cs[0] chargedMobileNodes 51
scalar OsgEarthNet.cs[0] reservations 923
scalar OsgEarthNet.cs[1] usedPower 5389798.5355762
scalar OsgEarthNet.cs[1] chargedPower 5389798.5355762
scalar OsgEarthNet.cs[1] chargedMobileNodes 202
scalar OsgEarthNet.cs[1] reservations 1342
scalar OsgEarthNet.cs[2] usedPower 7342488.9982511
scalar OsgEarthNet.cs[2] chargedPower 7342488.9982511
scalar OsgEarthNet.cs[2] chargedMobileNodes 48
scalar OsgEarthNet.cs[2] reservations 1627

