version 2
run Szenario_Hotel_Gabelbach-511-20180719-21:54:02-16588
attr configname Szenario_Hotel_Gabelbach
attr datetime 20180719-21:54:02
attr experiment Szenario_Hotel_Gabelbach
attr inifile omnetpp.ini
attr iterationvars "$replM=2, $biWeight=0.35, $replSearchM=1, $numUAVs=98"
attr iterationvarsf replM=2,biWeight=0.35,replSearchM=1,numUAVs=98-
attr measurement "$replM=2, $biWeight=0.35, $replSearchM=1, $numUAVs=98"
attr network OsgEarthNet
attr processid 16588
attr repetition 7
attr replication #7
attr resultdir results
attr runnumber 511
attr seedset 511
itervar biWeight 0.35
itervar numUAVs 98
itervar replM 2
itervar replSearchM 1
param *.osgEarthScene.scene "\"Szenario_Hotel_Gabelbach.earth\""
param *.playgroundLatitude 50.6830269
param *.playgroundLongitude 10.8538055
param *.playgroundWidth 3500m
param *.playgroundHeight 3500m
param *.cs[0].posX 3537m
param *.cs[0].posY 965m
param *.cs[0].posZ 538m
param *.cs[1].posX 312m
param *.cs[1].posY 1262m
param *.cs[1].posZ 539m
param *.cs[2].posX 2185m
param *.cs[2].posY 3026m
param *.cs[2].posZ 777m
param *.cs[3].posX 10m
param *.cs[3].posY 2200m
param *.cs[3].posZ 560m
param *.cs[4].posX 750m
param *.cs[4].posY 200m
param *.cs[4].posZ 540m
param *.cs[5].posX 2450m
param *.cs[5].posY 180m
param *.cs[5].posZ 524m
param *.cs[6].posX 3140m
param *.cs[6].posY 1790m
param *.cs[6].posZ 606m
param *.numCSs 3
param *.uav[*].replacementMethod 2
param *.uav[*].weightedSumWeight 0.35
param *.missionControl.replacementSearchMethod 1
param *.numUAVs 98
param *.*.timeStep 10s
param *.uav[*].commandPreviewCommandCount 20
param *.missionControl.missionFiles "\"missions\\\\Szenario_WB_Hotel_Gabelbach_Mission_Hotel.waypoints,missions\\\\Szenario_WB_Hotel_Gabelbach_Mission_Kickelhahn.waypoints,missions\\\\Szenario_WB_Hotel_Gabelbach_Mission_Ilmenau_Sportplatz.waypoints,missions\\\\Szenario_WB_Hotel_Gabelbach_Mission_Manebach_Mitte.waypoints,missions\\\\Szenario_WB_Hotel_Gabelbach_Mission_Manebach_Sued.waypoints,missions\\\\Szenario_WB_Hotel_Gabelbach_Hover_HoheSchlaufe.waypoints,missions\\\\Szenario_WB_Hotel_Gabelbach_Hover_Kickelhahn.waypoints,missions\\\\Szenario_WB_Hotel_Gabelbach_Hover_Gabelbachskopf.waypoints,missions\\\\Szenario_WB_Hotel_Gabelbach_Hover_Dachskopf.waypoints\""
param *.uav[0].startX 3537m
param *.uav[0].startY 965m
param *.uav[0].startZ 539m
param *.uav[1].startX 312m
param *.uav[1].startY 1262m
param *.uav[1].startZ 540m
param *.uav[2].startX 2185m
param *.uav[2].startY 3026m
param *.uav[2].startZ 778m
param *.uav[3].startX 3537m
param *.uav[3].startY 965m
param *.uav[3].startZ 539m
param *.uav[4].startX 312m
param *.uav[4].startY 1262m
param *.uav[4].startZ 540m
param *.uav[5].startX 2185m
param *.uav[5].startY 3026m
param *.uav[5].startZ 778m
param *.uav[6].startX 3537m
param *.uav[6].startY 965m
param *.uav[6].startZ 539m
param *.uav[7].startX 312m
param *.uav[7].startY 1262m
param *.uav[7].startZ 540m
param *.uav[8].startX 2185m
param *.uav[8].startY 3026m
param *.uav[8].startZ 778m
param *.uav[9].startX 3537m
param *.uav[9].startY 965m
param *.uav[9].startZ 539m
param *.uav[10].startX 3537m
param *.uav[10].startY 965m
param *.uav[10].startZ 539m
param *.uav[11].startX 312m
param *.uav[11].startY 1262m
param *.uav[11].startZ 540m
param *.uav[12].startX 2185m
param *.uav[12].startY 3026m
param *.uav[12].startZ 778m
param *.uav[13].startX 3537m
param *.uav[13].startY 965m
param *.uav[13].startZ 539m
param *.uav[14].startX 312m
param *.uav[14].startY 1262m
param *.uav[14].startZ 540m
param *.uav[15].startX 2185m
param *.uav[15].startY 3026m
param *.uav[15].startZ 778m
param *.uav[16].startX 3537m
param *.uav[16].startY 965m
param *.uav[16].startZ 539m
param *.uav[17].startX 312m
param *.uav[17].startY 1262m
param *.uav[17].startZ 540m
param *.uav[18].startX 2185m
param *.uav[18].startY 3026m
param *.uav[18].startZ 778m
param *.uav[19].startX 3537m
param *.uav[19].startY 965m
param *.uav[19].startZ 539m
param *.uav[20].startX 3537m
param *.uav[20].startY 965m
param *.uav[20].startZ 539m
param *.uav[21].startX 312m
param *.uav[21].startY 1262m
param *.uav[21].startZ 540m
param *.uav[22].startX 2185m
param *.uav[22].startY 3026m
param *.uav[22].startZ 778m
param *.uav[23].startX 3537m
param *.uav[23].startY 965m
param *.uav[23].startZ 539m
param *.uav[24].startX 312m
param *.uav[24].startY 1262m
param *.uav[24].startZ 540m
param *.uav[25].startX 2185m
param *.uav[25].startY 3026m
param *.uav[25].startZ 778m
param *.uav[26].startX 3537m
param *.uav[26].startY 965m
param *.uav[26].startZ 539m
param *.uav[27].startX 312m
param *.uav[27].startY 1262m
param *.uav[27].startZ 540m
param *.uav[28].startX 2185m
param *.uav[28].startY 3026m
param *.uav[28].startZ 778m
param *.uav[29].startX 3537m
param *.uav[29].startY 965m
param *.uav[29].startZ 539m
param *.uav[30].startX 3537m
param *.uav[30].startY 965m
param *.uav[30].startZ 539m
param *.uav[31].startX 312m
param *.uav[31].startY 1262m
param *.uav[31].startZ 540m
param *.uav[32].startX 2185m
param *.uav[32].startY 3026m
param *.uav[32].startZ 778m
param *.uav[33].startX 3537m
param *.uav[33].startY 965m
param *.uav[33].startZ 539m
param *.uav[34].startX 312m
param *.uav[34].startY 1262m
param *.uav[34].startZ 540m
param *.uav[35].startX 2185m
param *.uav[35].startY 3026m
param *.uav[35].startZ 778m
param *.uav[36].startX 3537m
param *.uav[36].startY 965m
param *.uav[36].startZ 539m
param *.uav[37].startX 312m
param *.uav[37].startY 1262m
param *.uav[37].startZ 540m
param *.uav[38].startX 2185m
param *.uav[38].startY 3026m
param *.uav[38].startZ 778m
param *.uav[39].startX 3537m
param *.uav[39].startY 965m
param *.uav[39].startZ 539m
param *.uav[40].startX 3537m
param *.uav[40].startY 965m
param *.uav[40].startZ 539m
param *.uav[41].startX 312m
param *.uav[41].startY 1262m
param *.uav[41].startZ 540m
param *.uav[42].startX 2185m
param *.uav[42].startY 3026m
param *.uav[42].startZ 778m
param *.uav[43].startX 3537m
param *.uav[43].startY 965m
param *.uav[43].startZ 539m
param *.uav[44].startX 312m
param *.uav[44].startY 1262m
param *.uav[44].startZ 540m
param *.uav[45].startX 2185m
param *.uav[45].startY 3026m
param *.uav[45].startZ 778m
param *.uav[46].startX 3537m
param *.uav[46].startY 965m
param *.uav[46].startZ 539m
param *.uav[47].startX 312m
param *.uav[47].startY 1262m
param *.uav[47].startZ 540m
param *.uav[48].startX 2185m
param *.uav[48].startY 3026m
param *.uav[48].startZ 778m
param *.uav[49].startX 3537m
param *.uav[49].startY 965m
param *.uav[49].startZ 539m
param *.uav[50].startX 3537m
param *.uav[50].startY 965m
param *.uav[50].startZ 539m
param *.uav[51].startX 312m
param *.uav[51].startY 1262m
param *.uav[51].startZ 540m
param *.uav[52].startX 2185m
param *.uav[52].startY 3026m
param *.uav[52].startZ 778m
param *.uav[53].startX 3537m
param *.uav[53].startY 965m
param *.uav[53].startZ 539m
param *.uav[54].startX 312m
param *.uav[54].startY 1262m
param *.uav[54].startZ 540m
param *.uav[55].startX 2185m
param *.uav[55].startY 3026m
param *.uav[55].startZ 778m
param *.uav[56].startX 3537m
param *.uav[56].startY 965m
param *.uav[56].startZ 539m
param *.uav[57].startX 312m
param *.uav[57].startY 1262m
param *.uav[57].startZ 540m
param *.uav[58].startX 2185m
param *.uav[58].startY 3026m
param *.uav[58].startZ 778m
param *.uav[59].startX 3537m
param *.uav[59].startY 965m
param *.uav[59].startZ 539m
param *.uav[60].startX 3537m
param *.uav[60].startY 965m
param *.uav[60].startZ 539m
param *.uav[61].startX 312m
param *.uav[61].startY 1262m
param *.uav[61].startZ 540m
param *.uav[62].startX 2185m
param *.uav[62].startY 3026m
param *.uav[62].startZ 778m
param *.uav[63].startX 3537m
param *.uav[63].startY 965m
param *.uav[63].startZ 539m
param *.uav[64].startX 312m
param *.uav[64].startY 1262m
param *.uav[64].startZ 540m
param *.uav[65].startX 2185m
param *.uav[65].startY 3026m
param *.uav[65].startZ 778m
param *.uav[66].startX 3537m
param *.uav[66].startY 965m
param *.uav[66].startZ 539m
param *.uav[67].startX 312m
param *.uav[67].startY 1262m
param *.uav[67].startZ 540m
param *.uav[68].startX 2185m
param *.uav[68].startY 3026m
param *.uav[68].startZ 778m
param *.uav[69].startX 3537m
param *.uav[69].startY 965m
param *.uav[69].startZ 539m
param *.uav[70].startX 3537m
param *.uav[70].startY 965m
param *.uav[70].startZ 539m
param *.uav[71].startX 312m
param *.uav[71].startY 1262m
param *.uav[71].startZ 540m
param *.uav[72].startX 2185m
param *.uav[72].startY 3026m
param *.uav[72].startZ 778m
param *.uav[73].startX 3537m
param *.uav[73].startY 965m
param *.uav[73].startZ 539m
param *.uav[74].startX 312m
param *.uav[74].startY 1262m
param *.uav[74].startZ 540m
param *.uav[75].startX 2185m
param *.uav[75].startY 3026m
param *.uav[75].startZ 778m
param *.uav[76].startX 3537m
param *.uav[76].startY 965m
param *.uav[76].startZ 539m
param *.uav[77].startX 312m
param *.uav[77].startY 1262m
param *.uav[77].startZ 540m
param *.uav[78].startX 2185m
param *.uav[78].startY 3026m
param *.uav[78].startZ 778m
param *.uav[79].startX 3537m
param *.uav[79].startY 965m
param *.uav[79].startZ 539m
param *.uav[80].startX 3537m
param *.uav[80].startY 965m
param *.uav[80].startZ 539m
param *.uav[81].startX 312m
param *.uav[81].startY 1262m
param *.uav[81].startZ 540m
param *.uav[82].startX 2185m
param *.uav[82].startY 3026m
param *.uav[82].startZ 778m
param *.uav[83].startX 3537m
param *.uav[83].startY 965m
param *.uav[83].startZ 539m
param *.uav[84].startX 312m
param *.uav[84].startY 1262m
param *.uav[84].startZ 540m
param *.uav[85].startX 2185m
param *.uav[85].startY 3026m
param *.uav[85].startZ 778m
param *.uav[86].startX 3537m
param *.uav[86].startY 965m
param *.uav[86].startZ 539m
param *.uav[87].startX 312m
param *.uav[87].startY 1262m
param *.uav[87].startZ 540m
param *.uav[88].startX 2185m
param *.uav[88].startY 3026m
param *.uav[88].startZ 778m
param *.uav[89].startX 3537m
param *.uav[89].startY 965m
param *.uav[89].startZ 539m
param *.uav[90].startX 3537m
param *.uav[90].startY 965m
param *.uav[90].startZ 539m
param *.uav[91].startX 312m
param *.uav[91].startY 1262m
param *.uav[91].startZ 540m
param *.uav[92].startX 2185m
param *.uav[92].startY 3026m
param *.uav[92].startZ 778m
param *.uav[93].startX 3537m
param *.uav[93].startY 965m
param *.uav[93].startZ 539m
param *.uav[94].startX 312m
param *.uav[94].startY 1262m
param *.uav[94].startZ 540m
param *.uav[95].startX 2185m
param *.uav[95].startY 3026m
param *.uav[95].startZ 778m
param *.uav[96].startX 3537m
param *.uav[96].startY 965m
param *.uav[96].startZ 539m
param *.uav[97].startX 312m
param *.uav[97].startY 1262m
param *.uav[97].startZ 540m
param *.uav[98].startX 2185m
param *.uav[98].startY 3026m
param *.uav[98].startZ 778m
param *.uav[99].startX 3537m
param *.uav[99].startY 965m
param *.uav[99].startZ 539m
param *.osgEarthScene.scene "\"boston.earth\""
param *.playgroundLatitude 42.3558
param *.playgroundLongitude -71.0677
param *.playgroundWidth 400m
param *.playgroundHeight 200m
param *.channelController.connectionColor "\"#0000FF40\""
param *.channelController.showConnections false
param *.uav[*].modelURL "\"quadrocopter.small.obj.15.scale.0,0,90.rot\""
param *.uav[*].labelColor "\"#FF7C00CC\""
param *.uav[*].label2Color "\"#FF7C00EE\""
param *.uav[*].batteryCapacity 5200mAh
param *.uav[*].batteryRemaining uav[index].batteryCapacity
param *.uav[*].predictionQuantile 0.95
param *.uav[*].replacementMethod 2
param *.uav[*].weightedSumWeight 0.5
param *.cs[*].modelURL "\"chargingstation_v1.osgt.2.scale.0,0,0.rot.0,0,-15e-1.trans\""
param *.cs[*].spotsWaiting 999
param *.cs[*].spotsCharging 999
param *.cs[*].chargeEffectivenessPercentage 100
param *.cs[*].nonLinearPhaseStartPercentage 85
param *.cs[*].chargeCurrent 6.0A
param *.cs[*].prioritizeFastCharge true
param *.missionControl.replacementSearchMethod 0
param *.*.timeStep 9s

scalar OsgEarthNet.uav[0] utilizationSecMission 760.62515258028
scalar OsgEarthNet.uav[0] utilizationSecMaintenance 202.91610409653
scalar OsgEarthNet.uav[0] utilizationSecCharge 3530
scalar OsgEarthNet.uav[0] utilizationSecIdle 254706.45774332
scalar OsgEarthNet.uav[0] utilizationEnergyMission 3639.1342315674
scalar OsgEarthNet.uav[0] utilizationEnergyMaintenance 975.64723968506
scalar OsgEarthNet.uav[0] utilizationEnergyCharge 4520.2900390625
scalar OsgEarthNet.uav[0] utilizationEnergyOverdrawMission 0
scalar OsgEarthNet.uav[0] utilizationEnergyOverdrawMaintenance 0
scalar OsgEarthNet.uav[0] utilizationCountMissions 1
scalar OsgEarthNet.uav[0] utilizationCountManeuversMission 12
scalar OsgEarthNet.uav[0] utilizationCountManeuversMaintenance 2
scalar OsgEarthNet.uav[0] utilizationCountChargeState 1
scalar OsgEarthNet.uav[0] utilizationCountOverdrawnAfterMission 0
scalar OsgEarthNet.uav[0] utilizationCountIdleState 2
scalar OsgEarthNet.uav[0] utilizationFail 0
scalar OsgEarthNet.uav[0] simulationTime 259200
scalar OsgEarthNet.uav[1] utilizationSecMission 213.40226662093
scalar OsgEarthNet.uav[1] utilizationSecMaintenance 292.41944606525
scalar OsgEarthNet.uav[1] utilizationSecCharge 2410
scalar OsgEarthNet.uav[1] utilizationSecIdle 256284.17728731
scalar OsgEarthNet.uav[1] utilizationEnergyMission 1070.1030273437
scalar OsgEarthNet.uav[1] utilizationEnergyMaintenance 1411.9767074585
scalar OsgEarthNet.uav[1] utilizationEnergyCharge 2482.0776367188
scalar OsgEarthNet.uav[1] utilizationEnergyOverdrawMission 0
scalar OsgEarthNet.uav[1] utilizationEnergyOverdrawMaintenance 0
scalar OsgEarthNet.uav[1] utilizationCountMissions 1
scalar OsgEarthNet.uav[1] utilizationCountManeuversMission 3
scalar OsgEarthNet.uav[1] utilizationCountManeuversMaintenance 2
scalar OsgEarthNet.uav[1] utilizationCountChargeState 1
scalar OsgEarthNet.uav[1] utilizationCountOverdrawnAfterMission 0
scalar OsgEarthNet.uav[1] utilizationCountIdleState 2
scalar OsgEarthNet.uav[1] utilizationFail 0
scalar OsgEarthNet.uav[1] simulationTime 259200
scalar OsgEarthNet.uav[2] utilizationSecMission 40417.889415804
scalar OsgEarthNet.uav[2] utilizationSecMaintenance 18368.47128958
scalar OsgEarthNet.uav[2] utilizationSecCharge 198211.63529462
scalar OsgEarthNet.uav[2] utilizationSecIdle 2202.003
scalar OsgEarthNet.uav[2] utilizationEnergyMission 196170.4005928
scalar OsgEarthNet.uav[2] utilizationEnergyMaintenance 83765.577812195
scalar OsgEarthNet.uav[2] utilizationEnergyCharge 282023.06005859
scalar OsgEarthNet.uav[2] utilizationEnergyOverdrawMission 0
scalar OsgEarthNet.uav[2] utilizationEnergyOverdrawMaintenance 0
scalar OsgEarthNet.uav[2] utilizationCountMissions 62
scalar OsgEarthNet.uav[2] utilizationCountManeuversMission 1342
scalar OsgEarthNet.uav[2] utilizationCountManeuversMaintenance 124
scalar OsgEarthNet.uav[2] utilizationCountChargeState 62
scalar OsgEarthNet.uav[2] utilizationCountOverdrawnAfterMission 0
scalar OsgEarthNet.uav[2] utilizationCountIdleState 5
scalar OsgEarthNet.uav[2] utilizationFail 0
scalar OsgEarthNet.uav[2] simulationTime 259200
scalar OsgEarthNet.uav[3] utilizationSecMission 440
scalar OsgEarthNet.uav[3] utilizationSecMaintenance 447.1303002674
scalar OsgEarthNet.uav[3] utilizationSecCharge 3580
scalar OsgEarthNet.uav[3] utilizationSecIdle 254732.86869973
scalar OsgEarthNet.uav[3] utilizationEnergyMission 2169.0018081665
scalar OsgEarthNet.uav[3] utilizationEnergyMaintenance 2201.4653434753
scalar OsgEarthNet.uav[3] utilizationEnergyCharge 4672.38671875
scalar OsgEarthNet.uav[3] utilizationEnergyOverdrawMission 0
scalar OsgEarthNet.uav[3] utilizationEnergyOverdrawMaintenance 0
scalar OsgEarthNet.uav[3] utilizationCountMissions 1
scalar OsgEarthNet.uav[3] utilizationCountManeuversMission 22
scalar OsgEarthNet.uav[3] utilizationCountManeuversMaintenance 2
scalar OsgEarthNet.uav[3] utilizationCountChargeState 1
scalar OsgEarthNet.uav[3] utilizationCountOverdrawnAfterMission 0
scalar OsgEarthNet.uav[3] utilizationCountIdleState 2
scalar OsgEarthNet.uav[3] utilizationFail 0
scalar OsgEarthNet.uav[3] simulationTime 259200
scalar OsgEarthNet.uav[4] utilizationSecMission 2207.0113331046
scalar OsgEarthNet.uav[4] utilizationSecMaintenance 2203.6891590913
scalar OsgEarthNet.uav[4] utilizationSecCharge 18520
scalar OsgEarthNet.uav[4] utilizationSecIdle 236269.2985078
scalar OsgEarthNet.uav[4] utilizationEnergyMission 11331.10471344
scalar OsgEarthNet.uav[4] utilizationEnergyMaintenance 10198.501026154
scalar OsgEarthNet.uav[4] utilizationEnergyCharge 20705.358642578
scalar OsgEarthNet.uav[4] utilizationEnergyOverdrawMission 0
scalar OsgEarthNet.uav[4] utilizationEnergyOverdrawMaintenance 0
scalar OsgEarthNet.uav[4] utilizationCountMissions 7
scalar OsgEarthNet.uav[4] utilizationCountManeuversMission 72
scalar OsgEarthNet.uav[4] utilizationCountManeuversMaintenance 14
scalar OsgEarthNet.uav[4] utilizationCountChargeState 7
scalar OsgEarthNet.uav[4] utilizationCountOverdrawnAfterMission 0
scalar OsgEarthNet.uav[4] utilizationCountIdleState 8
scalar OsgEarthNet.uav[4] utilizationFail 0
scalar OsgEarthNet.uav[4] simulationTime 259200
scalar OsgEarthNet.uav[5] utilizationSecMission 41823.955608391
scalar OsgEarthNet.uav[5] utilizationSecMaintenance 17806.618044319
scalar OsgEarthNet.uav[5] utilizationSecCharge 197270
scalar OsgEarthNet.uav[5] utilizationSecIdle 2299.4253472904
scalar OsgEarthNet.uav[5] utilizationEnergyMission 199253.62770105
scalar OsgEarthNet.uav[5] utilizationEnergyMaintenance 80666.159736633
scalar OsgEarthNet.uav[5] utilizationEnergyCharge 279100.53173828
scalar OsgEarthNet.uav[5] utilizationEnergyOverdrawMission 0
scalar OsgEarthNet.uav[5] utilizationEnergyOverdrawMaintenance 0
scalar OsgEarthNet.uav[5] utilizationCountMissions 61
scalar OsgEarthNet.uav[5] utilizationCountManeuversMission 1183
scalar OsgEarthNet.uav[5] utilizationCountManeuversMaintenance 123
scalar OsgEarthNet.uav[5] utilizationCountChargeState 61
scalar OsgEarthNet.uav[5] utilizationCountOverdrawnAfterMission 0
scalar OsgEarthNet.uav[5] utilizationCountIdleState 13
scalar OsgEarthNet.uav[5] utilizationFail 0
scalar OsgEarthNet.uav[5] simulationTime 259200
scalar OsgEarthNet.uav[6] utilizationSecMission 440
scalar OsgEarthNet.uav[6] utilizationSecMaintenance 447.1303002674
scalar OsgEarthNet.uav[6] utilizationSecCharge 3370
scalar OsgEarthNet.uav[6] utilizationSecIdle 254942.86869973
scalar OsgEarthNet.uav[6] utilizationEnergyMission 2081.1157875061
scalar OsgEarthNet.uav[6] utilizationEnergyMaintenance 2144.5622062683
scalar OsgEarthNet.uav[6] utilizationEnergyCharge 4277.0815429688
scalar OsgEarthNet.uav[6] utilizationEnergyOverdrawMission 0
scalar OsgEarthNet.uav[6] utilizationEnergyOverdrawMaintenance 0
scalar OsgEarthNet.uav[6] utilizationCountMissions 1
scalar OsgEarthNet.uav[6] utilizationCountManeuversMission 22
scalar OsgEarthNet.uav[6] utilizationCountManeuversMaintenance 2
scalar OsgEarthNet.uav[6] utilizationCountChargeState 1
scalar OsgEarthNet.uav[6] utilizationCountOverdrawnAfterMission 0
scalar OsgEarthNet.uav[6] utilizationCountIdleState 2
scalar OsgEarthNet.uav[6] utilizationFail 0
scalar OsgEarthNet.uav[6] simulationTime 259200
scalar OsgEarthNet.uav[7] utilizationSecMission 16433.7486165
scalar OsgEarthNet.uav[7] utilizationSecMaintenance 11196.906453331
scalar OsgEarthNet.uav[7] utilizationSecCharge 106970
scalar OsgEarthNet.uav[7] utilizationSecIdle 124599.34393017
scalar OsgEarthNet.uav[7] utilizationEnergyMission 79992.872318268
scalar OsgEarthNet.uav[7] utilizationEnergyMaintenance 52916.533988953
scalar OsgEarthNet.uav[7] utilizationEnergyCharge 133412.32470703
scalar OsgEarthNet.uav[7] utilizationEnergyOverdrawMission 0
scalar OsgEarthNet.uav[7] utilizationEnergyOverdrawMaintenance 0
scalar OsgEarthNet.uav[7] utilizationCountMissions 33
scalar OsgEarthNet.uav[7] utilizationCountManeuversMission 561
scalar OsgEarthNet.uav[7] utilizationCountManeuversMaintenance 66
scalar OsgEarthNet.uav[7] utilizationCountChargeState 33
scalar OsgEarthNet.uav[7] utilizationCountOverdrawnAfterMission 0
scalar OsgEarthNet.uav[7] utilizationCountIdleState 34
scalar OsgEarthNet.uav[7] utilizationFail 0
scalar OsgEarthNet.uav[7] simulationTime 259200
scalar OsgEarthNet.uav[8] utilizationSecMission 41985.31268459
scalar OsgEarthNet.uav[8] utilizationSecMaintenance 17652.907039481
scalar OsgEarthNet.uav[8] utilizationSecCharge 197492.60416552
scalar OsgEarthNet.uav[8] utilizationSecIdle 2069.1751104107
scalar OsgEarthNet.uav[8] utilizationEnergyMission 200560.80682373
scalar OsgEarthNet.uav[8] utilizationEnergyMaintenance 81214.838115692
scalar OsgEarthNet.uav[8] utilizationEnergyCharge 280271.24487305
scalar OsgEarthNet.uav[8] utilizationEnergyOverdrawMission 0
scalar OsgEarthNet.uav[8] utilizationEnergyOverdrawMaintenance 0
scalar OsgEarthNet.uav[8] utilizationCountMissions 61
scalar OsgEarthNet.uav[8] utilizationCountManeuversMission 1142
scalar OsgEarthNet.uav[8] utilizationCountManeuversMaintenance 122
scalar OsgEarthNet.uav[8] utilizationCountChargeState 61
scalar OsgEarthNet.uav[8] utilizationCountOverdrawnAfterMission 0
scalar OsgEarthNet.uav[8] utilizationCountIdleState 16
scalar OsgEarthNet.uav[8] utilizationFail 0
scalar OsgEarthNet.uav[8] simulationTime 259200
scalar OsgEarthNet.uav[9] utilizationSecMission 7941.8754577408
scalar OsgEarthNet.uav[9] utilizationSecMaintenance 5948.4379260229
scalar OsgEarthNet.uav[9] utilizationSecCharge 52430
scalar OsgEarthNet.uav[9] utilizationSecIdle 192879.68561624
scalar OsgEarthNet.uav[9] utilizationEnergyMission 40186.174953461
scalar OsgEarthNet.uav[9] utilizationEnergyMaintenance 28026.998859405
scalar OsgEarthNet.uav[9] utilizationEnergyCharge 67361.959472656
scalar OsgEarthNet.uav[9] utilizationEnergyOverdrawMission 0
scalar OsgEarthNet.uav[9] utilizationEnergyOverdrawMaintenance 0
scalar OsgEarthNet.uav[9] utilizationCountMissions 15
scalar OsgEarthNet.uav[9] utilizationCountManeuversMission 319
scalar OsgEarthNet.uav[9] utilizationCountManeuversMaintenance 30
scalar OsgEarthNet.uav[9] utilizationCountChargeState 15
scalar OsgEarthNet.uav[9] utilizationCountOverdrawnAfterMission 0
scalar OsgEarthNet.uav[9] utilizationCountIdleState 16
scalar OsgEarthNet.uav[9] utilizationFail 0
scalar OsgEarthNet.uav[9] simulationTime 259200
scalar OsgEarthNet.uav[10] utilizationSecMission 5869.2349011653
scalar OsgEarthNet.uav[10] utilizationSecMaintenance 3558.7450988347
scalar OsgEarthNet.uav[10] utilizationSecCharge 34790
scalar OsgEarthNet.uav[10] utilizationSecIdle 214982.019
scalar OsgEarthNet.uav[10] utilizationEnergyMission 28485.493336627
scalar OsgEarthNet.uav[10] utilizationEnergyMaintenance 16897.870933533
scalar OsgEarthNet.uav[10] utilizationEnergyCharge 44670.823730469
scalar OsgEarthNet.uav[10] utilizationEnergyOverdrawMission 0
scalar OsgEarthNet.uav[10] utilizationEnergyOverdrawMaintenance 0
scalar OsgEarthNet.uav[10] utilizationCountMissions 10
scalar OsgEarthNet.uav[10] utilizationCountManeuversMission 187
scalar OsgEarthNet.uav[10] utilizationCountManeuversMaintenance 21
scalar OsgEarthNet.uav[10] utilizationCountChargeState 10
scalar OsgEarthNet.uav[10] utilizationCountOverdrawnAfterMission 0
scalar OsgEarthNet.uav[10] utilizationCountIdleState 11
scalar OsgEarthNet.uav[10] utilizationFail 0
scalar OsgEarthNet.uav[10] simulationTime 259200
scalar OsgEarthNet.uav[11] utilizationSecMission 14416.903247866
scalar OsgEarthNet.uav[11] utilizationSecMaintenance 9950.3969648708
scalar OsgEarthNet.uav[11] utilizationSecCharge 95980
scalar OsgEarthNet.uav[11] utilizationSecIdle 138852.69878726
scalar OsgEarthNet.uav[11] utilizationEnergyMission 69599.466754913
scalar OsgEarthNet.uav[11] utilizationEnergyMaintenance 47715.518878937
scalar OsgEarthNet.uav[11] utilizationEnergyCharge 117118.24926758
scalar OsgEarthNet.uav[11] utilizationEnergyOverdrawMission 0
scalar OsgEarthNet.uav[11] utilizationEnergyOverdrawMaintenance 0
scalar OsgEarthNet.uav[11] utilizationCountMissions 31
scalar OsgEarthNet.uav[11] utilizationCountManeuversMission 415
scalar OsgEarthNet.uav[11] utilizationCountManeuversMaintenance 62
scalar OsgEarthNet.uav[11] utilizationCountChargeState 31
scalar OsgEarthNet.uav[11] utilizationCountOverdrawnAfterMission 0
scalar OsgEarthNet.uav[11] utilizationCountIdleState 32
scalar OsgEarthNet.uav[11] utilizationFail 0
scalar OsgEarthNet.uav[11] simulationTime 259200
scalar OsgEarthNet.uav[12] utilizationSecMission 41630.973532381
scalar OsgEarthNet.uav[12] utilizationSecMaintenance 17720.223506402
scalar OsgEarthNet.uav[12] utilizationSecCharge 195860.22836422
scalar OsgEarthNet.uav[12] utilizationSecIdle 3988.5735969997
scalar OsgEarthNet.uav[12] utilizationEnergyMission 200292.37507248
scalar OsgEarthNet.uav[12] utilizationEnergyMaintenance 82304.919960022
scalar OsgEarthNet.uav[12] utilizationEnergyCharge 277080.62646484
scalar OsgEarthNet.uav[12] utilizationEnergyOverdrawMission 0
scalar OsgEarthNet.uav[12] utilizationEnergyOverdrawMaintenance 0
scalar OsgEarthNet.uav[12] utilizationCountMissions 61
scalar OsgEarthNet.uav[12] utilizationCountManeuversMission 1135
scalar OsgEarthNet.uav[12] utilizationCountManeuversMaintenance 122
scalar OsgEarthNet.uav[12] utilizationCountChargeState 61
scalar OsgEarthNet.uav[12] utilizationCountOverdrawnAfterMission 0
scalar OsgEarthNet.uav[12] utilizationCountIdleState 12
scalar OsgEarthNet.uav[12] utilizationFail 0
scalar OsgEarthNet.uav[12] simulationTime 259200
scalar OsgEarthNet.uav[13] utilizationSecMission 4060.6251525803
scalar OsgEarthNet.uav[13] utilizationSecMaintenance 3324.9068715018
scalar OsgEarthNet.uav[13] utilizationSecCharge 28090
scalar OsgEarthNet.uav[13] utilizationSecIdle 223724.46697592
scalar OsgEarthNet.uav[13] utilizationEnergyMission 20147.537071228
scalar OsgEarthNet.uav[13] utilizationEnergyMaintenance 15872.603607178
scalar OsgEarthNet.uav[13] utilizationEnergyCharge 36293.561523438
scalar OsgEarthNet.uav[13] utilizationEnergyOverdrawMission 0
scalar OsgEarthNet.uav[13] utilizationEnergyOverdrawMaintenance 0
scalar OsgEarthNet.uav[13] utilizationCountMissions 8
scalar OsgEarthNet.uav[13] utilizationCountManeuversMission 177
scalar OsgEarthNet.uav[13] utilizationCountManeuversMaintenance 16
scalar OsgEarthNet.uav[13] utilizationCountChargeState 8
scalar OsgEarthNet.uav[13] utilizationCountOverdrawnAfterMission 0
scalar OsgEarthNet.uav[13] utilizationCountIdleState 9
scalar OsgEarthNet.uav[13] utilizationFail 0
scalar OsgEarthNet.uav[13] simulationTime 259200
scalar OsgEarthNet.uav[14] utilizationSecMission 13984.903717108
scalar OsgEarthNet.uav[14] utilizationSecMaintenance 9963.0842828917
scalar OsgEarthNet.uav[14] utilizationSecCharge 92380
scalar OsgEarthNet.uav[14] utilizationSecIdle 142872.011
scalar OsgEarthNet.uav[14] utilizationEnergyMission 68011.009507867
scalar OsgEarthNet.uav[14] utilizationEnergyMaintenance 47369.075374603
scalar OsgEarthNet.uav[14] utilizationEnergyCharge 114393.16040039
scalar OsgEarthNet.uav[14] utilizationEnergyOverdrawMission 0
scalar OsgEarthNet.uav[14] utilizationEnergyOverdrawMaintenance 0
scalar OsgEarthNet.uav[14] utilizationCountMissions 29
scalar OsgEarthNet.uav[14] utilizationCountManeuversMission 483
scalar OsgEarthNet.uav[14] utilizationCountManeuversMaintenance 59
scalar OsgEarthNet.uav[14] utilizationCountChargeState 29
scalar OsgEarthNet.uav[14] utilizationCountOverdrawnAfterMission 0
scalar OsgEarthNet.uav[14] utilizationCountIdleState 30
scalar OsgEarthNet.uav[14] utilizationFail 0
scalar OsgEarthNet.uav[14] simulationTime 259200
scalar OsgEarthNet.uav[15] utilizationSecMission 41019.403875789
scalar OsgEarthNet.uav[15] utilizationSecMaintenance 17548.520040205
scalar OsgEarthNet.uav[15] utilizationSecCharge 197160.07108401
scalar OsgEarthNet.uav[15] utilizationSecIdle 3472.004
scalar OsgEarthNet.uav[15] utilizationEnergyMission 194775.97299576
scalar OsgEarthNet.uav[15] utilizationEnergyMaintenance 82024.965774536
scalar OsgEarthNet.uav[15] utilizationEnergyCharge 276518.10644531
scalar OsgEarthNet.uav[15] utilizationEnergyOverdrawMission 0
scalar OsgEarthNet.uav[15] utilizationEnergyOverdrawMaintenance 0
scalar OsgEarthNet.uav[15] utilizationCountMissions 60
scalar OsgEarthNet.uav[15] utilizationCountManeuversMission 1044
scalar OsgEarthNet.uav[15] utilizationCountManeuversMaintenance 120
scalar OsgEarthNet.uav[15] utilizationCountChargeState 60
scalar OsgEarthNet.uav[15] utilizationCountOverdrawnAfterMission 0
scalar OsgEarthNet.uav[15] utilizationCountIdleState 11
scalar OsgEarthNet.uav[15] utilizationFail 0
scalar OsgEarthNet.uav[15] simulationTime 259200
scalar OsgEarthNet.uav[16] utilizationSecMission 5301.2503051606
scalar OsgEarthNet.uav[16] utilizationSecMaintenance 3965.5248084878
scalar OsgEarthNet.uav[16] utilizationSecCharge 32901.218886352
scalar OsgEarthNet.uav[16] utilizationSecIdle 217032.005
scalar OsgEarthNet.uav[16] utilizationEnergyMission 26419.19927597
scalar OsgEarthNet.uav[16] utilizationEnergyMaintenance 18417.649436951
scalar OsgEarthNet.uav[16] utilizationEnergyCharge 43074.344726562
scalar OsgEarthNet.uav[16] utilizationEnergyOverdrawMission 0
scalar OsgEarthNet.uav[16] utilizationEnergyOverdrawMaintenance 0
scalar OsgEarthNet.uav[16] utilizationCountMissions 10
scalar OsgEarthNet.uav[16] utilizationCountManeuversMission 213
scalar OsgEarthNet.uav[16] utilizationCountManeuversMaintenance 20
scalar OsgEarthNet.uav[16] utilizationCountChargeState 10
scalar OsgEarthNet.uav[16] utilizationCountOverdrawnAfterMission 0
scalar OsgEarthNet.uav[16] utilizationCountIdleState 10
scalar OsgEarthNet.uav[16] utilizationFail 0
scalar OsgEarthNet.uav[16] simulationTime 259200
scalar OsgEarthNet.uav[17] utilizationSecMission 13391.296055505
scalar OsgEarthNet.uav[17] utilizationSecMaintenance 9016.6989444947
scalar OsgEarthNet.uav[17] utilizationSecCharge 84030
scalar OsgEarthNet.uav[17] utilizationSecIdle 152762.004
scalar OsgEarthNet.uav[17] utilizationEnergyMission 67612.073120117
scalar OsgEarthNet.uav[17] utilizationEnergyMaintenance 43055.973303447
scalar OsgEarthNet.uav[17] utilizationEnergyCharge 106585.56494141
scalar OsgEarthNet.uav[17] utilizationEnergyOverdrawMission 0
scalar OsgEarthNet.uav[17] utilizationEnergyOverdrawMaintenance 0
scalar OsgEarthNet.uav[17] utilizationCountMissions 26
scalar OsgEarthNet.uav[17] utilizationCountManeuversMission 506
scalar OsgEarthNet.uav[17] utilizationCountManeuversMaintenance 52
scalar OsgEarthNet.uav[17] utilizationCountChargeState 25
scalar OsgEarthNet.uav[17] utilizationCountOverdrawnAfterMission 0
scalar OsgEarthNet.uav[17] utilizationCountIdleState 26
scalar OsgEarthNet.uav[17] utilizationFail 0
scalar OsgEarthNet.uav[17] simulationTime 259200
scalar OsgEarthNet.uav[18] utilizationSecMission 40906.866458681
scalar OsgEarthNet.uav[18] utilizationSecMaintenance 18009.377352342
scalar OsgEarthNet.uav[18] utilizationSecCharge 195799.04443692
scalar OsgEarthNet.uav[18] utilizationSecIdle 4484.7107520526
scalar OsgEarthNet.uav[18] utilizationEnergyMission 200173.48298264
scalar OsgEarthNet.uav[18] utilizationEnergyMaintenance 82923.066432953
scalar OsgEarthNet.uav[18] utilizationEnergyCharge 278365.1708374
scalar OsgEarthNet.uav[18] utilizationEnergyOverdrawMission 0
scalar OsgEarthNet.uav[18] utilizationEnergyOverdrawMaintenance 0
scalar OsgEarthNet.uav[18] utilizationCountMissions 61
scalar OsgEarthNet.uav[18] utilizationCountManeuversMission 1293
scalar OsgEarthNet.uav[18] utilizationCountManeuversMaintenance 122
scalar OsgEarthNet.uav[18] utilizationCountChargeState 61
scalar OsgEarthNet.uav[18] utilizationCountOverdrawnAfterMission 0
scalar OsgEarthNet.uav[18] utilizationCountIdleState 8
scalar OsgEarthNet.uav[18] utilizationFail 0
scalar OsgEarthNet.uav[18] simulationTime 259200
scalar OsgEarthNet.uav[19] utilizationSecMission 8674.6341068125
scalar OsgEarthNet.uav[19] utilizationSecMaintenance 4713.0340984693
scalar OsgEarthNet.uav[19] utilizationSecCharge 47790.319794718
scalar OsgEarthNet.uav[19] utilizationSecIdle 198022.011
scalar OsgEarthNet.uav[19] utilizationEnergyMission 41785.134529114
scalar OsgEarthNet.uav[19] utilizationEnergyMaintenance 22501.863197327
scalar OsgEarthNet.uav[19] utilizationEnergyCharge 62324.526367188
scalar OsgEarthNet.uav[19] utilizationEnergyOverdrawMission 0
scalar OsgEarthNet.uav[19] utilizationEnergyOverdrawMaintenance 0
scalar OsgEarthNet.uav[19] utilizationCountMissions 14
scalar OsgEarthNet.uav[19] utilizationCountManeuversMission 247
scalar OsgEarthNet.uav[19] utilizationCountManeuversMaintenance 28
scalar OsgEarthNet.uav[19] utilizationCountChargeState 14
scalar OsgEarthNet.uav[19] utilizationCountOverdrawnAfterMission 0
scalar OsgEarthNet.uav[19] utilizationCountIdleState 14
scalar OsgEarthNet.uav[19] utilizationFail 0
scalar OsgEarthNet.uav[19] simulationTime 259200
scalar OsgEarthNet.uav[20] utilizationSecMission 16166.703661938
scalar OsgEarthNet.uav[20] utilizationSecMaintenance 9882.8897233532
scalar OsgEarthNet.uav[20] utilizationSecCharge 100176.38632678
scalar OsgEarthNet.uav[20] utilizationSecIdle 132974.01928792
scalar OsgEarthNet.uav[20] utilizationEnergyMission 78121.334259033
scalar OsgEarthNet.uav[20] utilizationEnergyMaintenance 47257.000457764
scalar OsgEarthNet.uav[20] utilizationEnergyCharge 125141.33300781
scalar OsgEarthNet.uav[20] utilizationEnergyOverdrawMission 0
scalar OsgEarthNet.uav[20] utilizationEnergyOverdrawMaintenance 0
scalar OsgEarthNet.uav[20] utilizationCountMissions 31
scalar OsgEarthNet.uav[20] utilizationCountManeuversMission 458
scalar OsgEarthNet.uav[20] utilizationCountManeuversMaintenance 62
scalar OsgEarthNet.uav[20] utilizationCountChargeState 31
scalar OsgEarthNet.uav[20] utilizationCountOverdrawnAfterMission 0
scalar OsgEarthNet.uav[20] utilizationCountIdleState 31
scalar OsgEarthNet.uav[20] utilizationFail 0
scalar OsgEarthNet.uav[20] simulationTime 259200
scalar OsgEarthNet.uav[21] utilizationSecMission 14764.905121989
scalar OsgEarthNet.uav[21] utilizationSecMaintenance 10726.131101046
scalar OsgEarthNet.uav[21] utilizationSecCharge 99730
scalar OsgEarthNet.uav[21] utilizationSecIdle 133978.96277696
scalar OsgEarthNet.uav[21] utilizationEnergyMission 71735.904121399
scalar OsgEarthNet.uav[21] utilizationEnergyMaintenance 50722.816070557
scalar OsgEarthNet.uav[21] utilizationEnergyCharge 123565.77539062
scalar OsgEarthNet.uav[21] utilizationEnergyOverdrawMission 0
scalar OsgEarthNet.uav[21] utilizationEnergyOverdrawMaintenance 0
scalar OsgEarthNet.uav[21] utilizationCountMissions 31
scalar OsgEarthNet.uav[21] utilizationCountManeuversMission 544
scalar OsgEarthNet.uav[21] utilizationCountManeuversMaintenance 62
scalar OsgEarthNet.uav[21] utilizationCountChargeState 31
scalar OsgEarthNet.uav[21] utilizationCountOverdrawnAfterMission 0
scalar OsgEarthNet.uav[21] utilizationCountIdleState 32
scalar OsgEarthNet.uav[21] utilizationFail 0
scalar OsgEarthNet.uav[21] simulationTime 259200
scalar OsgEarthNet.uav[22] utilizationSecMission 41512.83668722
scalar OsgEarthNet.uav[22] utilizationSecMaintenance 17785.16131278
scalar OsgEarthNet.uav[22] utilizationSecCharge 198690
scalar OsgEarthNet.uav[22] utilizationSecIdle 1212.001
scalar OsgEarthNet.uav[22] utilizationEnergyMission 199138.58074224
scalar OsgEarthNet.uav[22] utilizationEnergyMaintenance 82522.862861633
scalar OsgEarthNet.uav[22] utilizationEnergyCharge 280957.56152344
scalar OsgEarthNet.uav[22] utilizationEnergyOverdrawMission 0
scalar OsgEarthNet.uav[22] utilizationEnergyOverdrawMaintenance 0
scalar OsgEarthNet.uav[22] utilizationCountMissions 61
scalar OsgEarthNet.uav[22] utilizationCountManeuversMission 1182
scalar OsgEarthNet.uav[22] utilizationCountManeuversMaintenance 123
scalar OsgEarthNet.uav[22] utilizationCountChargeState 61
scalar OsgEarthNet.uav[22] utilizationCountOverdrawnAfterMission 0
scalar OsgEarthNet.uav[22] utilizationCountIdleState 7
scalar OsgEarthNet.uav[22] utilizationFail 0
scalar OsgEarthNet.uav[22] simulationTime 259200
scalar OsgEarthNet.uav[23] utilizationSecMission 13206.251525803
scalar OsgEarthNet.uav[23] utilizationSecMaintenance 7562.8433628847
scalar OsgEarthNet.uav[23] utilizationSecCharge 77310
scalar OsgEarthNet.uav[23] utilizationSecIdle 161120.90411131
scalar OsgEarthNet.uav[23] utilizationEnergyMission 63392.405872345
scalar OsgEarthNet.uav[23] utilizationEnergyMaintenance 36102.06565094
scalar OsgEarthNet.uav[23] utilizationEnergyCharge 99633.708007812
scalar OsgEarthNet.uav[23] utilizationEnergyOverdrawMission 0
scalar OsgEarthNet.uav[23] utilizationEnergyOverdrawMaintenance 0
scalar OsgEarthNet.uav[23] utilizationCountMissions 22
scalar OsgEarthNet.uav[23] utilizationCountManeuversMission 400
scalar OsgEarthNet.uav[23] utilizationCountManeuversMaintenance 44
scalar OsgEarthNet.uav[23] utilizationCountChargeState 22
scalar OsgEarthNet.uav[23] utilizationCountOverdrawnAfterMission 0
scalar OsgEarthNet.uav[23] utilizationCountIdleState 23
scalar OsgEarthNet.uav[23] utilizationFail 0
scalar OsgEarthNet.uav[23] simulationTime 259200
scalar OsgEarthNet.uav[24] utilizationSecMission 16630.800784996
scalar OsgEarthNet.uav[24] utilizationSecMaintenance 11689.062287548
scalar OsgEarthNet.uav[24] utilizationSecCharge 108968.12792746
scalar OsgEarthNet.uav[24] utilizationSecIdle 121912.008
scalar OsgEarthNet.uav[24] utilizationEnergyMission 79801.605285645
scalar OsgEarthNet.uav[24] utilizationEnergyMaintenance 55877.537254333
scalar OsgEarthNet.uav[24] utilizationEnergyCharge 136792.49633789
scalar OsgEarthNet.uav[24] utilizationEnergyOverdrawMission 0
scalar OsgEarthNet.uav[24] utilizationEnergyOverdrawMaintenance 0
scalar OsgEarthNet.uav[24] utilizationCountMissions 34
scalar OsgEarthNet.uav[24] utilizationCountManeuversMission 593
scalar OsgEarthNet.uav[24] utilizationCountManeuversMaintenance 68
scalar OsgEarthNet.uav[24] utilizationCountChargeState 34
scalar OsgEarthNet.uav[24] utilizationCountOverdrawnAfterMission 0
scalar OsgEarthNet.uav[24] utilizationCountIdleState 34
scalar OsgEarthNet.uav[24] utilizationFail 0
scalar OsgEarthNet.uav[24] simulationTime 259200
scalar OsgEarthNet.uav[25] utilizationSecMission 40678.153670037
scalar OsgEarthNet.uav[25] utilizationSecMaintenance 17588.610880682
scalar OsgEarthNet.uav[25] utilizationSecCharge 197691.23044928
scalar OsgEarthNet.uav[25] utilizationSecIdle 3242.004
scalar OsgEarthNet.uav[25] utilizationEnergyMission 197795.59605789
scalar OsgEarthNet.uav[25] utilizationEnergyMaintenance 81129.967922211
scalar OsgEarthNet.uav[25] utilizationEnergyCharge 280909.67871094
scalar OsgEarthNet.uav[25] utilizationEnergyOverdrawMission 0
scalar OsgEarthNet.uav[25] utilizationEnergyOverdrawMaintenance 0
scalar OsgEarthNet.uav[25] utilizationCountMissions 61
scalar OsgEarthNet.uav[25] utilizationCountManeuversMission 1255
scalar OsgEarthNet.uav[25] utilizationCountManeuversMaintenance 122
scalar OsgEarthNet.uav[25] utilizationCountChargeState 61
scalar OsgEarthNet.uav[25] utilizationCountOverdrawnAfterMission 0
scalar OsgEarthNet.uav[25] utilizationCountIdleState 14
scalar OsgEarthNet.uav[25] utilizationFail 0
scalar OsgEarthNet.uav[25] simulationTime 259200
scalar OsgEarthNet.uav[26] utilizationSecMission 14628.126983544
scalar OsgEarthNet.uav[26] utilizationSecMaintenance 7334.9058615635
scalar OsgEarthNet.uav[26] utilizationSecCharge 80920
scalar OsgEarthNet.uav[26] utilizationSecIdle 156316.96615489
scalar OsgEarthNet.uav[26] utilizationEnergyMission 70643.692405701
scalar OsgEarthNet.uav[26] utilizationEnergyMaintenance 34690.003009796
scalar OsgEarthNet.uav[26] utilizationEnergyCharge 103987.08154297
scalar OsgEarthNet.uav[26] utilizationEnergyOverdrawMission 0
scalar OsgEarthNet.uav[26] utilizationEnergyOverdrawMaintenance 0
scalar OsgEarthNet.uav[26] utilizationCountMissions 23
scalar OsgEarthNet.uav[26] utilizationCountManeuversMission 393
scalar OsgEarthNet.uav[26] utilizationCountManeuversMaintenance 46
scalar OsgEarthNet.uav[26] utilizationCountChargeState 23
scalar OsgEarthNet.uav[26] utilizationCountOverdrawnAfterMission 0
scalar OsgEarthNet.uav[26] utilizationCountIdleState 24
scalar OsgEarthNet.uav[26] utilizationFail 0
scalar OsgEarthNet.uav[26] simulationTime 259200
scalar OsgEarthNet.uav[27] utilizationSecMission 18821.890040639
scalar OsgEarthNet.uav[27] utilizationSecMaintenance 12131.746771274
scalar OsgEarthNet.uav[27] utilizationSecCharge 119770
scalar OsgEarthNet.uav[27] utilizationSecIdle 108476.36218809
scalar OsgEarthNet.uav[27] utilizationEnergyMission 92471.686790466
scalar OsgEarthNet.uav[27] utilizationEnergyMaintenance 57017.0832901
scalar OsgEarthNet.uav[27] utilizationEnergyCharge 149055.2265625
scalar OsgEarthNet.uav[27] utilizationEnergyOverdrawMission 0
scalar OsgEarthNet.uav[27] utilizationEnergyOverdrawMaintenance 0
scalar OsgEarthNet.uav[27] utilizationCountMissions 37
scalar OsgEarthNet.uav[27] utilizationCountManeuversMission 562
scalar OsgEarthNet.uav[27] utilizationCountManeuversMaintenance 74
scalar OsgEarthNet.uav[27] utilizationCountChargeState 37
scalar OsgEarthNet.uav[27] utilizationCountOverdrawnAfterMission 0
scalar OsgEarthNet.uav[27] utilizationCountIdleState 38
scalar OsgEarthNet.uav[27] utilizationFail 0
scalar OsgEarthNet.uav[27] simulationTime 259200
scalar OsgEarthNet.uav[28] utilizationSecMission 41663.645229543
scalar OsgEarthNet.uav[28] utilizationSecMaintenance 17694.351770457
scalar OsgEarthNet.uav[28] utilizationSecCharge 198230
scalar OsgEarthNet.uav[28] utilizationSecIdle 1612.002
scalar OsgEarthNet.uav[28] utilizationEnergyMission 200700.18541555
scalar OsgEarthNet.uav[28] utilizationEnergyMaintenance 82482.143352509
scalar OsgEarthNet.uav[28] utilizationEnergyCharge 281804.52148438
scalar OsgEarthNet.uav[28] utilizationEnergyOverdrawMission 0
scalar OsgEarthNet.uav[28] utilizationEnergyOverdrawMaintenance 0
scalar OsgEarthNet.uav[28] utilizationCountMissions 61
scalar OsgEarthNet.uav[28] utilizationCountManeuversMission 1244
scalar OsgEarthNet.uav[28] utilizationCountManeuversMaintenance 123
scalar OsgEarthNet.uav[28] utilizationCountChargeState 61
scalar OsgEarthNet.uav[28] utilizationCountOverdrawnAfterMission 0
scalar OsgEarthNet.uav[28] utilizationCountIdleState 8
scalar OsgEarthNet.uav[28] utilizationFail 0
scalar OsgEarthNet.uav[28] simulationTime 259200
scalar OsgEarthNet.uav[29] utilizationSecMission 42712.933742702
scalar OsgEarthNet.uav[29] utilizationSecMaintenance 16564.788609199
scalar OsgEarthNet.uav[29] utilizationSecCharge 199220.2766481
scalar OsgEarthNet.uav[29] utilizationSecIdle 702
scalar OsgEarthNet.uav[29] utilizationEnergyMission 204032.89954758
scalar OsgEarthNet.uav[29] utilizationEnergyMaintenance 75661.023647308
scalar OsgEarthNet.uav[29] utilizationEnergyCharge 281711.37548828
scalar OsgEarthNet.uav[29] utilizationEnergyOverdrawMission 0
scalar OsgEarthNet.uav[29] utilizationEnergyOverdrawMaintenance 0
scalar OsgEarthNet.uav[29] utilizationCountMissions 61
scalar OsgEarthNet.uav[29] utilizationCountManeuversMission 1166
scalar OsgEarthNet.uav[29] utilizationCountManeuversMaintenance 121
scalar OsgEarthNet.uav[29] utilizationCountChargeState 61
scalar OsgEarthNet.uav[29] utilizationCountOverdrawnAfterMission 0
scalar OsgEarthNet.uav[29] utilizationCountIdleState 9
scalar OsgEarthNet.uav[29] utilizationFail 0
scalar OsgEarthNet.uav[29] simulationTime 259200
scalar OsgEarthNet.uav[30] utilizationSecMission 9841.8754577409
scalar OsgEarthNet.uav[30] utilizationSecMaintenance 7912.8994773596
scalar OsgEarthNet.uav[30] utilizationSecCharge 66430
scalar OsgEarthNet.uav[30] utilizationSecIdle 175015.2240649
scalar OsgEarthNet.uav[30] utilizationEnergyMission 48796.694797516
scalar OsgEarthNet.uav[30] utilizationEnergyMaintenance 37330.242282867
scalar OsgEarthNet.uav[30] utilizationEnergyCharge 85504.656738281
scalar OsgEarthNet.uav[30] utilizationEnergyOverdrawMission 0
scalar OsgEarthNet.uav[30] utilizationEnergyOverdrawMaintenance 0
scalar OsgEarthNet.uav[30] utilizationCountMissions 19
scalar OsgEarthNet.uav[30] utilizationCountManeuversMission 414
scalar OsgEarthNet.uav[30] utilizationCountManeuversMaintenance 38
scalar OsgEarthNet.uav[30] utilizationCountChargeState 19
scalar OsgEarthNet.uav[30] utilizationCountOverdrawnAfterMission 0
scalar OsgEarthNet.uav[30] utilizationCountIdleState 20
scalar OsgEarthNet.uav[30] utilizationFail 0
scalar OsgEarthNet.uav[30] simulationTime 259200
scalar OsgEarthNet.uav[31] utilizationSecMission 18809.380583229
scalar OsgEarthNet.uav[31] utilizationSecMaintenance 12541.542665194
scalar OsgEarthNet.uav[31] utilizationSecCharge 118557.07575158
scalar OsgEarthNet.uav[31] utilizationSecIdle 109292
scalar OsgEarthNet.uav[31] utilizationEnergyMission 91373.136474609
scalar OsgEarthNet.uav[31] utilizationEnergyMaintenance 58976.201545715
scalar OsgEarthNet.uav[31] utilizationEnergyCharge 147050.58007812
scalar OsgEarthNet.uav[31] utilizationEnergyOverdrawMission 0
scalar OsgEarthNet.uav[31] utilizationEnergyOverdrawMaintenance 0
scalar OsgEarthNet.uav[31] utilizationCountMissions 38
scalar OsgEarthNet.uav[31] utilizationCountManeuversMission 595
scalar OsgEarthNet.uav[31] utilizationCountManeuversMaintenance 75
scalar OsgEarthNet.uav[31] utilizationCountChargeState 38
scalar OsgEarthNet.uav[31] utilizationCountOverdrawnAfterMission 0
scalar OsgEarthNet.uav[31] utilizationCountIdleState 38
scalar OsgEarthNet.uav[31] utilizationFail 0
scalar OsgEarthNet.uav[31] simulationTime 259200
scalar OsgEarthNet.uav[32] utilizationSecMission 41072.65867469
scalar OsgEarthNet.uav[32] utilizationSecMaintenance 18459.929690355
scalar OsgEarthNet.uav[32] utilizationSecCharge 197241.06041413
scalar OsgEarthNet.uav[32] utilizationSecIdle 2426.3502208215
scalar OsgEarthNet.uav[32] utilizationEnergyMission 199094.34718323
scalar OsgEarthNet.uav[32] utilizationEnergyMaintenance 85735.340492249
scalar OsgEarthNet.uav[32] utilizationEnergyCharge 283070.76367188
scalar OsgEarthNet.uav[32] utilizationEnergyOverdrawMission 0
scalar OsgEarthNet.uav[32] utilizationEnergyOverdrawMaintenance 0
scalar OsgEarthNet.uav[32] utilizationCountMissions 62
scalar OsgEarthNet.uav[32] utilizationCountManeuversMission 1285
scalar OsgEarthNet.uav[32] utilizationCountManeuversMaintenance 124
scalar OsgEarthNet.uav[32] utilizationCountChargeState 62
scalar OsgEarthNet.uav[32] utilizationCountOverdrawnAfterMission 0
scalar OsgEarthNet.uav[32] utilizationCountIdleState 8
scalar OsgEarthNet.uav[32] utilizationFail 0
scalar OsgEarthNet.uav[32] simulationTime 259200
scalar OsgEarthNet.uav[33] utilizationSecMission 12306.914981415
scalar OsgEarthNet.uav[33] utilizationSecMaintenance 8491.0770185849
scalar OsgEarthNet.uav[33] utilizationSecCharge 77040
scalar OsgEarthNet.uav[33] utilizationSecIdle 161362.007
scalar OsgEarthNet.uav[33] utilizationEnergyMission 60258.362337973
scalar OsgEarthNet.uav[33] utilizationEnergyMaintenance 40101.562446594
scalar OsgEarthNet.uav[33] utilizationEnergyCharge 98970.131835938
scalar OsgEarthNet.uav[33] utilizationEnergyOverdrawMission 0
scalar OsgEarthNet.uav[33] utilizationEnergyOverdrawMaintenance 0
scalar OsgEarthNet.uav[33] utilizationCountMissions 22
scalar OsgEarthNet.uav[33] utilizationCountManeuversMission 434
scalar OsgEarthNet.uav[33] utilizationCountManeuversMaintenance 45
scalar OsgEarthNet.uav[33] utilizationCountChargeState 22
scalar OsgEarthNet.uav[33] utilizationCountOverdrawnAfterMission 0
scalar OsgEarthNet.uav[33] utilizationCountIdleState 23
scalar OsgEarthNet.uav[33] utilizationFail 0
scalar OsgEarthNet.uav[33] simulationTime 259200
scalar OsgEarthNet.uav[34] utilizationSecMission 18590.098714624
scalar OsgEarthNet.uav[34] utilizationSecMaintenance 12944.591526937
scalar OsgEarthNet.uav[34] utilizationSecCharge 123540
scalar OsgEarthNet.uav[34] utilizationSecIdle 104125.30875844
scalar OsgEarthNet.uav[34] utilizationEnergyMission 92055.142356873
scalar OsgEarthNet.uav[34] utilizationEnergyMaintenance 60967.436714172
scalar OsgEarthNet.uav[34] utilizationEnergyCharge 154050.08349609
scalar OsgEarthNet.uav[34] utilizationEnergyOverdrawMission 0
scalar OsgEarthNet.uav[34] utilizationEnergyOverdrawMaintenance 0
scalar OsgEarthNet.uav[34] utilizationCountMissions 38
scalar OsgEarthNet.uav[34] utilizationCountManeuversMission 639
scalar OsgEarthNet.uav[34] utilizationCountManeuversMaintenance 76
scalar OsgEarthNet.uav[34] utilizationCountChargeState 38
scalar OsgEarthNet.uav[34] utilizationCountOverdrawnAfterMission 0
scalar OsgEarthNet.uav[34] utilizationCountIdleState 39
scalar OsgEarthNet.uav[34] utilizationFail 0
scalar OsgEarthNet.uav[34] simulationTime 259200
scalar OsgEarthNet.uav[35] utilizationSecMission 41523.302594743
scalar OsgEarthNet.uav[35] utilizationSecMaintenance 17929.246141226
scalar OsgEarthNet.uav[35] utilizationSecCharge 198560
scalar OsgEarthNet.uav[35] utilizationSecIdle 1187.4502640309
scalar OsgEarthNet.uav[35] utilizationEnergyMission 201295.58967659
scalar OsgEarthNet.uav[35] utilizationEnergyMaintenance 82427.801639557
scalar OsgEarthNet.uav[35] utilizationEnergyCharge 283013.14111328
scalar OsgEarthNet.uav[35] utilizationEnergyOverdrawMission 0
scalar OsgEarthNet.uav[35] utilizationEnergyOverdrawMaintenance 0
scalar OsgEarthNet.uav[35] utilizationCountMissions 62
scalar OsgEarthNet.uav[35] utilizationCountManeuversMission 1396
scalar OsgEarthNet.uav[35] utilizationCountManeuversMaintenance 125
scalar OsgEarthNet.uav[35] utilizationCountChargeState 62
scalar OsgEarthNet.uav[35] utilizationCountOverdrawnAfterMission 0
scalar OsgEarthNet.uav[35] utilizationCountIdleState 7
scalar OsgEarthNet.uav[35] utilizationFail 0
scalar OsgEarthNet.uav[35] simulationTime 259200
scalar OsgEarthNet.uav[36] utilizationSecMission 13495.884411973
scalar OsgEarthNet.uav[36] utilizationSecMaintenance 8144.0813469285
scalar OsgEarthNet.uav[36] utilizationSecCharge 79649.462808042
scalar OsgEarthNet.uav[36] utilizationSecIdle 157910.57043306
scalar OsgEarthNet.uav[36] utilizationEnergyMission 65009.374134064
scalar OsgEarthNet.uav[36] utilizationEnergyMaintenance 38898.121021271
scalar OsgEarthNet.uav[36] utilizationEnergyCharge 103095.12792969
scalar OsgEarthNet.uav[36] utilizationEnergyOverdrawMission 0
scalar OsgEarthNet.uav[36] utilizationEnergyOverdrawMaintenance 0
scalar OsgEarthNet.uav[36] utilizationCountMissions 23
scalar OsgEarthNet.uav[36] utilizationCountManeuversMission 436
scalar OsgEarthNet.uav[36] utilizationCountManeuversMaintenance 46
scalar OsgEarthNet.uav[36] utilizationCountChargeState 23
scalar OsgEarthNet.uav[36] utilizationCountOverdrawnAfterMission 0
scalar OsgEarthNet.uav[36] utilizationCountIdleState 23
scalar OsgEarthNet.uav[36] utilizationFail 0
scalar OsgEarthNet.uav[36] simulationTime 259200
scalar OsgEarthNet.uav[37] utilizationSecMission 19029.891914762
scalar OsgEarthNet.uav[37] utilizationSecMaintenance 12897.77307224
scalar OsgEarthNet.uav[37] utilizationSecCharge 122390.328013
scalar OsgEarthNet.uav[37] utilizationSecIdle 104882.006
scalar OsgEarthNet.uav[37] utilizationEnergyMission 93882.529743195
scalar OsgEarthNet.uav[37] utilizationEnergyMaintenance 61058.015815735
scalar OsgEarthNet.uav[37] utilizationEnergyCharge 155692.30053711
scalar OsgEarthNet.uav[37] utilizationEnergyOverdrawMission 0
scalar OsgEarthNet.uav[37] utilizationEnergyOverdrawMaintenance 0
scalar OsgEarthNet.uav[37] utilizationCountMissions 37
scalar OsgEarthNet.uav[37] utilizationCountManeuversMission 684
scalar OsgEarthNet.uav[37] utilizationCountManeuversMaintenance 74
scalar OsgEarthNet.uav[37] utilizationCountChargeState 37
scalar OsgEarthNet.uav[37] utilizationCountOverdrawnAfterMission 0
scalar OsgEarthNet.uav[37] utilizationCountIdleState 37
scalar OsgEarthNet.uav[37] utilizationFail 0
scalar OsgEarthNet.uav[37] simulationTime 259200
scalar OsgEarthNet.uav[38] utilizationSecMission 11965.411511599
scalar OsgEarthNet.uav[38] utilizationSecMaintenance 8499.3925326857
scalar OsgEarthNet.uav[38] utilizationSecCharge 73971.819113878
scalar OsgEarthNet.uav[38] utilizationSecIdle 164763.37584184
scalar OsgEarthNet.uav[38] utilizationEnergyMission 59338.403270721
scalar OsgEarthNet.uav[38] utilizationEnergyMaintenance 40117.260150909
scalar OsgEarthNet.uav[38] utilizationEnergyCharge 95035.497680664
scalar OsgEarthNet.uav[38] utilizationEnergyOverdrawMission 0
scalar OsgEarthNet.uav[38] utilizationEnergyOverdrawMaintenance 0
scalar OsgEarthNet.uav[38] utilizationCountMissions 22
scalar OsgEarthNet.uav[38] utilizationCountManeuversMission 447
scalar OsgEarthNet.uav[38] utilizationCountManeuversMaintenance 44
scalar OsgEarthNet.uav[38] utilizationCountChargeState 22
scalar OsgEarthNet.uav[38] utilizationCountOverdrawnAfterMission 0
scalar OsgEarthNet.uav[38] utilizationCountIdleState 22
scalar OsgEarthNet.uav[38] utilizationFail 0
scalar OsgEarthNet.uav[38] simulationTime 259200
scalar OsgEarthNet.uav[39] utilizationSecMission 12155.259259393
scalar OsgEarthNet.uav[39] utilizationSecMaintenance 7513.4746682771
scalar OsgEarthNet.uav[39] utilizationSecCharge 73990
scalar OsgEarthNet.uav[39] utilizationSecIdle 165541.26507233
scalar OsgEarthNet.uav[39] utilizationEnergyMission 59433.629981995
scalar OsgEarthNet.uav[39] utilizationEnergyMaintenance 35932.443000793
scalar OsgEarthNet.uav[39] utilizationEnergyCharge 95284.724609375
scalar OsgEarthNet.uav[39] utilizationEnergyOverdrawMission 0
scalar OsgEarthNet.uav[39] utilizationEnergyOverdrawMaintenance 0
scalar OsgEarthNet.uav[39] utilizationCountMissions 21
scalar OsgEarthNet.uav[39] utilizationCountManeuversMission 395
scalar OsgEarthNet.uav[39] utilizationCountManeuversMaintenance 42
scalar OsgEarthNet.uav[39] utilizationCountChargeState 21
scalar OsgEarthNet.uav[39] utilizationCountOverdrawnAfterMission 0
scalar OsgEarthNet.uav[39] utilizationCountIdleState 22
scalar OsgEarthNet.uav[39] utilizationFail 0
scalar OsgEarthNet.uav[39] simulationTime 259200
scalar OsgEarthNet.uav[40] utilizationSecMission 12704.376068062
scalar OsgEarthNet.uav[40] utilizationSecMaintenance 8685.6443179052
scalar OsgEarthNet.uav[40] utilizationSecCharge 80320
scalar OsgEarthNet.uav[40] utilizationSecIdle 157489.97861403
scalar OsgEarthNet.uav[40] utilizationEnergyMission 62009.033504486
scalar OsgEarthNet.uav[40] utilizationEnergyMaintenance 41458.745594025
scalar OsgEarthNet.uav[40] utilizationEnergyCharge 103061.79248047
scalar OsgEarthNet.uav[40] utilizationEnergyOverdrawMission 0
scalar OsgEarthNet.uav[40] utilizationEnergyOverdrawMaintenance 0
scalar OsgEarthNet.uav[40] utilizationCountMissions 23
scalar OsgEarthNet.uav[40] utilizationCountManeuversMission 453
scalar OsgEarthNet.uav[40] utilizationCountManeuversMaintenance 46
scalar OsgEarthNet.uav[40] utilizationCountChargeState 23
scalar OsgEarthNet.uav[40] utilizationCountOverdrawnAfterMission 0
scalar OsgEarthNet.uav[40] utilizationCountIdleState 24
scalar OsgEarthNet.uav[40] utilizationFail 0
scalar OsgEarthNet.uav[40] simulationTime 259200
scalar OsgEarthNet.uav[41] utilizationSecMission 18181.476440913
scalar OsgEarthNet.uav[41] utilizationSecMaintenance 10656.515559087
scalar OsgEarthNet.uav[41] utilizationSecCharge 105360
scalar OsgEarthNet.uav[41] utilizationSecIdle 125002.007
scalar OsgEarthNet.uav[41] utilizationEnergyMission 87455.893283844
scalar OsgEarthNet.uav[41] utilizationEnergyMaintenance 49876.841203236
scalar OsgEarthNet.uav[41] utilizationEnergyCharge 134020.48632812
scalar OsgEarthNet.uav[41] utilizationEnergyOverdrawMission 0
scalar OsgEarthNet.uav[41] utilizationEnergyOverdrawMaintenance 0
scalar OsgEarthNet.uav[41] utilizationCountMissions 32
scalar OsgEarthNet.uav[41] utilizationCountManeuversMission 576
scalar OsgEarthNet.uav[41] utilizationCountManeuversMaintenance 64
scalar OsgEarthNet.uav[41] utilizationCountChargeState 31
scalar OsgEarthNet.uav[41] utilizationCountOverdrawnAfterMission 0
scalar OsgEarthNet.uav[41] utilizationCountIdleState 32
scalar OsgEarthNet.uav[41] utilizationFail 0
scalar OsgEarthNet.uav[41] simulationTime 259200
scalar OsgEarthNet.uav[42] utilizationSecMission 40954.346800081
scalar OsgEarthNet.uav[42] utilizationSecMaintenance 18763.652199919
scalar OsgEarthNet.uav[42] utilizationSecCharge 198900
scalar OsgEarthNet.uav[42] utilizationSecIdle 582
scalar OsgEarthNet.uav[42] utilizationEnergyMission 198077.13131005
scalar OsgEarthNet.uav[42] utilizationEnergyMaintenance 86842.745140076
scalar OsgEarthNet.uav[42] utilizationEnergyCharge 284993.55175781
scalar OsgEarthNet.uav[42] utilizationEnergyOverdrawMission 0
scalar OsgEarthNet.uav[42] utilizationEnergyOverdrawMaintenance 0
scalar OsgEarthNet.uav[42] utilizationCountMissions 62
scalar OsgEarthNet.uav[42] utilizationCountManeuversMission 1334
scalar OsgEarthNet.uav[42] utilizationCountManeuversMaintenance 124
scalar OsgEarthNet.uav[42] utilizationCountChargeState 62
scalar OsgEarthNet.uav[42] utilizationCountOverdrawnAfterMission 0
scalar OsgEarthNet.uav[42] utilizationCountIdleState 8
scalar OsgEarthNet.uav[42] utilizationFail 0
scalar OsgEarthNet.uav[42] simulationTime 259200
scalar OsgEarthNet.uav[43] utilizationSecMission 19318.385022294
scalar OsgEarthNet.uav[43] utilizationSecMaintenance 11950.86577424
scalar OsgEarthNet.uav[43] utilizationSecCharge 114908.74820347
scalar OsgEarthNet.uav[43] utilizationSecIdle 113022
scalar OsgEarthNet.uav[43] utilizationEnergyMission 94275.04454422
scalar OsgEarthNet.uav[43] utilizationEnergyMaintenance 56584.407543182
scalar OsgEarthNet.uav[43] utilizationEnergyCharge 149373.55566406
scalar OsgEarthNet.uav[43] utilizationEnergyOverdrawMission 0
scalar OsgEarthNet.uav[43] utilizationEnergyOverdrawMaintenance 0
scalar OsgEarthNet.uav[43] utilizationCountMissions 33
scalar OsgEarthNet.uav[43] utilizationCountManeuversMission 623
scalar OsgEarthNet.uav[43] utilizationCountManeuversMaintenance 66
scalar OsgEarthNet.uav[43] utilizationCountChargeState 33
scalar OsgEarthNet.uav[43] utilizationCountOverdrawnAfterMission 0
scalar OsgEarthNet.uav[43] utilizationCountIdleState 33
scalar OsgEarthNet.uav[43] utilizationFail 0
scalar OsgEarthNet.uav[43] simulationTime 259200
scalar OsgEarthNet.uav[44] utilizationSecMission 17357.605318238
scalar OsgEarthNet.uav[44] utilizationSecMaintenance 12264.35659581
scalar OsgEarthNet.uav[44] utilizationSecCharge 114058.01681181
scalar OsgEarthNet.uav[44] utilizationSecIdle 115520.02027414
scalar OsgEarthNet.uav[44] utilizationEnergyMission 85189.388111115
scalar OsgEarthNet.uav[44] utilizationEnergyMaintenance 57750.254024506
scalar OsgEarthNet.uav[44] utilizationEnergyCharge 141828.09667969
scalar OsgEarthNet.uav[44] utilizationEnergyOverdrawMission 0
scalar OsgEarthNet.uav[44] utilizationEnergyOverdrawMaintenance 0
scalar OsgEarthNet.uav[44] utilizationCountMissions 36
scalar OsgEarthNet.uav[44] utilizationCountManeuversMission 614
scalar OsgEarthNet.uav[44] utilizationCountManeuversMaintenance 72
scalar OsgEarthNet.uav[44] utilizationCountChargeState 36
scalar OsgEarthNet.uav[44] utilizationCountOverdrawnAfterMission 0
scalar OsgEarthNet.uav[44] utilizationCountIdleState 36
scalar OsgEarthNet.uav[44] utilizationFail 0
scalar OsgEarthNet.uav[44] simulationTime 259200
scalar OsgEarthNet.uav[45] utilizationSecMission 40380.935731434
scalar OsgEarthNet.uav[45] utilizationSecMaintenance 18075.62670241
scalar OsgEarthNet.uav[45] utilizationSecCharge 196972.72850893
scalar OsgEarthNet.uav[45] utilizationSecIdle 3770.7080572282
scalar OsgEarthNet.uav[45] utilizationEnergyMission 196900.01219177
scalar OsgEarthNet.uav[45] utilizationEnergyMaintenance 83648.896419525
scalar OsgEarthNet.uav[45] utilizationEnergyCharge 280012.58740234
scalar OsgEarthNet.uav[45] utilizationEnergyOverdrawMission 0
scalar OsgEarthNet.uav[45] utilizationEnergyOverdrawMaintenance 0
scalar OsgEarthNet.uav[45] utilizationCountMissions 61
scalar OsgEarthNet.uav[45] utilizationCountManeuversMission 1358
scalar OsgEarthNet.uav[45] utilizationCountManeuversMaintenance 122
scalar OsgEarthNet.uav[45] utilizationCountChargeState 61
scalar OsgEarthNet.uav[45] utilizationCountOverdrawnAfterMission 0
scalar OsgEarthNet.uav[45] utilizationCountIdleState 7
scalar OsgEarthNet.uav[45] utilizationFail 0
scalar OsgEarthNet.uav[45] simulationTime 259200
scalar OsgEarthNet.uav[46] utilizationSecMission 19151.252746445
scalar OsgEarthNet.uav[46] utilizationSecMaintenance 9410.4550720905
scalar OsgEarthNet.uav[46] utilizationSecCharge 105550
scalar OsgEarthNet.uav[46] utilizationSecIdle 125088.29118146
scalar OsgEarthNet.uav[46] utilizationEnergyMission 90676.539138794
scalar OsgEarthNet.uav[46] utilizationEnergyMaintenance 44806.758201599
scalar OsgEarthNet.uav[46] utilizationEnergyCharge 136171.80517578
scalar OsgEarthNet.uav[46] utilizationEnergyOverdrawMission 0
scalar OsgEarthNet.uav[46] utilizationEnergyOverdrawMaintenance 0
scalar OsgEarthNet.uav[46] utilizationCountMissions 30
scalar OsgEarthNet.uav[46] utilizationCountManeuversMission 489
scalar OsgEarthNet.uav[46] utilizationCountManeuversMaintenance 60
scalar OsgEarthNet.uav[46] utilizationCountChargeState 30
scalar OsgEarthNet.uav[46] utilizationCountOverdrawnAfterMission 0
scalar OsgEarthNet.uav[46] utilizationCountIdleState 31
scalar OsgEarthNet.uav[46] utilizationFail 0
scalar OsgEarthNet.uav[46] simulationTime 259200
scalar OsgEarthNet.uav[47] utilizationSecMission 16340.759949604
scalar OsgEarthNet.uav[47] utilizationSecMaintenance 11456.603361929
scalar OsgEarthNet.uav[47] utilizationSecCharge 107099.91122201
scalar OsgEarthNet.uav[47] utilizationSecIdle 124302.72446646
scalar OsgEarthNet.uav[47] utilizationEnergyMission 79695.480861664
scalar OsgEarthNet.uav[47] utilizationEnergyMaintenance 54829.693935394
scalar OsgEarthNet.uav[47] utilizationEnergyCharge 131857.82055664
scalar OsgEarthNet.uav[47] utilizationEnergyOverdrawMission 0
scalar OsgEarthNet.uav[47] utilizationEnergyOverdrawMaintenance 0
scalar OsgEarthNet.uav[47] utilizationCountMissions 35
scalar OsgEarthNet.uav[47] utilizationCountManeuversMission 518
scalar OsgEarthNet.uav[47] utilizationCountManeuversMaintenance 70
scalar OsgEarthNet.uav[47] utilizationCountChargeState 35
scalar OsgEarthNet.uav[47] utilizationCountOverdrawnAfterMission 0
scalar OsgEarthNet.uav[47] utilizationCountIdleState 35
scalar OsgEarthNet.uav[47] utilizationFail 0
scalar OsgEarthNet.uav[47] simulationTime 259200
scalar OsgEarthNet.uav[48] utilizationSecMission 41049.186359528
scalar OsgEarthNet.uav[48] utilizationSecMaintenance 18496.65235785
scalar OsgEarthNet.uav[48] utilizationSecCharge 197642.15828262
scalar OsgEarthNet.uav[48] utilizationSecIdle 2012.002
scalar OsgEarthNet.uav[48] utilizationEnergyMission 200468.85811996
scalar OsgEarthNet.uav[48] utilizationEnergyMaintenance 85785.768135071
scalar OsgEarthNet.uav[48] utilizationEnergyCharge 281432.47155762
scalar OsgEarthNet.uav[48] utilizationEnergyOverdrawMission 0
scalar OsgEarthNet.uav[48] utilizationEnergyOverdrawMaintenance 0
scalar OsgEarthNet.uav[48] utilizationCountMissions 62
scalar OsgEarthNet.uav[48] utilizationCountManeuversMission 1282
scalar OsgEarthNet.uav[48] utilizationCountManeuversMaintenance 124
scalar OsgEarthNet.uav[48] utilizationCountChargeState 62
scalar OsgEarthNet.uav[48] utilizationCountOverdrawnAfterMission 0
scalar OsgEarthNet.uav[48] utilizationCountIdleState 6
scalar OsgEarthNet.uav[48] utilizationFail 0
scalar OsgEarthNet.uav[48] simulationTime 259200
scalar OsgEarthNet.uav[49] utilizationSecMission 16446.876678383
scalar OsgEarthNet.uav[49] utilizationSecMaintenance 9915.8522058428
scalar OsgEarthNet.uav[49] utilizationSecCharge 97980
scalar OsgEarthNet.uav[49] utilizationSecIdle 134857.27011577
scalar OsgEarthNet.uav[49] utilizationEnergyMission 80988.143669128
scalar OsgEarthNet.uav[49] utilizationEnergyMaintenance 46921.589168548
scalar OsgEarthNet.uav[49] utilizationEnergyCharge 125775.58740234
scalar OsgEarthNet.uav[49] utilizationEnergyOverdrawMission 0
scalar OsgEarthNet.uav[49] utilizationEnergyOverdrawMaintenance 0
scalar OsgEarthNet.uav[49] utilizationCountMissions 28
scalar OsgEarthNet.uav[49] utilizationCountManeuversMission 536
scalar OsgEarthNet.uav[49] utilizationCountManeuversMaintenance 56
scalar OsgEarthNet.uav[49] utilizationCountChargeState 28
scalar OsgEarthNet.uav[49] utilizationCountOverdrawnAfterMission 0
scalar OsgEarthNet.uav[49] utilizationCountIdleState 29
scalar OsgEarthNet.uav[49] utilizationFail 0
scalar OsgEarthNet.uav[49] simulationTime 259200
scalar OsgEarthNet.uav[50] utilizationSecMission 17116.618639633
scalar OsgEarthNet.uav[50] utilizationSecMaintenance 10833.776338758
scalar OsgEarthNet.uav[50] utilizationSecCharge 104880
scalar OsgEarthNet.uav[50] utilizationSecIdle 126369.60402161
scalar OsgEarthNet.uav[50] utilizationEnergyMission 83612.246135712
scalar OsgEarthNet.uav[50] utilizationEnergyMaintenance 51864.371498108
scalar OsgEarthNet.uav[50] utilizationEnergyCharge 134991.19091797
scalar OsgEarthNet.uav[50] utilizationEnergyOverdrawMission 0
scalar OsgEarthNet.uav[50] utilizationEnergyOverdrawMaintenance 0
scalar OsgEarthNet.uav[50] utilizationCountMissions 30
scalar OsgEarthNet.uav[50] utilizationCountManeuversMission 574
scalar OsgEarthNet.uav[50] utilizationCountManeuversMaintenance 60
scalar OsgEarthNet.uav[50] utilizationCountChargeState 30
scalar OsgEarthNet.uav[50] utilizationCountOverdrawnAfterMission 0
scalar OsgEarthNet.uav[50] utilizationCountIdleState 31
scalar OsgEarthNet.uav[50] utilizationFail 0
scalar OsgEarthNet.uav[50] simulationTime 259200
scalar OsgEarthNet.uav[51] utilizationSecMission 17247.942369633
scalar OsgEarthNet.uav[51] utilizationSecMaintenance 12638.38845238
scalar OsgEarthNet.uav[51] utilizationSecCharge 115220
scalar OsgEarthNet.uav[51] utilizationSecIdle 114093.66817799
scalar OsgEarthNet.uav[51] utilizationEnergyMission 86486.984580349
scalar OsgEarthNet.uav[51] utilizationEnergyMaintenance 60287.019069672
scalar OsgEarthNet.uav[51] utilizationEnergyCharge 142784.81054688
scalar OsgEarthNet.uav[51] utilizationEnergyOverdrawMission 0
scalar OsgEarthNet.uav[51] utilizationEnergyOverdrawMaintenance 0
scalar OsgEarthNet.uav[51] utilizationCountMissions 36
scalar OsgEarthNet.uav[51] utilizationCountManeuversMission 652
scalar OsgEarthNet.uav[51] utilizationCountManeuversMaintenance 73
scalar OsgEarthNet.uav[51] utilizationCountChargeState 36
scalar OsgEarthNet.uav[51] utilizationCountOverdrawnAfterMission 0
scalar OsgEarthNet.uav[51] utilizationCountIdleState 37
scalar OsgEarthNet.uav[51] utilizationFail 0
scalar OsgEarthNet.uav[51] simulationTime 259200
scalar OsgEarthNet.uav[52] utilizationSecMission 41251.662255658
scalar OsgEarthNet.uav[52] utilizationSecMaintenance 17583.320029356
scalar OsgEarthNet.uav[52] utilizationSecCharge 196943.01171499
scalar OsgEarthNet.uav[52] utilizationSecIdle 3422.005
scalar OsgEarthNet.uav[52] utilizationEnergyMission 201538.67870331
scalar OsgEarthNet.uav[52] utilizationEnergyMaintenance 82290.458522797
scalar OsgEarthNet.uav[52] utilizationEnergyCharge 280249.87646484
scalar OsgEarthNet.uav[52] utilizationEnergyOverdrawMission 0
scalar OsgEarthNet.uav[52] utilizationEnergyOverdrawMaintenance 0
scalar OsgEarthNet.uav[52] utilizationCountMissions 61
scalar OsgEarthNet.uav[52] utilizationCountManeuversMission 1270
scalar OsgEarthNet.uav[52] utilizationCountManeuversMaintenance 122
scalar OsgEarthNet.uav[52] utilizationCountChargeState 61
scalar OsgEarthNet.uav[52] utilizationCountOverdrawnAfterMission 0
scalar OsgEarthNet.uav[52] utilizationCountIdleState 9
scalar OsgEarthNet.uav[52] utilizationFail 0
scalar OsgEarthNet.uav[52] simulationTime 259200
scalar OsgEarthNet.uav[53] utilizationSecMission 20951.573860165
scalar OsgEarthNet.uav[53] utilizationSecMaintenance 11925.657350708
scalar OsgEarthNet.uav[53] utilizationSecCharge 122070
scalar OsgEarthNet.uav[53] utilizationSecIdle 104252.76778913
scalar OsgEarthNet.uav[53] utilizationEnergyMission 101619.23328018
scalar OsgEarthNet.uav[53] utilizationEnergyMaintenance 56317.456912994
scalar OsgEarthNet.uav[53] utilizationEnergyCharge 156872.06982422
scalar OsgEarthNet.uav[53] utilizationEnergyOverdrawMission 0
scalar OsgEarthNet.uav[53] utilizationEnergyOverdrawMaintenance 0
scalar OsgEarthNet.uav[53] utilizationCountMissions 35
scalar OsgEarthNet.uav[53] utilizationCountManeuversMission 633
scalar OsgEarthNet.uav[53] utilizationCountManeuversMaintenance 70
scalar OsgEarthNet.uav[53] utilizationCountChargeState 35
scalar OsgEarthNet.uav[53] utilizationCountOverdrawnAfterMission 0
scalar OsgEarthNet.uav[53] utilizationCountIdleState 36
scalar OsgEarthNet.uav[53] utilizationFail 0
scalar OsgEarthNet.uav[53] simulationTime 259200
scalar OsgEarthNet.uav[54] utilizationSecMission 14554.864286597
scalar OsgEarthNet.uav[54] utilizationSecMaintenance 10845.599460022
scalar OsgEarthNet.uav[54] utilizationSecCharge 97031.181650502
scalar OsgEarthNet.uav[54] utilizationSecIdle 136768.35360288
scalar OsgEarthNet.uav[54] utilizationEnergyMission 71339.779708862
scalar OsgEarthNet.uav[54] utilizationEnergyMaintenance 51159.287345886
scalar OsgEarthNet.uav[54] utilizationEnergyCharge 117336.90783691
scalar OsgEarthNet.uav[54] utilizationEnergyOverdrawMission 0
scalar OsgEarthNet.uav[54] utilizationEnergyOverdrawMaintenance 0
scalar OsgEarthNet.uav[54] utilizationCountMissions 33
scalar OsgEarthNet.uav[54] utilizationCountManeuversMission 473
scalar OsgEarthNet.uav[54] utilizationCountManeuversMaintenance 66
scalar OsgEarthNet.uav[54] utilizationCountChargeState 33
scalar OsgEarthNet.uav[54] utilizationCountOverdrawnAfterMission 0
scalar OsgEarthNet.uav[54] utilizationCountIdleState 33
scalar OsgEarthNet.uav[54] utilizationFail 0
scalar OsgEarthNet.uav[54] simulationTime 259200
scalar OsgEarthNet.uav[55] utilizationSecMission 42839.4004917
scalar OsgEarthNet.uav[55] utilizationSecMaintenance 16308.558723198
scalar OsgEarthNet.uav[55] utilizationSecCharge 195500.0347851
scalar OsgEarthNet.uav[55] utilizationSecIdle 4552.005
scalar OsgEarthNet.uav[55] utilizationEnergyMission 203680.89505386
scalar OsgEarthNet.uav[55] utilizationEnergyMaintenance 75267.233566284
scalar OsgEarthNet.uav[55] utilizationEnergyCharge 276302.76000977
scalar OsgEarthNet.uav[55] utilizationEnergyOverdrawMission 0
scalar OsgEarthNet.uav[55] utilizationEnergyOverdrawMaintenance 0
scalar OsgEarthNet.uav[55] utilizationCountMissions 60
scalar OsgEarthNet.uav[55] utilizationCountManeuversMission 1088
scalar OsgEarthNet.uav[55] utilizationCountManeuversMaintenance 120
scalar OsgEarthNet.uav[55] utilizationCountChargeState 60
scalar OsgEarthNet.uav[55] utilizationCountOverdrawnAfterMission 0
scalar OsgEarthNet.uav[55] utilizationCountIdleState 10
scalar OsgEarthNet.uav[55] utilizationFail 0
scalar OsgEarthNet.uav[55] simulationTime 259200
scalar OsgEarthNet.uav[56] utilizationSecMission 19967.501830963
scalar OsgEarthNet.uav[56] utilizationSecMaintenance 12870.964778504
scalar OsgEarthNet.uav[56] utilizationSecCharge 122700
scalar OsgEarthNet.uav[56] utilizationSecIdle 103661.53239053
scalar OsgEarthNet.uav[56] utilizationEnergyMission 98147.466972351
scalar OsgEarthNet.uav[56] utilizationEnergyMaintenance 60994.652378082
scalar OsgEarthNet.uav[56] utilizationEnergyCharge 157802.12548828
scalar OsgEarthNet.uav[56] utilizationEnergyOverdrawMission 0
scalar OsgEarthNet.uav[56] utilizationEnergyOverdrawMaintenance 0
scalar OsgEarthNet.uav[56] utilizationCountMissions 35
scalar OsgEarthNet.uav[56] utilizationCountManeuversMission 686
scalar OsgEarthNet.uav[56] utilizationCountManeuversMaintenance 70
scalar OsgEarthNet.uav[56] utilizationCountChargeState 35
scalar OsgEarthNet.uav[56] utilizationCountOverdrawnAfterMission 0
scalar OsgEarthNet.uav[56] utilizationCountIdleState 36
scalar OsgEarthNet.uav[56] utilizationFail 0
scalar OsgEarthNet.uav[56] simulationTime 259200
scalar OsgEarthNet.uav[57] utilizationSecMission 19926.143133967
scalar OsgEarthNet.uav[57] utilizationSecMaintenance 14670.597063803
scalar OsgEarthNet.uav[57] utilizationSecCharge 135498.64691271
scalar OsgEarthNet.uav[57] utilizationSecIdle 89104.611889516
scalar OsgEarthNet.uav[57] utilizationEnergyMission 98817.496372223
scalar OsgEarthNet.uav[57] utilizationEnergyMaintenance 69846.339664459
scalar OsgEarthNet.uav[57] utilizationEnergyCharge 169662.14477539
scalar OsgEarthNet.uav[57] utilizationEnergyOverdrawMission 0
scalar OsgEarthNet.uav[57] utilizationEnergyOverdrawMaintenance 0
scalar OsgEarthNet.uav[57] utilizationCountMissions 42
scalar OsgEarthNet.uav[57] utilizationCountManeuversMission 755
scalar OsgEarthNet.uav[57] utilizationCountManeuversMaintenance 84
scalar OsgEarthNet.uav[57] utilizationCountChargeState 42
scalar OsgEarthNet.uav[57] utilizationCountOverdrawnAfterMission 0
scalar OsgEarthNet.uav[57] utilizationCountIdleState 42
scalar OsgEarthNet.uav[57] utilizationFail 0
scalar OsgEarthNet.uav[57] simulationTime 259200
scalar OsgEarthNet.uav[58] utilizationSecMission 42817.970073252
scalar OsgEarthNet.uav[58] utilizationSecMaintenance 17114.414205117
scalar OsgEarthNet.uav[58] utilizationSecCharge 198515.61472163
scalar OsgEarthNet.uav[58] utilizationSecIdle 752
scalar OsgEarthNet.uav[58] utilizationEnergyMission 205942.23851013
scalar OsgEarthNet.uav[58] utilizationEnergyMaintenance 78573.484046936
scalar OsgEarthNet.uav[58] utilizationEnergyCharge 281465.6829834
scalar OsgEarthNet.uav[58] utilizationEnergyOverdrawMission 0
scalar OsgEarthNet.uav[58] utilizationEnergyOverdrawMaintenance 0
scalar OsgEarthNet.uav[58] utilizationCountMissions 62
scalar OsgEarthNet.uav[58] utilizationCountManeuversMission 1241
scalar OsgEarthNet.uav[58] utilizationCountManeuversMaintenance 124
scalar OsgEarthNet.uav[58] utilizationCountChargeState 62
scalar OsgEarthNet.uav[58] utilizationCountOverdrawnAfterMission 0
scalar OsgEarthNet.uav[58] utilizationCountIdleState 8
scalar OsgEarthNet.uav[58] utilizationFail 0
scalar OsgEarthNet.uav[58] simulationTime 259200
scalar OsgEarthNet.uav[59] utilizationSecMission 16466.876678383
scalar OsgEarthNet.uav[59] utilizationSecMaintenance 10003.188207269
scalar OsgEarthNet.uav[59] utilizationSecCharge 98320
scalar OsgEarthNet.uav[59] utilizationSecIdle 134409.93411435
scalar OsgEarthNet.uav[59] utilizationEnergyMission 80596.989360809
scalar OsgEarthNet.uav[59] utilizationEnergyMaintenance 47860.372219086
scalar OsgEarthNet.uav[59] utilizationEnergyCharge 126702.02978516
scalar OsgEarthNet.uav[59] utilizationEnergyOverdrawMission 0
scalar OsgEarthNet.uav[59] utilizationEnergyOverdrawMaintenance 0
scalar OsgEarthNet.uav[59] utilizationCountMissions 28
scalar OsgEarthNet.uav[59] utilizationCountManeuversMission 537
scalar OsgEarthNet.uav[59] utilizationCountManeuversMaintenance 56
scalar OsgEarthNet.uav[59] utilizationCountChargeState 28
scalar OsgEarthNet.uav[59] utilizationCountOverdrawnAfterMission 0
scalar OsgEarthNet.uav[59] utilizationCountIdleState 29
scalar OsgEarthNet.uav[59] utilizationFail 0
scalar OsgEarthNet.uav[59] simulationTime 259200
scalar OsgEarthNet.uav[60] utilizationSecMission 18845.001220642
scalar OsgEarthNet.uav[60] utilizationSecMaintenance 13887.946845357
scalar OsgEarthNet.uav[60] utilizationSecCharge 121025.028934
scalar OsgEarthNet.uav[60] utilizationSecIdle 105442.022
scalar OsgEarthNet.uav[60] utilizationEnergyMission 95514.000011444
scalar OsgEarthNet.uav[60] utilizationEnergyMaintenance 66261.157810211
scalar OsgEarthNet.uav[60] utilizationEnergyCharge 156585.93969727
scalar OsgEarthNet.uav[60] utilizationEnergyOverdrawMission 0
scalar OsgEarthNet.uav[60] utilizationEnergyOverdrawMaintenance 0
scalar OsgEarthNet.uav[60] utilizationCountMissions 35
scalar OsgEarthNet.uav[60] utilizationCountManeuversMission 734
scalar OsgEarthNet.uav[60] utilizationCountManeuversMaintenance 70
scalar OsgEarthNet.uav[60] utilizationCountChargeState 35
scalar OsgEarthNet.uav[60] utilizationCountOverdrawnAfterMission 0
scalar OsgEarthNet.uav[60] utilizationCountIdleState 35
scalar OsgEarthNet.uav[60] utilizationFail 0
scalar OsgEarthNet.uav[60] simulationTime 259200
scalar OsgEarthNet.uav[61] utilizationSecMission 17709.603444115
scalar OsgEarthNet.uav[61] utilizationSecMaintenance 12289.207796321
scalar OsgEarthNet.uav[61] utilizationSecCharge 118240
scalar OsgEarthNet.uav[61] utilizationSecIdle 110961.18775956
scalar OsgEarthNet.uav[61] utilizationEnergyMission 85562.100635529
scalar OsgEarthNet.uav[61] utilizationEnergyMaintenance 58407.750019073
scalar OsgEarthNet.uav[61] utilizationEnergyCharge 144688.03125
scalar OsgEarthNet.uav[61] utilizationEnergyOverdrawMission 0
scalar OsgEarthNet.uav[61] utilizationEnergyOverdrawMaintenance 0
scalar OsgEarthNet.uav[61] utilizationCountMissions 38
scalar OsgEarthNet.uav[61] utilizationCountManeuversMission 520
scalar OsgEarthNet.uav[61] utilizationCountManeuversMaintenance 76
scalar OsgEarthNet.uav[61] utilizationCountChargeState 38
scalar OsgEarthNet.uav[61] utilizationCountOverdrawnAfterMission 0
scalar OsgEarthNet.uav[61] utilizationCountIdleState 39
scalar OsgEarthNet.uav[61] utilizationFail 0
scalar OsgEarthNet.uav[61] simulationTime 259200
scalar OsgEarthNet.uav[62] utilizationSecMission 41154.132663175
scalar OsgEarthNet.uav[62] utilizationSecMaintenance 17558.65083008
scalar OsgEarthNet.uav[62] utilizationSecCharge 196645.20950675
scalar OsgEarthNet.uav[62] utilizationSecIdle 3842.006
scalar OsgEarthNet.uav[62] utilizationEnergyMission 197718.52812195
scalar OsgEarthNet.uav[62] utilizationEnergyMaintenance 80622.97498703
scalar OsgEarthNet.uav[62] utilizationEnergyCharge 276547.25048828
scalar OsgEarthNet.uav[62] utilizationEnergyOverdrawMission 0
scalar OsgEarthNet.uav[62] utilizationEnergyOverdrawMaintenance 0
scalar OsgEarthNet.uav[62] utilizationCountMissions 61
scalar OsgEarthNet.uav[62] utilizationCountManeuversMission 1238
scalar OsgEarthNet.uav[62] utilizationCountManeuversMaintenance 122
scalar OsgEarthNet.uav[62] utilizationCountChargeState 61
scalar OsgEarthNet.uav[62] utilizationCountOverdrawnAfterMission 0
scalar OsgEarthNet.uav[62] utilizationCountIdleState 10
scalar OsgEarthNet.uav[62] utilizationFail 0
scalar OsgEarthNet.uav[62] simulationTime 259200
scalar OsgEarthNet.uav[63] utilizationSecMission 20930.002441285
scalar OsgEarthNet.uav[63] utilizationSecMaintenance 12038.748676131
scalar OsgEarthNet.uav[63] utilizationSecCharge 121362.2193771
scalar OsgEarthNet.uav[63] utilizationSecIdle 104869.02850548
scalar OsgEarthNet.uav[63] utilizationEnergyMission 101350.98869705
scalar OsgEarthNet.uav[63] utilizationEnergyMaintenance 56967.738876343
scalar OsgEarthNet.uav[63] utilizationEnergyCharge 157120.82080078
scalar OsgEarthNet.uav[63] utilizationEnergyOverdrawMission 0
scalar OsgEarthNet.uav[63] utilizationEnergyOverdrawMaintenance 0
scalar OsgEarthNet.uav[63] utilizationCountMissions 35
scalar OsgEarthNet.uav[63] utilizationCountManeuversMission 630
scalar OsgEarthNet.uav[63] utilizationCountManeuversMaintenance 70
scalar OsgEarthNet.uav[63] utilizationCountChargeState 35
scalar OsgEarthNet.uav[63] utilizationCountOverdrawnAfterMission 0
scalar OsgEarthNet.uav[63] utilizationCountIdleState 35
scalar OsgEarthNet.uav[63] utilizationFail 0
scalar OsgEarthNet.uav[63] simulationTime 259200
scalar OsgEarthNet.uav[64] utilizationSecMission 19846.655612612
scalar OsgEarthNet.uav[64] utilizationSecMaintenance 13605.607737099
scalar OsgEarthNet.uav[64] utilizationSecCharge 128996.6778551
scalar OsgEarthNet.uav[64] utilizationSecIdle 96751.057795193
scalar OsgEarthNet.uav[64] utilizationEnergyMission 97399.589500427
scalar OsgEarthNet.uav[64] utilizationEnergyMaintenance 64245.668113708
scalar OsgEarthNet.uav[64] utilizationEnergyCharge 160172.15014648
scalar OsgEarthNet.uav[64] utilizationEnergyOverdrawMission 0
scalar OsgEarthNet.uav[64] utilizationEnergyOverdrawMaintenance 0
scalar OsgEarthNet.uav[64] utilizationCountMissions 41
scalar OsgEarthNet.uav[64] utilizationCountManeuversMission 649
scalar OsgEarthNet.uav[64] utilizationCountManeuversMaintenance 82
scalar OsgEarthNet.uav[64] utilizationCountChargeState 41
scalar OsgEarthNet.uav[64] utilizationCountOverdrawnAfterMission 0
scalar OsgEarthNet.uav[64] utilizationCountIdleState 41
scalar OsgEarthNet.uav[64] utilizationFail 0
scalar OsgEarthNet.uav[64] simulationTime 259200
scalar OsgEarthNet.uav[65] utilizationSecMission 41333.012383405
scalar OsgEarthNet.uav[65] utilizationSecMaintenance 18348.30430708
scalar OsgEarthNet.uav[65] utilizationSecCharge 198126.68130951
scalar OsgEarthNet.uav[65] utilizationSecIdle 1392.001
[...]
scalar OsgEarthNet.uav[79] utilizationEnergyOverdrawMaintenance 0
scalar OsgEarthNet.uav[79] utilizationCountMissions 37
scalar OsgEarthNet.uav[79] utilizationCountManeuversMission 757
scalar OsgEarthNet.uav[79] utilizationCountManeuversMaintenance 74
scalar OsgEarthNet.uav[79] utilizationCountChargeState 37
scalar OsgEarthNet.uav[79] utilizationCountOverdrawnAfterMission 0
scalar OsgEarthNet.uav[79] utilizationCountIdleState 37
scalar OsgEarthNet.uav[79] utilizationFail 0
scalar OsgEarthNet.uav[79] simulationTime 259200
scalar OsgEarthNet.uav[80] utilizationSecMission 41491.273539795
scalar OsgEarthNet.uav[80] utilizationSecMaintenance 17787.77520454
scalar OsgEarthNet.uav[80] utilizationSecCharge 195200
scalar OsgEarthNet.uav[80] utilizationSecIdle 4720.9502556647
scalar OsgEarthNet.uav[80] utilizationEnergyMission 201457.01042938
scalar OsgEarthNet.uav[80] utilizationEnergyMaintenance 83092.558640314
scalar OsgEarthNet.uav[80] utilizationEnergyCharge 277154.82128906
scalar OsgEarthNet.uav[80] utilizationEnergyOverdrawMission 0
scalar OsgEarthNet.uav[80] utilizationEnergyOverdrawMaintenance 0
scalar OsgEarthNet.uav[80] utilizationCountMissions 61
scalar OsgEarthNet.uav[80] utilizationCountManeuversMission 1220
scalar OsgEarthNet.uav[80] utilizationCountManeuversMaintenance 122
scalar OsgEarthNet.uav[80] utilizationCountChargeState 60
scalar OsgEarthNet.uav[80] utilizationCountOverdrawnAfterMission 0
scalar OsgEarthNet.uav[80] utilizationCountIdleState 8
scalar OsgEarthNet.uav[80] utilizationFail 0
scalar OsgEarthNet.uav[80] simulationTime 259200
scalar OsgEarthNet.uav[81] utilizationSecMission 19750.098714624
scalar OsgEarthNet.uav[81] utilizationSecMaintenance 13735.567230902
scalar OsgEarthNet.uav[81] utilizationSecCharge 129692.32005447
scalar OsgEarthNet.uav[81] utilizationSecIdle 96022.013
scalar OsgEarthNet.uav[81] utilizationEnergyMission 96732.436405182
scalar OsgEarthNet.uav[81] utilizationEnergyMaintenance 65531.084899902
scalar OsgEarthNet.uav[81] utilizationEnergyCharge 163422.86669922
scalar OsgEarthNet.uav[81] utilizationEnergyOverdrawMission 0
scalar OsgEarthNet.uav[81] utilizationEnergyOverdrawMaintenance 0
scalar OsgEarthNet.uav[81] utilizationCountMissions 40
scalar OsgEarthNet.uav[81] utilizationCountManeuversMission 697
scalar OsgEarthNet.uav[81] utilizationCountManeuversMaintenance 80
scalar OsgEarthNet.uav[81] utilizationCountChargeState 40
scalar OsgEarthNet.uav[81] utilizationCountOverdrawnAfterMission 0
scalar OsgEarthNet.uav[81] utilizationCountIdleState 40
scalar OsgEarthNet.uav[81] utilizationFail 0
scalar OsgEarthNet.uav[81] simulationTime 259200
scalar OsgEarthNet.uav[82] utilizationSecMission 41578.906058745
scalar OsgEarthNet.uav[82] utilizationSecMaintenance 17579.089941255
scalar OsgEarthNet.uav[82] utilizationSecCharge 197990
scalar OsgEarthNet.uav[82] utilizationSecIdle 2052.003
scalar OsgEarthNet.uav[82] utilizationEnergyMission 203261.69521713
scalar OsgEarthNet.uav[82] utilizationEnergyMaintenance 80239.956496636
scalar OsgEarthNet.uav[82] utilizationEnergyCharge 281690.63867188
scalar OsgEarthNet.uav[82] utilizationEnergyOverdrawMission 0
scalar OsgEarthNet.uav[82] utilizationEnergyOverdrawMaintenance 0
scalar OsgEarthNet.uav[82] utilizationCountMissions 61
scalar OsgEarthNet.uav[82] utilizationCountManeuversMission 1307
scalar OsgEarthNet.uav[82] utilizationCountManeuversMaintenance 123
scalar OsgEarthNet.uav[82] utilizationCountChargeState 61
scalar OsgEarthNet.uav[82] utilizationCountOverdrawnAfterMission 0
scalar OsgEarthNet.uav[82] utilizationCountIdleState 6
scalar OsgEarthNet.uav[82] utilizationFail 0
scalar OsgEarthNet.uav[82] simulationTime 259200
scalar OsgEarthNet.uav[83] utilizationSecMission 17528.752136124
scalar OsgEarthNet.uav[83] utilizationSecMaintenance 9765.2507059482
scalar OsgEarthNet.uav[83] utilizationSecCharge 101820
scalar OsgEarthNet.uav[83] utilizationSecIdle 130085.99615793
scalar OsgEarthNet.uav[83] utilizationEnergyMission 84272.436985016
scalar OsgEarthNet.uav[83] utilizationEnergyMaintenance 46389.097774505
scalar OsgEarthNet.uav[83] utilizationEnergyCharge 131534.47802734
scalar OsgEarthNet.uav[83] utilizationEnergyOverdrawMission 0
scalar OsgEarthNet.uav[83] utilizationEnergyOverdrawMaintenance 0
scalar OsgEarthNet.uav[83] utilizationCountMissions 29
scalar OsgEarthNet.uav[83] utilizationCountManeuversMission 512
scalar OsgEarthNet.uav[83] utilizationCountManeuversMaintenance 58
scalar OsgEarthNet.uav[83] utilizationCountChargeState 29
scalar OsgEarthNet.uav[83] utilizationCountOverdrawnAfterMission 0
scalar OsgEarthNet.uav[83] utilizationCountIdleState 30
scalar OsgEarthNet.uav[83] utilizationFail 0
scalar OsgEarthNet.uav[83] simulationTime 259200
scalar OsgEarthNet.uav[84] utilizationSecMission 20277.415726511
scalar OsgEarthNet.uav[84] utilizationSecMaintenance 13701.487362302
scalar OsgEarthNet.uav[84] utilizationSecCharge 132280
scalar OsgEarthNet.uav[84] utilizationSecIdle 92941.095911187
scalar OsgEarthNet.uav[84] utilizationEnergyMission 97893.167404175
scalar OsgEarthNet.uav[84] utilizationEnergyMaintenance 65002.683719635
scalar OsgEarthNet.uav[84] utilizationEnergyCharge 162599.41308594
scalar OsgEarthNet.uav[84] utilizationEnergyOverdrawMission 0
scalar OsgEarthNet.uav[84] utilizationEnergyOverdrawMaintenance 0
scalar OsgEarthNet.uav[84] utilizationCountMissions 42
scalar OsgEarthNet.uav[84] utilizationCountManeuversMission 606
scalar OsgEarthNet.uav[84] utilizationCountManeuversMaintenance 84
scalar OsgEarthNet.uav[84] utilizationCountChargeState 42
scalar OsgEarthNet.uav[84] utilizationCountOverdrawnAfterMission 0
scalar OsgEarthNet.uav[84] utilizationCountIdleState 43
scalar OsgEarthNet.uav[84] utilizationFail 0
scalar OsgEarthNet.uav[84] simulationTime 259200
scalar OsgEarthNet.uav[85] utilizationSecMission 41495.339561448
scalar OsgEarthNet.uav[85] utilizationSecMaintenance 17278.684132473
scalar OsgEarthNet.uav[85] utilizationSecCharge 195986.13849204
scalar OsgEarthNet.uav[85] utilizationSecIdle 4439.83681404
scalar OsgEarthNet.uav[85] utilizationEnergyMission 199740.39914322
scalar OsgEarthNet.uav[85] utilizationEnergyMaintenance 79949.696346283
scalar OsgEarthNet.uav[85] utilizationEnergyCharge 278271.62207031
scalar OsgEarthNet.uav[85] utilizationEnergyOverdrawMission 0
scalar OsgEarthNet.uav[85] utilizationEnergyOverdrawMaintenance 0
scalar OsgEarthNet.uav[85] utilizationCountMissions 61
scalar OsgEarthNet.uav[85] utilizationCountManeuversMission 1216
scalar OsgEarthNet.uav[85] utilizationCountManeuversMaintenance 122
scalar OsgEarthNet.uav[85] utilizationCountChargeState 61
scalar OsgEarthNet.uav[85] utilizationCountOverdrawnAfterMission 0
scalar OsgEarthNet.uav[85] utilizationCountIdleState 10
scalar OsgEarthNet.uav[85] utilizationFail 0
scalar OsgEarthNet.uav[85] simulationTime 259200
scalar OsgEarthNet.uav[86] utilizationSecMission 17457.243792213
scalar OsgEarthNet.uav[86] utilizationSecMaintenance 10502.163500075
scalar OsgEarthNet.uav[86] utilizationSecCharge 102008.57570771
scalar OsgEarthNet.uav[86] utilizationSecIdle 129232.016
scalar OsgEarthNet.uav[86] utilizationEnergyMission 84400.415802002
scalar OsgEarthNet.uav[86] utilizationEnergyMaintenance 50088.881336212
scalar OsgEarthNet.uav[86] utilizationEnergyCharge 131301.07080078
scalar OsgEarthNet.uav[86] utilizationEnergyOverdrawMission 0
scalar OsgEarthNet.uav[86] utilizationEnergyOverdrawMaintenance 0
scalar OsgEarthNet.uav[86] utilizationCountMissions 30
scalar OsgEarthNet.uav[86] utilizationCountManeuversMission 565
scalar OsgEarthNet.uav[86] utilizationCountManeuversMaintenance 60
scalar OsgEarthNet.uav[86] utilizationCountChargeState 30
scalar OsgEarthNet.uav[86] utilizationCountOverdrawnAfterMission 0
scalar OsgEarthNet.uav[86] utilizationCountIdleState 30
scalar OsgEarthNet.uav[86] utilizationFail 0
scalar OsgEarthNet.uav[86] simulationTime 259200
scalar OsgEarthNet.uav[87] utilizationSecMission 19695.994377632
scalar OsgEarthNet.uav[87] utilizationSecMaintenance 13136.254844683
scalar OsgEarthNet.uav[87] utilizationSecCharge 126240.33988633
scalar OsgEarthNet.uav[87] utilizationSecIdle 100127.40989135
scalar OsgEarthNet.uav[87] utilizationEnergyMission 96069.839508057
scalar OsgEarthNet.uav[87] utilizationEnergyMaintenance 62323.119720459
scalar OsgEarthNet.uav[87] utilizationEnergyCharge 158186.58251953
scalar OsgEarthNet.uav[87] utilizationEnergyOverdrawMission 0
scalar OsgEarthNet.uav[87] utilizationEnergyOverdrawMaintenance 0
scalar OsgEarthNet.uav[87] utilizationCountMissions 39
scalar OsgEarthNet.uav[87] utilizationCountManeuversMission 650
scalar OsgEarthNet.uav[87] utilizationCountManeuversMaintenance 78
scalar OsgEarthNet.uav[87] utilizationCountChargeState 39
scalar OsgEarthNet.uav[87] utilizationCountOverdrawnAfterMission 0
scalar OsgEarthNet.uav[87] utilizationCountIdleState 39
scalar OsgEarthNet.uav[87] utilizationFail 0
scalar OsgEarthNet.uav[87] simulationTime 259200
scalar OsgEarthNet.uav[88] utilizationSecMission 40874.057436966
scalar OsgEarthNet.uav[88] utilizationSecMaintenance 18314.137948562
scalar OsgEarthNet.uav[88] utilizationSecCharge 198939.80361447
scalar OsgEarthNet.uav[88] utilizationSecIdle 1072
scalar OsgEarthNet.uav[88] utilizationEnergyMission 199416.82436752
scalar OsgEarthNet.uav[88] utilizationEnergyMaintenance 84522.86006546
scalar OsgEarthNet.uav[88] utilizationEnergyCharge 280666.45074463
scalar OsgEarthNet.uav[88] utilizationEnergyOverdrawMission 0
scalar OsgEarthNet.uav[88] utilizationEnergyOverdrawMaintenance 0
scalar OsgEarthNet.uav[88] utilizationCountMissions 62
scalar OsgEarthNet.uav[88] utilizationCountManeuversMission 1340
scalar OsgEarthNet.uav[88] utilizationCountManeuversMaintenance 124
scalar OsgEarthNet.uav[88] utilizationCountChargeState 62
scalar OsgEarthNet.uav[88] utilizationCountOverdrawnAfterMission 0
scalar OsgEarthNet.uav[88] utilizationCountIdleState 8
scalar OsgEarthNet.uav[88] utilizationFail 0
scalar OsgEarthNet.uav[88] simulationTime 259200
scalar OsgEarthNet.uav[89] utilizationSecMission 18148.752136124
scalar OsgEarthNet.uav[89] utilizationSecMaintenance 10135.346431371
scalar OsgEarthNet.uav[89] utilizationSecCharge 105110
scalar OsgEarthNet.uav[89] utilizationSecIdle 125805.9004325
scalar OsgEarthNet.uav[89] utilizationEnergyMission 87346.454879761
scalar OsgEarthNet.uav[89] utilizationEnergyMaintenance 48488.523303985
scalar OsgEarthNet.uav[89] utilizationEnergyCharge 135367.26513672
scalar OsgEarthNet.uav[89] utilizationEnergyOverdrawMission 0
scalar OsgEarthNet.uav[89] utilizationEnergyOverdrawMaintenance 0
scalar OsgEarthNet.uav[89] utilizationCountMissions 30
scalar OsgEarthNet.uav[89] utilizationCountManeuversMission 543
scalar OsgEarthNet.uav[89] utilizationCountManeuversMaintenance 60
scalar OsgEarthNet.uav[89] utilizationCountChargeState 30
scalar OsgEarthNet.uav[89] utilizationCountOverdrawnAfterMission 0
scalar OsgEarthNet.uav[89] utilizationCountIdleState 31
scalar OsgEarthNet.uav[89] utilizationFail 0
scalar OsgEarthNet.uav[89] simulationTime 259200
scalar OsgEarthNet.uav[90] utilizationSecMission 20348.126983544
scalar OsgEarthNet.uav[90] utilizationSecMaintenance 13238.885632578
scalar OsgEarthNet.uav[90] utilizationSecCharge 125870
scalar OsgEarthNet.uav[90] utilizationSecIdle 99742.986383878
scalar OsgEarthNet.uav[90] utilizationEnergyMission 99466.626766205
scalar OsgEarthNet.uav[90] utilizationEnergyMaintenance 63279.939071655
scalar OsgEarthNet.uav[90] utilizationEnergyCharge 161824.82714844
scalar OsgEarthNet.uav[90] utilizationEnergyOverdrawMission 0
scalar OsgEarthNet.uav[90] utilizationEnergyOverdrawMaintenance 0
scalar OsgEarthNet.uav[90] utilizationCountMissions 36
scalar OsgEarthNet.uav[90] utilizationCountManeuversMission 679
scalar OsgEarthNet.uav[90] utilizationCountManeuversMaintenance 72
scalar OsgEarthNet.uav[90] utilizationCountChargeState 36
scalar OsgEarthNet.uav[90] utilizationCountOverdrawnAfterMission 0
scalar OsgEarthNet.uav[90] utilizationCountIdleState 37
scalar OsgEarthNet.uav[90] utilizationFail 0
scalar OsgEarthNet.uav[90] simulationTime 259200
scalar OsgEarthNet.uav[91] utilizationSecMission 15189.175423453
scalar OsgEarthNet.uav[91] utilizationSecMaintenance 12292.706004902
scalar OsgEarthNet.uav[91] utilizationSecCharge 111290
scalar OsgEarthNet.uav[91] utilizationSecIdle 120428.11757165
scalar OsgEarthNet.uav[91] utilizationEnergyMission 74287.684719086
scalar OsgEarthNet.uav[91] utilizationEnergyMaintenance 59242.577571869
scalar OsgEarthNet.uav[91] utilizationEnergyCharge 133929.16992188
scalar OsgEarthNet.uav[91] utilizationEnergyOverdrawMission 0
scalar OsgEarthNet.uav[91] utilizationEnergyOverdrawMaintenance 0
scalar OsgEarthNet.uav[91] utilizationCountMissions 37
scalar OsgEarthNet.uav[91] utilizationCountManeuversMission 526
scalar OsgEarthNet.uav[91] utilizationCountManeuversMaintenance 74
scalar OsgEarthNet.uav[91] utilizationCountChargeState 37
scalar OsgEarthNet.uav[91] utilizationCountOverdrawnAfterMission 0
scalar OsgEarthNet.uav[91] utilizationCountIdleState 38
scalar OsgEarthNet.uav[91] utilizationFail 0
scalar OsgEarthNet.uav[91] simulationTime 259200
scalar OsgEarthNet.uav[92] utilizationSecMission 40839.266010432
scalar OsgEarthNet.uav[92] utilizationSecMaintenance 17625.795917191
scalar OsgEarthNet.uav[92] utilizationSecCharge 197808.23170997
scalar OsgEarthNet.uav[92] utilizationSecIdle 2926.7053624037
scalar OsgEarthNet.uav[92] utilizationEnergyMission 197371.96427536
scalar OsgEarthNet.uav[92] utilizationEnergyMaintenance 82817.367977142
scalar OsgEarthNet.uav[92] utilizationEnergyCharge 280060.83203125
scalar OsgEarthNet.uav[92] utilizationEnergyOverdrawMission 0
scalar OsgEarthNet.uav[92] utilizationEnergyOverdrawMaintenance 0
scalar OsgEarthNet.uav[92] utilizationCountMissions 61
scalar OsgEarthNet.uav[92] utilizationCountManeuversMission 1329
scalar OsgEarthNet.uav[92] utilizationCountManeuversMaintenance 122
scalar OsgEarthNet.uav[92] utilizationCountChargeState 61
scalar OsgEarthNet.uav[92] utilizationCountOverdrawnAfterMission 0
scalar OsgEarthNet.uav[92] utilizationCountIdleState 11
scalar OsgEarthNet.uav[92] utilizationFail 0
scalar OsgEarthNet.uav[92] simulationTime 259200
scalar OsgEarthNet.uav[93] utilizationSecMission 17286.251525803
scalar OsgEarthNet.uav[93] utilizationSecMaintenance 11741.729474197
scalar OsgEarthNet.uav[93] utilizationSecCharge 105410
scalar OsgEarthNet.uav[93] utilizationSecIdle 124762.018
scalar OsgEarthNet.uav[93] utilizationEnergyMission 84661.114902496
scalar OsgEarthNet.uav[93] utilizationEnergyMaintenance 56054.037851074
scalar OsgEarthNet.uav[93] utilizationEnergyCharge 135902.10351562
scalar OsgEarthNet.uav[93] utilizationEnergyOverdrawMission 0
scalar OsgEarthNet.uav[93] utilizationEnergyOverdrawMaintenance 0
scalar OsgEarthNet.uav[93] utilizationCountMissions 31
scalar OsgEarthNet.uav[93] utilizationCountManeuversMission 604
scalar OsgEarthNet.uav[93] utilizationCountManeuversMaintenance 62
scalar OsgEarthNet.uav[93] utilizationCountChargeState 30
scalar OsgEarthNet.uav[93] utilizationCountOverdrawnAfterMission 0
scalar OsgEarthNet.uav[93] utilizationCountIdleState 31
scalar OsgEarthNet.uav[93] utilizationFail 0
scalar OsgEarthNet.uav[93] simulationTime 259200
scalar OsgEarthNet.uav[94] utilizationSecMission 20372.137675893
scalar OsgEarthNet.uav[94] utilizationSecMaintenance 13255.560422942
scalar OsgEarthNet.uav[94] utilizationSecCharge 129420
scalar OsgEarthNet.uav[94] utilizationSecIdle 96152.300901165
scalar OsgEarthNet.uav[94] utilizationEnergyMission 100032.62510681
scalar OsgEarthNet.uav[94] utilizationEnergyMaintenance 62392.152099609
scalar OsgEarthNet.uav[94] utilizationEnergyCharge 163098.41552734
scalar OsgEarthNet.uav[94] utilizationEnergyOverdrawMission 0
scalar OsgEarthNet.uav[94] utilizationEnergyOverdrawMaintenance 0
scalar OsgEarthNet.uav[94] utilizationCountMissions 39
scalar OsgEarthNet.uav[94] utilizationCountManeuversMission 677
scalar OsgEarthNet.uav[94] utilizationCountManeuversMaintenance 78
scalar OsgEarthNet.uav[94] utilizationCountChargeState 39
scalar OsgEarthNet.uav[94] utilizationCountOverdrawnAfterMission 0
scalar OsgEarthNet.uav[94] utilizationCountIdleState 40
scalar OsgEarthNet.uav[94] utilizationFail 0
scalar OsgEarthNet.uav[94] simulationTime 259200
scalar OsgEarthNet.uav[95] utilizationSecMission 42170.12044812
scalar OsgEarthNet.uav[95] utilizationSecMaintenance 16811.648537632
scalar OsgEarthNet.uav[95] utilizationSecCharge 196568.59893358
scalar OsgEarthNet.uav[95] utilizationSecIdle 3649.6310806652
scalar OsgEarthNet.uav[95] utilizationEnergyMission 203062.67602158
scalar OsgEarthNet.uav[95] utilizationEnergyMaintenance 77178.148124695
scalar OsgEarthNet.uav[95] utilizationEnergyCharge 276611.82128906
scalar OsgEarthNet.uav[95] utilizationEnergyOverdrawMission 0
scalar OsgEarthNet.uav[95] utilizationEnergyOverdrawMaintenance 0
scalar OsgEarthNet.uav[95] utilizationCountMissions 60
scalar OsgEarthNet.uav[95] utilizationCountManeuversMission 1150
scalar OsgEarthNet.uav[95] utilizationCountManeuversMaintenance 120
scalar OsgEarthNet.uav[95] utilizationCountChargeState 60
scalar OsgEarthNet.uav[95] utilizationCountOverdrawnAfterMission 0
scalar OsgEarthNet.uav[95] utilizationCountIdleState 12
scalar OsgEarthNet.uav[95] utilizationFail 0
scalar OsgEarthNet.uav[95] simulationTime 259200
scalar OsgEarthNet.uav[96] utilizationSecMission 22042.118406735
scalar OsgEarthNet.uav[96] utilizationSecMaintenance 12682.31072956
scalar OsgEarthNet.uav[96] utilizationSecCharge 129663.56986371
scalar OsgEarthNet.uav[96] utilizationSecIdle 94812
scalar OsgEarthNet.uav[96] utilizationEnergyMission 106974.97999954
scalar OsgEarthNet.uav[96] utilizationEnergyMaintenance 60236.473567962
scalar OsgEarthNet.uav[96] utilizationEnergyCharge 167274.62792969
scalar OsgEarthNet.uav[96] utilizationEnergyOverdrawMission 0
scalar OsgEarthNet.uav[96] utilizationEnergyOverdrawMaintenance 0
scalar OsgEarthNet.uav[96] utilizationCountMissions 37
scalar OsgEarthNet.uav[96] utilizationCountManeuversMission 666
scalar OsgEarthNet.uav[96] utilizationCountManeuversMaintenance 73
scalar OsgEarthNet.uav[96] utilizationCountChargeState 37
scalar OsgEarthNet.uav[96] utilizationCountOverdrawnAfterMission 0
scalar OsgEarthNet.uav[96] utilizationCountIdleState 37
scalar OsgEarthNet.uav[96] utilizationFail 0
scalar OsgEarthNet.uav[96] simulationTime 259200
scalar OsgEarthNet.uav[97] utilizationSecMission 20546.944083258
scalar OsgEarthNet.uav[97] utilizationSecMaintenance 14190.710648118
scalar OsgEarthNet.uav[97] utilizationSecCharge 135010
scalar OsgEarthNet.uav[97] utilizationSecIdle 89452.344268624
scalar OsgEarthNet.uav[97] utilizationEnergyMission 102404.35190964
scalar OsgEarthNet.uav[97] utilizationEnergyMaintenance 67437.61939621
scalar OsgEarthNet.uav[97] utilizationEnergyCharge 171068.25317383
scalar OsgEarthNet.uav[97] utilizationEnergyOverdrawMission 0
scalar OsgEarthNet.uav[97] utilizationEnergyOverdrawMaintenance 0
scalar OsgEarthNet.uav[97] utilizationCountMissions 40
scalar OsgEarthNet.uav[97] utilizationCountManeuversMission 782
scalar OsgEarthNet.uav[97] utilizationCountManeuversMaintenance 80
scalar OsgEarthNet.uav[97] utilizationCountChargeState 40
scalar OsgEarthNet.uav[97] utilizationCountOverdrawnAfterMission 0
scalar OsgEarthNet.uav[97] utilizationCountIdleState 41
scalar OsgEarthNet.uav[97] utilizationFail 0
scalar OsgEarthNet.uav[97] simulationTime 259200
scalar OsgEarthNet.cs[0] usedPower 3981995.5134034
scalar OsgEarthNet.cs[0] chargedPower 3981995.5134034
scalar OsgEarthNet.cs[0] chargedMobileNodes 875
scalar OsgEarthNet.cs[0] reservations 888
scalar OsgEarthNet.cs[1] usedPower 4164088.8992868
scalar OsgEarthNet.cs[1] chargedPower 4164088.8992868
scalar OsgEarthNet.cs[1] chargedMobileNodes 1037
scalar OsgEarthNet.cs[1] reservations 1051
scalar OsgEarthNet.cs[2] usedPower 8678405.4932503
scalar OsgEarthNet.cs[2] chargedPower 8678405.4932503
scalar OsgEarthNet.cs[2] chargedMobileNodes 272
scalar OsgEarthNet.cs[2] reservations 1897

