version 2
run Szenario_Hotel_Gabelbach-250-20180719-10:11:15-11996
attr configname Szenario_Hotel_Gabelbach
attr datetime 20180719-10:11:15
attr experiment Szenario_Hotel_Gabelbach
attr inifile omnetpp.ini
attr iterationvars "$replM=2, $biWeight=0.35, $replSearchM=1, $numUAVs=70"
attr iterationvarsf replM=2,biWeight=0.35,replSearchM=1,numUAVs=70-
attr measurement "$replM=2, $biWeight=0.35, $replSearchM=1, $numUAVs=70"
attr network OsgEarthNet
attr processid 11996
attr repetition 10
attr replication #10
attr resultdir results
attr runnumber 250
attr seedset 250
itervar biWeight 0.35
itervar numUAVs 70
itervar replM 2
itervar replSearchM 1
param *.osgEarthScene.scene "\"Szenario_Hotel_Gabelbach.earth\""
param *.playgroundLatitude 50.6830269
param *.playgroundLongitude 10.8538055
param *.playgroundWidth 3500m
param *.playgroundHeight 3500m
param *.cs[0].posX 3537m
param *.cs[0].posY 965m
param *.cs[0].posZ 538m
param *.cs[1].posX 312m
param *.cs[1].posY 1262m
param *.cs[1].posZ 539m
param *.cs[2].posX 2185m
param *.cs[2].posY 3026m
param *.cs[2].posZ 777m
param *.cs[3].posX 10m
param *.cs[3].posY 2200m
param *.cs[3].posZ 560m
param *.cs[4].posX 750m
param *.cs[4].posY 200m
param *.cs[4].posZ 540m
param *.cs[5].posX 2450m
param *.cs[5].posY 180m
param *.cs[5].posZ 524m
param *.cs[6].posX 3140m
param *.cs[6].posY 1790m
param *.cs[6].posZ 606m
param *.numCSs 3
param *.uav[*].replacementMethod 2
param *.uav[*].weightedSumWeight 0.35
param *.missionControl.replacementSearchMethod 1
param *.numUAVs 70
param *.*.timeStep 10s
param *.uav[*].commandPreviewCommandCount 20
param *.missionControl.missionFiles "\"missions\\\\Szenario_WB_Hotel_Gabelbach_Mission_Hotel.waypoints,missions\\\\Szenario_WB_Hotel_Gabelbach_Mission_Kickelhahn.waypoints,missions\\\\Szenario_WB_Hotel_Gabelbach_Mission_Ilmenau_Sportplatz.waypoints,missions\\\\Szenario_WB_Hotel_Gabelbach_Mission_Manebach_Mitte.waypoints,missions\\\\Szenario_WB_Hotel_Gabelbach_Mission_Manebach_Sued.waypoints,missions\\\\Szenario_WB_Hotel_Gabelbach_Hover_HoheSchlaufe.waypoints,missions\\\\Szenario_WB_Hotel_Gabelbach_Hover_Kickelhahn.waypoints,missions\\\\Szenario_WB_Hotel_Gabelbach_Hover_Gabelbachskopf.waypoints,missions\\\\Szenario_WB_Hotel_Gabelbach_Hover_Dachskopf.waypoints\""
param *.uav[0].startX 3537m
param *.uav[0].startY 965m
param *.uav[0].startZ 539m
param *.uav[1].startX 312m
param *.uav[1].startY 1262m
param *.uav[1].startZ 540m
param *.uav[2].startX 2185m
param *.uav[2].startY 3026m
param *.uav[2].startZ 778m
param *.uav[3].startX 3537m
param *.uav[3].startY 965m
param *.uav[3].startZ 539m
param *.uav[4].startX 312m
param *.uav[4].startY 1262m
param *.uav[4].startZ 540m
param *.uav[5].startX 2185m
param *.uav[5].startY 3026m
param *.uav[5].startZ 778m
param *.uav[6].startX 3537m
param *.uav[6].startY 965m
param *.uav[6].startZ 539m
param *.uav[7].startX 312m
param *.uav[7].startY 1262m
param *.uav[7].startZ 540m
param *.uav[8].startX 2185m
param *.uav[8].startY 3026m
param *.uav[8].startZ 778m
param *.uav[9].startX 3537m
param *.uav[9].startY 965m
param *.uav[9].startZ 539m
param *.uav[10].startX 3537m
param *.uav[10].startY 965m
param *.uav[10].startZ 539m
param *.uav[11].startX 312m
param *.uav[11].startY 1262m
param *.uav[11].startZ 540m
param *.uav[12].startX 2185m
param *.uav[12].startY 3026m
param *.uav[12].startZ 778m
param *.uav[13].startX 3537m
param *.uav[13].startY 965m
param *.uav[13].startZ 539m
param *.uav[14].startX 312m
param *.uav[14].startY 1262m
param *.uav[14].startZ 540m
param *.uav[15].startX 2185m
param *.uav[15].startY 3026m
param *.uav[15].startZ 778m
param *.uav[16].startX 3537m
param *.uav[16].startY 965m
param *.uav[16].startZ 539m
param *.uav[17].startX 312m
param *.uav[17].startY 1262m
param *.uav[17].startZ 540m
param *.uav[18].startX 2185m
param *.uav[18].startY 3026m
param *.uav[18].startZ 778m
param *.uav[19].startX 3537m
param *.uav[19].startY 965m
param *.uav[19].startZ 539m
param *.uav[20].startX 3537m
param *.uav[20].startY 965m
param *.uav[20].startZ 539m
param *.uav[21].startX 312m
param *.uav[21].startY 1262m
param *.uav[21].startZ 540m
param *.uav[22].startX 2185m
param *.uav[22].startY 3026m
param *.uav[22].startZ 778m
param *.uav[23].startX 3537m
param *.uav[23].startY 965m
param *.uav[23].startZ 539m
param *.uav[24].startX 312m
param *.uav[24].startY 1262m
param *.uav[24].startZ 540m
param *.uav[25].startX 2185m
param *.uav[25].startY 3026m
param *.uav[25].startZ 778m
param *.uav[26].startX 3537m
param *.uav[26].startY 965m
param *.uav[26].startZ 539m
param *.uav[27].startX 312m
param *.uav[27].startY 1262m
param *.uav[27].startZ 540m
param *.uav[28].startX 2185m
param *.uav[28].startY 3026m
param *.uav[28].startZ 778m
param *.uav[29].startX 3537m
param *.uav[29].startY 965m
param *.uav[29].startZ 539m
param *.uav[30].startX 3537m
param *.uav[30].startY 965m
param *.uav[30].startZ 539m
param *.uav[31].startX 312m
param *.uav[31].startY 1262m
param *.uav[31].startZ 540m
param *.uav[32].startX 2185m
param *.uav[32].startY 3026m
param *.uav[32].startZ 778m
param *.uav[33].startX 3537m
param *.uav[33].startY 965m
param *.uav[33].startZ 539m
param *.uav[34].startX 312m
param *.uav[34].startY 1262m
param *.uav[34].startZ 540m
param *.uav[35].startX 2185m
param *.uav[35].startY 3026m
param *.uav[35].startZ 778m
param *.uav[36].startX 3537m
param *.uav[36].startY 965m
param *.uav[36].startZ 539m
param *.uav[37].startX 312m
param *.uav[37].startY 1262m
param *.uav[37].startZ 540m
param *.uav[38].startX 2185m
param *.uav[38].startY 3026m
param *.uav[38].startZ 778m
param *.uav[39].startX 3537m
param *.uav[39].startY 965m
param *.uav[39].startZ 539m
param *.uav[40].startX 3537m
param *.uav[40].startY 965m
param *.uav[40].startZ 539m
param *.uav[41].startX 312m
param *.uav[41].startY 1262m
param *.uav[41].startZ 540m
param *.uav[42].startX 2185m
param *.uav[42].startY 3026m
param *.uav[42].startZ 778m
param *.uav[43].startX 3537m
param *.uav[43].startY 965m
param *.uav[43].startZ 539m
param *.uav[44].startX 312m
param *.uav[44].startY 1262m
param *.uav[44].startZ 540m
param *.uav[45].startX 2185m
param *.uav[45].startY 3026m
param *.uav[45].startZ 778m
param *.uav[46].startX 3537m
param *.uav[46].startY 965m
param *.uav[46].startZ 539m
param *.uav[47].startX 312m
param *.uav[47].startY 1262m
param *.uav[47].startZ 540m
param *.uav[48].startX 2185m
param *.uav[48].startY 3026m
param *.uav[48].startZ 778m
param *.uav[49].startX 3537m
param *.uav[49].startY 965m
param *.uav[49].startZ 539m
param *.uav[50].startX 3537m
param *.uav[50].startY 965m
param *.uav[50].startZ 539m
param *.uav[51].startX 312m
param *.uav[51].startY 1262m
param *.uav[51].startZ 540m
param *.uav[52].startX 2185m
param *.uav[52].startY 3026m
param *.uav[52].startZ 778m
param *.uav[53].startX 3537m
param *.uav[53].startY 965m
param *.uav[53].startZ 539m
param *.uav[54].startX 312m
param *.uav[54].startY 1262m
param *.uav[54].startZ 540m
param *.uav[55].startX 2185m
param *.uav[55].startY 3026m
param *.uav[55].startZ 778m
param *.uav[56].startX 3537m
param *.uav[56].startY 965m
param *.uav[56].startZ 539m
param *.uav[57].startX 312m
param *.uav[57].startY 1262m
param *.uav[57].startZ 540m
param *.uav[58].startX 2185m
param *.uav[58].startY 3026m
param *.uav[58].startZ 778m
param *.uav[59].startX 3537m
param *.uav[59].startY 965m
param *.uav[59].startZ 539m
param *.uav[60].startX 3537m
param *.uav[60].startY 965m
param *.uav[60].startZ 539m
param *.uav[61].startX 312m
param *.uav[61].startY 1262m
param *.uav[61].startZ 540m
param *.uav[62].startX 2185m
param *.uav[62].startY 3026m
param *.uav[62].startZ 778m
param *.uav[63].startX 3537m
param *.uav[63].startY 965m
param *.uav[63].startZ 539m
param *.uav[64].startX 312m
param *.uav[64].startY 1262m
param *.uav[64].startZ 540m
param *.uav[65].startX 2185m
param *.uav[65].startY 3026m
param *.uav[65].startZ 778m
param *.uav[66].startX 3537m
param *.uav[66].startY 965m
param *.uav[66].startZ 539m
param *.uav[67].startX 312m
param *.uav[67].startY 1262m
param *.uav[67].startZ 540m
param *.uav[68].startX 2185m
param *.uav[68].startY 3026m
param *.uav[68].startZ 778m
param *.uav[69].startX 3537m
param *.uav[69].startY 965m
param *.uav[69].startZ 539m
param *.uav[70].startX 3537m
param *.uav[70].startY 965m
param *.uav[70].startZ 539m
param *.uav[71].startX 312m
param *.uav[71].startY 1262m
param *.uav[71].startZ 540m
param *.uav[72].startX 2185m
param *.uav[72].startY 3026m
param *.uav[72].startZ 778m
param *.uav[73].startX 3537m
param *.uav[73].startY 965m
param *.uav[73].startZ 539m
param *.uav[74].startX 312m
param *.uav[74].startY 1262m
param *.uav[74].startZ 540m
param *.uav[75].startX 2185m
param *.uav[75].startY 3026m
param *.uav[75].startZ 778m
param *.uav[76].startX 3537m
param *.uav[76].startY 965m
param *.uav[76].startZ 539m
param *.uav[77].startX 312m
param *.uav[77].startY 1262m
param *.uav[77].startZ 540m
param *.uav[78].startX 2185m
param *.uav[78].startY 3026m
param *.uav[78].startZ 778m
param *.uav[79].startX 3537m
param *.uav[79].startY 965m
param *.uav[79].startZ 539m
param *.uav[80].startX 3537m
param *.uav[80].startY 965m
param *.uav[80].startZ 539m
param *.uav[81].startX 312m
param *.uav[81].startY 1262m
param *.uav[81].startZ 540m
param *.uav[82].startX 2185m
param *.uav[82].startY 3026m
param *.uav[82].startZ 778m
param *.uav[83].startX 3537m
param *.uav[83].startY 965m
param *.uav[83].startZ 539m
param *.uav[84].startX 312m
param *.uav[84].startY 1262m
param *.uav[84].startZ 540m
param *.uav[85].startX 2185m
param *.uav[85].startY 3026m
param *.uav[85].startZ 778m
param *.uav[86].startX 3537m
param *.uav[86].startY 965m
param *.uav[86].startZ 539m
param *.uav[87].startX 312m
param *.uav[87].startY 1262m
param *.uav[87].startZ 540m
param *.uav[88].startX 2185m
param *.uav[88].startY 3026m
param *.uav[88].startZ 778m
param *.uav[89].startX 3537m
param *.uav[89].startY 965m
param *.uav[89].startZ 539m
param *.uav[90].startX 3537m
param *.uav[90].startY 965m
param *.uav[90].startZ 539m
param *.uav[91].startX 312m
param *.uav[91].startY 1262m
param *.uav[91].startZ 540m
param *.uav[92].startX 2185m
param *.uav[92].startY 3026m
param *.uav[92].startZ 778m
param *.uav[93].startX 3537m
param *.uav[93].startY 965m
param *.uav[93].startZ 539m
param *.uav[94].startX 312m
param *.uav[94].startY 1262m
param *.uav[94].startZ 540m
param *.uav[95].startX 2185m
param *.uav[95].startY 3026m
param *.uav[95].startZ 778m
param *.uav[96].startX 3537m
param *.uav[96].startY 965m
param *.uav[96].startZ 539m
param *.uav[97].startX 312m
param *.uav[97].startY 1262m
param *.uav[97].startZ 540m
param *.uav[98].startX 2185m
param *.uav[98].startY 3026m
param *.uav[98].startZ 778m
param *.uav[99].startX 3537m
param *.uav[99].startY 965m
param *.uav[99].startZ 539m
param *.osgEarthScene.scene "\"boston.earth\""
param *.playgroundLatitude 42.3558
param *.playgroundLongitude -71.0677
param *.playgroundWidth 400m
param *.playgroundHeight 200m
param *.channelController.connectionColor "\"#0000FF40\""
param *.channelController.showConnections false
param *.uav[*].modelURL "\"quadrocopter.small.obj.15.scale.0,0,90.rot\""
param *.uav[*].labelColor "\"#FF7C00CC\""
param *.uav[*].label2Color "\"#FF7C00EE\""
param *.uav[*].batteryCapacity 5200mAh
param *.uav[*].batteryRemaining uav[index].batteryCapacity
param *.uav[*].predictionQuantile 0.95
param *.uav[*].replacementMethod 2
param *.uav[*].weightedSumWeight 0.5
param *.cs[*].modelURL "\"chargingstation_v1.osgt.2.scale.0,0,0.rot.0,0,-15e-1.trans\""
param *.cs[*].spotsWaiting 999
param *.cs[*].spotsCharging 999
param *.cs[*].chargeEffectivenessPercentage 100
param *.cs[*].nonLinearPhaseStartPercentage 85
param *.cs[*].chargeCurrent 6.0A
param *.cs[*].prioritizeFastCharge true
param *.missionControl.replacementSearchMethod 0
param *.*.timeStep 9s

scalar OsgEarthNet.uav[0] utilizationSecMission 30259.238941254
scalar OsgEarthNet.uav[0] utilizationSecMaintenance 16395.489476033
scalar OsgEarthNet.uav[0] utilizationSecCharge 175300
scalar OsgEarthNet.uav[0] utilizationSecIdle 37245.270582712
scalar OsgEarthNet.uav[0] utilizationEnergyMission 145535.97032188
scalar OsgEarthNet.uav[0] utilizationEnergyMaintenance 76571.2069664
scalar OsgEarthNet.uav[0] utilizationEnergyCharge 222319.76733398
scalar OsgEarthNet.uav[0] utilizationEnergyOverdrawMission 0
scalar OsgEarthNet.uav[0] utilizationEnergyOverdrawMaintenance 0
scalar OsgEarthNet.uav[0] utilizationCountMissions 52
scalar OsgEarthNet.uav[0] utilizationCountManeuversMission 906
scalar OsgEarthNet.uav[0] utilizationCountManeuversMaintenance 105
scalar OsgEarthNet.uav[0] utilizationCountChargeState 52
scalar OsgEarthNet.uav[0] utilizationCountOverdrawnAfterMission 0
scalar OsgEarthNet.uav[0] utilizationCountIdleState 53
scalar OsgEarthNet.uav[0] utilizationFail 0
scalar OsgEarthNet.uav[0] simulationTime 259200
scalar OsgEarthNet.uav[1] utilizationSecMission 31163.416801227
scalar OsgEarthNet.uav[1] utilizationSecMaintenance 17497.79400482
scalar OsgEarthNet.uav[1] utilizationSecCharge 186106.78668723
scalar OsgEarthNet.uav[1] utilizationSecIdle 24432.001506722
scalar OsgEarthNet.uav[1] utilizationEnergyMission 149965.63981247
scalar OsgEarthNet.uav[1] utilizationEnergyMaintenance 82296.08020401
scalar OsgEarthNet.uav[1] utilizationEnergyCharge 231762.98461914
scalar OsgEarthNet.uav[1] utilizationEnergyOverdrawMission 0
scalar OsgEarthNet.uav[1] utilizationEnergyOverdrawMaintenance 0
scalar OsgEarthNet.uav[1] utilizationCountMissions 58
scalar OsgEarthNet.uav[1] utilizationCountManeuversMission 822
scalar OsgEarthNet.uav[1] utilizationCountManeuversMaintenance 116
scalar OsgEarthNet.uav[1] utilizationCountChargeState 58
scalar OsgEarthNet.uav[1] utilizationCountOverdrawnAfterMission 0
scalar OsgEarthNet.uav[1] utilizationCountIdleState 56
scalar OsgEarthNet.uav[1] utilizationFail 0
scalar OsgEarthNet.uav[1] simulationTime 259200
scalar OsgEarthNet.uav[2] utilizationSecMission 35133.203457898
scalar OsgEarthNet.uav[2] utilizationSecMaintenance 13884.794542102
scalar OsgEarthNet.uav[2] utilizationSecCharge 177940
scalar OsgEarthNet.uav[2] utilizationSecIdle 32242.001
scalar OsgEarthNet.uav[2] utilizationEnergyMission 169889.98639736
scalar OsgEarthNet.uav[2] utilizationEnergyMaintenance 63667.156700134
scalar OsgEarthNet.uav[2] utilizationEnergyCharge 230996.28564453
scalar OsgEarthNet.uav[2] utilizationEnergyOverdrawMission 0
scalar OsgEarthNet.uav[2] utilizationEnergyOverdrawMaintenance 0
scalar OsgEarthNet.uav[2] utilizationCountMissions 50
scalar OsgEarthNet.uav[2] utilizationCountManeuversMission 1048
scalar OsgEarthNet.uav[2] utilizationCountManeuversMaintenance 101
scalar OsgEarthNet.uav[2] utilizationCountChargeState 50
scalar OsgEarthNet.uav[2] utilizationCountOverdrawnAfterMission 0
scalar OsgEarthNet.uav[2] utilizationCountIdleState 50
scalar OsgEarthNet.uav[2] utilizationFail 0
scalar OsgEarthNet.uav[2] simulationTime 259200
scalar OsgEarthNet.uav[3] utilizationSecMission 33625.261700677
scalar OsgEarthNet.uav[3] utilizationSecMaintenance 20164.628500693
scalar OsgEarthNet.uav[3] utilizationSecCharge 194788.10479863
scalar OsgEarthNet.uav[3] utilizationSecIdle 10622.004
scalar OsgEarthNet.uav[3] utilizationEnergyMission 162767.57078171
scalar OsgEarthNet.uav[3] utilizationEnergyMaintenance 95236.945121765
scalar OsgEarthNet.uav[3] utilizationEnergyCharge 258407.03125
scalar OsgEarthNet.uav[3] utilizationEnergyOverdrawMission 0
scalar OsgEarthNet.uav[3] utilizationEnergyOverdrawMaintenance 0
scalar OsgEarthNet.uav[3] utilizationCountMissions 57
scalar OsgEarthNet.uav[3] utilizationCountManeuversMission 1052
scalar OsgEarthNet.uav[3] utilizationCountManeuversMaintenance 114
scalar OsgEarthNet.uav[3] utilizationCountChargeState 57
scalar OsgEarthNet.uav[3] utilizationCountOverdrawnAfterMission 0
scalar OsgEarthNet.uav[3] utilizationCountIdleState 32
scalar OsgEarthNet.uav[3] utilizationFail 0
scalar OsgEarthNet.uav[3] simulationTime 259200
scalar OsgEarthNet.uav[4] utilizationSecMission 30524.923584264
scalar OsgEarthNet.uav[4] utilizationSecMaintenance 18529.394114002
scalar OsgEarthNet.uav[4] utilizationSecCharge 186953.67830173
scalar OsgEarthNet.uav[4] utilizationSecIdle 23192.003
scalar OsgEarthNet.uav[4] utilizationEnergyMission 148116.10755157
scalar OsgEarthNet.uav[4] utilizationEnergyMaintenance 87993.136375427
scalar OsgEarthNet.uav[4] utilizationEnergyCharge 235776.90722656
scalar OsgEarthNet.uav[4] utilizationEnergyOverdrawMission 0
scalar OsgEarthNet.uav[4] utilizationEnergyOverdrawMaintenance 0
scalar OsgEarthNet.uav[4] utilizationCountMissions 58
scalar OsgEarthNet.uav[4] utilizationCountManeuversMission 960
scalar OsgEarthNet.uav[4] utilizationCountManeuversMaintenance 116
scalar OsgEarthNet.uav[4] utilizationCountChargeState 58
scalar OsgEarthNet.uav[4] utilizationCountOverdrawnAfterMission 0
scalar OsgEarthNet.uav[4] utilizationCountIdleState 56
scalar OsgEarthNet.uav[4] utilizationFail 0
scalar OsgEarthNet.uav[4] simulationTime 259200
scalar OsgEarthNet.uav[5] utilizationSecMission 34727.420214679
scalar OsgEarthNet.uav[5] utilizationSecMaintenance 14028.844478406
scalar OsgEarthNet.uav[5] utilizationSecCharge 180911.73430692
scalar OsgEarthNet.uav[5] utilizationSecIdle 29532
scalar OsgEarthNet.uav[5] utilizationEnergyMission 168105.35248475
scalar OsgEarthNet.uav[5] utilizationEnergyMaintenance 65490.134494782
scalar OsgEarthNet.uav[5] utilizationEnergyCharge 236316.40771484
scalar OsgEarthNet.uav[5] utilizationEnergyOverdrawMission 0
scalar OsgEarthNet.uav[5] utilizationEnergyOverdrawMaintenance 0
scalar OsgEarthNet.uav[5] utilizationCountMissions 51
scalar OsgEarthNet.uav[5] utilizationCountManeuversMission 1147
scalar OsgEarthNet.uav[5] utilizationCountManeuversMaintenance 101
scalar OsgEarthNet.uav[5] utilizationCountChargeState 51
scalar OsgEarthNet.uav[5] utilizationCountOverdrawnAfterMission 0
scalar OsgEarthNet.uav[5] utilizationCountIdleState 50
scalar OsgEarthNet.uav[5] utilizationFail 0
scalar OsgEarthNet.uav[5] simulationTime 259200
scalar OsgEarthNet.uav[6] utilizationSecMission 32885.071030153
scalar OsgEarthNet.uav[6] utilizationSecMaintenance 21262.301809057
scalar OsgEarthNet.uav[6] utilizationSecCharge 194160
scalar OsgEarthNet.uav[6] utilizationSecIdle 10892.626160789
scalar OsgEarthNet.uav[6] utilizationEnergyMission 160850.1491394
scalar OsgEarthNet.uav[6] utilizationEnergyMaintenance 100421.24159645
scalar OsgEarthNet.uav[6] utilizationEnergyCharge 257797.66113281
scalar OsgEarthNet.uav[6] utilizationEnergyOverdrawMission 0
scalar OsgEarthNet.uav[6] utilizationEnergyOverdrawMaintenance 0
scalar OsgEarthNet.uav[6] utilizationCountMissions 58
scalar OsgEarthNet.uav[6] utilizationCountManeuversMission 1109
scalar OsgEarthNet.uav[6] utilizationCountManeuversMaintenance 116
scalar OsgEarthNet.uav[6] utilizationCountChargeState 57
scalar OsgEarthNet.uav[6] utilizationCountOverdrawnAfterMission 0
scalar OsgEarthNet.uav[6] utilizationCountIdleState 29
scalar OsgEarthNet.uav[6] utilizationFail 0
scalar OsgEarthNet.uav[6] simulationTime 259200
scalar OsgEarthNet.uav[7] utilizationSecMission 30807.135468226
scalar OsgEarthNet.uav[7] utilizationSecMaintenance 18071.517057589
scalar OsgEarthNet.uav[7] utilizationSecCharge 185780.38248851
scalar OsgEarthNet.uav[7] utilizationSecIdle 24540.963985674
scalar OsgEarthNet.uav[7] utilizationEnergyMission 147915.61301041
scalar OsgEarthNet.uav[7] utilizationEnergyMaintenance 86685.777877808
scalar OsgEarthNet.uav[7] utilizationEnergyCharge 232119.47973633
scalar OsgEarthNet.uav[7] utilizationEnergyOverdrawMission 0
scalar OsgEarthNet.uav[7] utilizationEnergyOverdrawMaintenance 0
scalar OsgEarthNet.uav[7] utilizationCountMissions 59
scalar OsgEarthNet.uav[7] utilizationCountManeuversMission 886
scalar OsgEarthNet.uav[7] utilizationCountManeuversMaintenance 118
scalar OsgEarthNet.uav[7] utilizationCountChargeState 59
scalar OsgEarthNet.uav[7] utilizationCountOverdrawnAfterMission 0
scalar OsgEarthNet.uav[7] utilizationCountIdleState 57
scalar OsgEarthNet.uav[7] utilizationFail 0
scalar OsgEarthNet.uav[7] simulationTime 259200
scalar OsgEarthNet.uav[8] utilizationSecMission 34784.317259323
scalar OsgEarthNet.uav[8] utilizationSecMaintenance 14443.678740677
scalar OsgEarthNet.uav[8] utilizationSecCharge 177660
scalar OsgEarthNet.uav[8] utilizationSecIdle 32312.003
scalar OsgEarthNet.uav[8] utilizationEnergyMission 169534.70352554
scalar OsgEarthNet.uav[8] utilizationEnergyMaintenance 66101.402802045
scalar OsgEarthNet.uav[8] utilizationEnergyCharge 230765.79394531
scalar OsgEarthNet.uav[8] utilizationEnergyOverdrawMission 0
scalar OsgEarthNet.uav[8] utilizationEnergyOverdrawMaintenance 0
scalar OsgEarthNet.uav[8] utilizationCountMissions 51
scalar OsgEarthNet.uav[8] utilizationCountManeuversMission 1081
scalar OsgEarthNet.uav[8] utilizationCountManeuversMaintenance 102
scalar OsgEarthNet.uav[8] utilizationCountChargeState 50
scalar OsgEarthNet.uav[8] utilizationCountOverdrawnAfterMission 0
scalar OsgEarthNet.uav[8] utilizationCountIdleState 50
scalar OsgEarthNet.uav[8] utilizationFail 0
scalar OsgEarthNet.uav[8] simulationTime 259200
scalar OsgEarthNet.uav[9] utilizationSecMission 33876.144892008
scalar OsgEarthNet.uav[9] utilizationSecMaintenance 19954.658306191
scalar OsgEarthNet.uav[9] utilizationSecCharge 192387.1898018
scalar OsgEarthNet.uav[9] utilizationSecIdle 12982.006
scalar OsgEarthNet.uav[9] utilizationEnergyMission 163144.47319794
scalar OsgEarthNet.uav[9] utilizationEnergyMaintenance 94354.945140838
scalar OsgEarthNet.uav[9] utilizationEnergyCharge 255213.37768555
scalar OsgEarthNet.uav[9] utilizationEnergyOverdrawMission 0
scalar OsgEarthNet.uav[9] utilizationEnergyOverdrawMaintenance 0
scalar OsgEarthNet.uav[9] utilizationCountMissions 57
scalar OsgEarthNet.uav[9] utilizationCountManeuversMission 1034
scalar OsgEarthNet.uav[9] utilizationCountManeuversMaintenance 114
scalar OsgEarthNet.uav[9] utilizationCountChargeState 57
scalar OsgEarthNet.uav[9] utilizationCountOverdrawnAfterMission 0
scalar OsgEarthNet.uav[9] utilizationCountIdleState 34
scalar OsgEarthNet.uav[9] utilizationFail 0
scalar OsgEarthNet.uav[9] simulationTime 259200
scalar OsgEarthNet.uav[10] utilizationSecMission 29793.795583746
scalar OsgEarthNet.uav[10] utilizationSecMaintenance 18054.191416254
scalar OsgEarthNet.uav[10] utilizationSecCharge 181490
scalar OsgEarthNet.uav[10] utilizationSecIdle 29862.012
scalar OsgEarthNet.uav[10] utilizationEnergyMission 142410.94764992
scalar OsgEarthNet.uav[10] utilizationEnergyMaintenance 85724.662353516
scalar OsgEarthNet.uav[10] utilizationEnergyCharge 226647.95483398
scalar OsgEarthNet.uav[10] utilizationEnergyOverdrawMission 0
scalar OsgEarthNet.uav[10] utilizationEnergyOverdrawMaintenance 0
scalar OsgEarthNet.uav[10] utilizationCountMissions 56
scalar OsgEarthNet.uav[10] utilizationCountManeuversMission 934
scalar OsgEarthNet.uav[10] utilizationCountManeuversMaintenance 113
scalar OsgEarthNet.uav[10] utilizationCountChargeState 56
scalar OsgEarthNet.uav[10] utilizationCountOverdrawnAfterMission 0
scalar OsgEarthNet.uav[10] utilizationCountIdleState 53
scalar OsgEarthNet.uav[10] utilizationFail 0
scalar OsgEarthNet.uav[10] simulationTime 259200
scalar OsgEarthNet.uav[11] utilizationSecMission 30527.837538598
scalar OsgEarthNet.uav[11] utilizationSecMaintenance 18002.451374147
scalar OsgEarthNet.uav[11] utilizationSecCharge 184676.04190927
scalar OsgEarthNet.uav[11] utilizationSecIdle 25993.668177988
scalar OsgEarthNet.uav[11] utilizationEnergyMission 146165.34749985
scalar OsgEarthNet.uav[11] utilizationEnergyMaintenance 86094.435733795
scalar OsgEarthNet.uav[11] utilizationEnergyCharge 231090.55981445
scalar OsgEarthNet.uav[11] utilizationEnergyOverdrawMission 0
scalar OsgEarthNet.uav[11] utilizationEnergyOverdrawMaintenance 0
scalar OsgEarthNet.uav[11] utilizationCountMissions 58
scalar OsgEarthNet.uav[11] utilizationCountManeuversMission 924
scalar OsgEarthNet.uav[11] utilizationCountManeuversMaintenance 116
scalar OsgEarthNet.uav[11] utilizationCountChargeState 58
scalar OsgEarthNet.uav[11] utilizationCountOverdrawnAfterMission 0
scalar OsgEarthNet.uav[11] utilizationCountIdleState 55
scalar OsgEarthNet.uav[11] utilizationFail 0
scalar OsgEarthNet.uav[11] simulationTime 259200
scalar OsgEarthNet.uav[12] utilizationSecMission 35643.727630716
scalar OsgEarthNet.uav[12] utilizationSecMaintenance 13755.417795419
scalar OsgEarthNet.uav[12] utilizationSecCharge 180358.85157387
scalar OsgEarthNet.uav[12] utilizationSecIdle 29442.002
scalar OsgEarthNet.uav[12] utilizationEnergyMission 172593.52589035
scalar OsgEarthNet.uav[12] utilizationEnergyMaintenance 63388.586902618
scalar OsgEarthNet.uav[12] utilizationEnergyCharge 234939.32055664
scalar OsgEarthNet.uav[12] utilizationEnergyOverdrawMission 0
scalar OsgEarthNet.uav[12] utilizationEnergyOverdrawMaintenance 0
scalar OsgEarthNet.uav[12] utilizationCountMissions 51
scalar OsgEarthNet.uav[12] utilizationCountManeuversMission 1118
scalar OsgEarthNet.uav[12] utilizationCountManeuversMaintenance 102
scalar OsgEarthNet.uav[12] utilizationCountChargeState 51
scalar OsgEarthNet.uav[12] utilizationCountOverdrawnAfterMission 0
scalar OsgEarthNet.uav[12] utilizationCountIdleState 51
scalar OsgEarthNet.uav[12] utilizationFail 0
scalar OsgEarthNet.uav[12] simulationTime 259200
scalar OsgEarthNet.uav[13] utilizationSecMission 32431.361821524
scalar OsgEarthNet.uav[13] utilizationSecMaintenance 21633.094522507
scalar OsgEarthNet.uav[13] utilizationSecCharge 192783.53365597
scalar OsgEarthNet.uav[13] utilizationSecIdle 12352.009
scalar OsgEarthNet.uav[13] utilizationEnergyMission 158991.6341362
scalar OsgEarthNet.uav[13] utilizationEnergyMaintenance 102349.22131729
scalar OsgEarthNet.uav[13] utilizationEnergyCharge 256629.09173584
scalar OsgEarthNet.uav[13] utilizationEnergyOverdrawMission 0
scalar OsgEarthNet.uav[13] utilizationEnergyOverdrawMaintenance 0
scalar OsgEarthNet.uav[13] utilizationCountMissions 58
scalar OsgEarthNet.uav[13] utilizationCountManeuversMission 1136
scalar OsgEarthNet.uav[13] utilizationCountManeuversMaintenance 116
scalar OsgEarthNet.uav[13] utilizationCountChargeState 58
scalar OsgEarthNet.uav[13] utilizationCountOverdrawnAfterMission 0
scalar OsgEarthNet.uav[13] utilizationCountIdleState 32
scalar OsgEarthNet.uav[13] utilizationFail 0
scalar OsgEarthNet.uav[13] simulationTime 259200
scalar OsgEarthNet.uav[14] utilizationSecMission 34710.577589113
scalar OsgEarthNet.uav[14] utilizationSecMaintenance 13769.897351672
scalar OsgEarthNet.uav[14] utilizationSecCharge 175074.08097052
scalar OsgEarthNet.uav[14] utilizationSecIdle 35645.443088691
scalar OsgEarthNet.uav[14] utilizationEnergyMission 166904.94420242
scalar OsgEarthNet.uav[14] utilizationEnergyMaintenance 64347.762702942
scalar OsgEarthNet.uav[14] utilizationEnergyCharge 227558.54046631
scalar OsgEarthNet.uav[14] utilizationEnergyOverdrawMission 0
scalar OsgEarthNet.uav[14] utilizationEnergyOverdrawMaintenance 0
scalar OsgEarthNet.uav[14] utilizationCountMissions 50
scalar OsgEarthNet.uav[14] utilizationCountManeuversMission 961
scalar OsgEarthNet.uav[14] utilizationCountManeuversMaintenance 100
scalar OsgEarthNet.uav[14] utilizationCountChargeState 50
scalar OsgEarthNet.uav[14] utilizationCountOverdrawnAfterMission 0
scalar OsgEarthNet.uav[14] utilizationCountIdleState 49
scalar OsgEarthNet.uav[14] utilizationFail 0
scalar OsgEarthNet.uav[14] simulationTime 259200
scalar OsgEarthNet.uav[15] utilizationSecMission 35325.82293306
scalar OsgEarthNet.uav[15] utilizationSecMaintenance 13938.601435705
scalar OsgEarthNet.uav[15] utilizationSecCharge 178973.57063123
scalar OsgEarthNet.uav[15] utilizationSecIdle 30962.004
scalar OsgEarthNet.uav[15] utilizationEnergyMission 168795.39156723
scalar OsgEarthNet.uav[15] utilizationEnergyMaintenance 64738.504699707
scalar OsgEarthNet.uav[15] utilizationEnergyCharge 232637.23168945
scalar OsgEarthNet.uav[15] utilizationEnergyOverdrawMission 0
scalar OsgEarthNet.uav[15] utilizationEnergyOverdrawMaintenance 0
scalar OsgEarthNet.uav[15] utilizationCountMissions 51
scalar OsgEarthNet.uav[15] utilizationCountManeuversMission 1108
scalar OsgEarthNet.uav[15] utilizationCountManeuversMaintenance 102
scalar OsgEarthNet.uav[15] utilizationCountChargeState 51
scalar OsgEarthNet.uav[15] utilizationCountOverdrawnAfterMission 0
scalar OsgEarthNet.uav[15] utilizationCountIdleState 51
scalar OsgEarthNet.uav[15] utilizationFail 0
scalar OsgEarthNet.uav[15] simulationTime 259200
scalar OsgEarthNet.uav[16] utilizationSecMission 31739.644296333
scalar OsgEarthNet.uav[16] utilizationSecMaintenance 16728.065082656
scalar OsgEarthNet.uav[16] utilizationSecCharge 182507.42820075
scalar OsgEarthNet.uav[16] utilizationSecIdle 28224.86142026
scalar OsgEarthNet.uav[16] utilizationEnergyMission 149869.76186752
scalar OsgEarthNet.uav[16] utilizationEnergyMaintenance 79050.9139328
scalar OsgEarthNet.uav[16] utilizationEnergyCharge 228707.31079102
scalar OsgEarthNet.uav[16] utilizationEnergyOverdrawMission 0
scalar OsgEarthNet.uav[16] utilizationEnergyOverdrawMaintenance 0
scalar OsgEarthNet.uav[16] utilizationCountMissions 57
scalar OsgEarthNet.uav[16] utilizationCountManeuversMission 834
scalar OsgEarthNet.uav[16] utilizationCountManeuversMaintenance 114
scalar OsgEarthNet.uav[16] utilizationCountChargeState 57
scalar OsgEarthNet.uav[16] utilizationCountOverdrawnAfterMission 0
scalar OsgEarthNet.uav[16] utilizationCountIdleState 55
scalar OsgEarthNet.uav[16] utilizationFail 0
scalar OsgEarthNet.uav[16] simulationTime 259200
scalar OsgEarthNet.uav[17] utilizationSecMission 30499.697629735
scalar OsgEarthNet.uav[17] utilizationSecMaintenance 17929.06333693
scalar OsgEarthNet.uav[17] utilizationSecCharge 184923.9219515
scalar OsgEarthNet.uav[17] utilizationSecIdle 25847.316081831
scalar OsgEarthNet.uav[17] utilizationEnergyMission 146107.22559738
scalar OsgEarthNet.uav[17] utilizationEnergyMaintenance 85326.105148315
scalar OsgEarthNet.uav[17] utilizationEnergyCharge 229592.26855469
scalar OsgEarthNet.uav[17] utilizationEnergyOverdrawMission 0
scalar OsgEarthNet.uav[17] utilizationEnergyOverdrawMaintenance 0
scalar OsgEarthNet.uav[17] utilizationCountMissions 59
scalar OsgEarthNet.uav[17] utilizationCountManeuversMission 886
scalar OsgEarthNet.uav[17] utilizationCountManeuversMaintenance 118
scalar OsgEarthNet.uav[17] utilizationCountChargeState 59
scalar OsgEarthNet.uav[17] utilizationCountOverdrawnAfterMission 0
scalar OsgEarthNet.uav[17] utilizationCountIdleState 56
scalar OsgEarthNet.uav[17] utilizationFail 0
scalar OsgEarthNet.uav[17] simulationTime 259200
scalar OsgEarthNet.uav[18] utilizationSecMission 32996.230932232
scalar OsgEarthNet.uav[18] utilizationSecMaintenance 15356.024948124
scalar OsgEarthNet.uav[18] utilizationSecCharge 179945.74011964
scalar OsgEarthNet.uav[18] utilizationSecIdle 30902.003
scalar OsgEarthNet.uav[18] utilizationEnergyMission 164414.9066658
scalar OsgEarthNet.uav[18] utilizationEnergyMaintenance 71187.399917603
scalar OsgEarthNet.uav[18] utilizationEnergyCharge 234133.80419922
scalar OsgEarthNet.uav[18] utilizationEnergyOverdrawMission 0
scalar OsgEarthNet.uav[18] utilizationEnergyOverdrawMaintenance 0
scalar OsgEarthNet.uav[18] utilizationCountMissions 51
scalar OsgEarthNet.uav[18] utilizationCountManeuversMission 1168
scalar OsgEarthNet.uav[18] utilizationCountManeuversMaintenance 102
scalar OsgEarthNet.uav[18] utilizationCountChargeState 51
scalar OsgEarthNet.uav[18] utilizationCountOverdrawnAfterMission 0
scalar OsgEarthNet.uav[18] utilizationCountIdleState 49
scalar OsgEarthNet.uav[18] utilizationFail 0
scalar OsgEarthNet.uav[18] simulationTime 259200
scalar OsgEarthNet.uav[19] utilizationSecMission 33284.636548097
scalar OsgEarthNet.uav[19] utilizationSecMaintenance 20321.506695438
scalar OsgEarthNet.uav[19] utilizationSecCharge 194211.85475647
scalar OsgEarthNet.uav[19] utilizationSecIdle 11382.001
scalar OsgEarthNet.uav[19] utilizationEnergyMission 158833.61250305
scalar OsgEarthNet.uav[19] utilizationEnergyMaintenance 95828.016338348
scalar OsgEarthNet.uav[19] utilizationEnergyCharge 256699.46777344
scalar OsgEarthNet.uav[19] utilizationEnergyOverdrawMission 0
scalar OsgEarthNet.uav[19] utilizationEnergyOverdrawMaintenance 0
scalar OsgEarthNet.uav[19] utilizationCountMissions 57
scalar OsgEarthNet.uav[19] utilizationCountManeuversMission 1061
scalar OsgEarthNet.uav[19] utilizationCountManeuversMaintenance 114
scalar OsgEarthNet.uav[19] utilizationCountChargeState 57
scalar OsgEarthNet.uav[19] utilizationCountOverdrawnAfterMission 0
scalar OsgEarthNet.uav[19] utilizationCountIdleState 31
scalar OsgEarthNet.uav[19] utilizationFail 0
scalar OsgEarthNet.uav[19] simulationTime 259200
scalar OsgEarthNet.uav[20] utilizationSecMission 31049.486363783
scalar OsgEarthNet.uav[20] utilizationSecMaintenance 22647.933038554
scalar OsgEarthNet.uav[20] utilizationSecCharge 193900.57159766
scalar OsgEarthNet.uav[20] utilizationSecIdle 11602.008
scalar OsgEarthNet.uav[20] utilizationEnergyMission 153104.26786804
scalar OsgEarthNet.uav[20] utilizationEnergyMaintenance 107685.3038559
scalar OsgEarthNet.uav[20] utilizationEnergyCharge 258957.83850098
scalar OsgEarthNet.uav[20] utilizationEnergyOverdrawMission 0
scalar OsgEarthNet.uav[20] utilizationEnergyOverdrawMaintenance 0
scalar OsgEarthNet.uav[20] utilizationCountMissions 58
scalar OsgEarthNet.uav[20] utilizationCountManeuversMission 1145
scalar OsgEarthNet.uav[20] utilizationCountManeuversMaintenance 116
scalar OsgEarthNet.uav[20] utilizationCountChargeState 58
scalar OsgEarthNet.uav[20] utilizationCountOverdrawnAfterMission 0
scalar OsgEarthNet.uav[20] utilizationCountIdleState 25
scalar OsgEarthNet.uav[20] utilizationFail 0
scalar OsgEarthNet.uav[20] simulationTime 259200
scalar OsgEarthNet.uav[21] utilizationSecMission 32631.182874782
scalar OsgEarthNet.uav[21] utilizationSecMaintenance 17686.816125218
scalar OsgEarthNet.uav[21] utilizationSecCharge 187650
scalar OsgEarthNet.uav[21] utilizationSecIdle 21232
scalar OsgEarthNet.uav[21] utilizationEnergyMission 155362.5225989
scalar OsgEarthNet.uav[21] utilizationEnergyMaintenance 84001.879295349
scalar OsgEarthNet.uav[21] utilizationEnergyCharge 234501.13085938
scalar OsgEarthNet.uav[21] utilizationEnergyOverdrawMission 0
scalar OsgEarthNet.uav[21] utilizationEnergyOverdrawMaintenance 0
scalar OsgEarthNet.uav[21] utilizationCountMissions 58
scalar OsgEarthNet.uav[21] utilizationCountManeuversMission 868
scalar OsgEarthNet.uav[21] utilizationCountManeuversMaintenance 117
scalar OsgEarthNet.uav[21] utilizationCountChargeState 58
scalar OsgEarthNet.uav[21] utilizationCountOverdrawnAfterMission 0
scalar OsgEarthNet.uav[21] utilizationCountIdleState 55
scalar OsgEarthNet.uav[21] utilizationFail 0
scalar OsgEarthNet.uav[21] simulationTime 259200
scalar OsgEarthNet.uav[22] utilizationSecMission 33889.056823972
scalar OsgEarthNet.uav[22] utilizationSecMaintenance 15576.224668412
scalar OsgEarthNet.uav[22] utilizationSecCharge 180852.71750762
scalar OsgEarthNet.uav[22] utilizationSecIdle 28882
scalar OsgEarthNet.uav[22] utilizationEnergyMission 168828.46290207
scalar OsgEarthNet.uav[22] utilizationEnergyMaintenance 71808.848953247
scalar OsgEarthNet.uav[22] utilizationEnergyCharge 235435.1003418
scalar OsgEarthNet.uav[22] utilizationEnergyOverdrawMission 0
scalar OsgEarthNet.uav[22] utilizationEnergyOverdrawMaintenance 0
scalar OsgEarthNet.uav[22] utilizationCountMissions 52
scalar OsgEarthNet.uav[22] utilizationCountManeuversMission 1243
scalar OsgEarthNet.uav[22] utilizationCountManeuversMaintenance 104
scalar OsgEarthNet.uav[22] utilizationCountChargeState 52
scalar OsgEarthNet.uav[22] utilizationCountOverdrawnAfterMission 0
scalar OsgEarthNet.uav[22] utilizationCountIdleState 51
scalar OsgEarthNet.uav[22] utilizationFail 0
scalar OsgEarthNet.uav[22] simulationTime 259200
scalar OsgEarthNet.uav[23] utilizationSecMission 34982.442207604
scalar OsgEarthNet.uav[23] utilizationSecMaintenance 13350.714002898
scalar OsgEarthNet.uav[23] utilizationSecCharge 175412.67901659
scalar OsgEarthNet.uav[23] utilizationSecIdle 35454.163772908
scalar OsgEarthNet.uav[23] utilizationEnergyMission 167151.72818756
scalar OsgEarthNet.uav[23] utilizationEnergyMaintenance 62328.351322174
scalar OsgEarthNet.uav[23] utilizationEnergyCharge 228152.47241211
scalar OsgEarthNet.uav[23] utilizationEnergyOverdrawMission 0
scalar OsgEarthNet.uav[23] utilizationEnergyOverdrawMaintenance 0
scalar OsgEarthNet.uav[23] utilizationCountMissions 50
scalar OsgEarthNet.uav[23] utilizationCountManeuversMission 1028
scalar OsgEarthNet.uav[23] utilizationCountManeuversMaintenance 100
scalar OsgEarthNet.uav[23] utilizationCountChargeState 50
scalar OsgEarthNet.uav[23] utilizationCountOverdrawnAfterMission 0
scalar OsgEarthNet.uav[23] utilizationCountIdleState 50
scalar OsgEarthNet.uav[23] utilizationFail 0
scalar OsgEarthNet.uav[23] simulationTime 259200
scalar OsgEarthNet.uav[24] utilizationSecMission 32301.900631939
scalar OsgEarthNet.uav[24] utilizationSecMaintenance 16402.295946853
scalar OsgEarthNet.uav[24] utilizationSecCharge 180763.80042121
scalar OsgEarthNet.uav[24] utilizationSecIdle 29732.002
scalar OsgEarthNet.uav[24] utilizationEnergyMission 157447.19105148
scalar OsgEarthNet.uav[24] utilizationEnergyMaintenance 77038.325801849
scalar OsgEarthNet.uav[24] utilizationEnergyCharge 232215.9362793
scalar OsgEarthNet.uav[24] utilizationEnergyOverdrawMission 0
scalar OsgEarthNet.uav[24] utilizationEnergyOverdrawMaintenance 0
scalar OsgEarthNet.uav[24] utilizationCountMissions 53
scalar OsgEarthNet.uav[24] utilizationCountManeuversMission 1124
scalar OsgEarthNet.uav[24] utilizationCountManeuversMaintenance 106
scalar OsgEarthNet.uav[24] utilizationCountChargeState 53
scalar OsgEarthNet.uav[24] utilizationCountOverdrawnAfterMission 0
scalar OsgEarthNet.uav[24] utilizationCountIdleState 53
scalar OsgEarthNet.uav[24] utilizationFail 0
scalar OsgEarthNet.uav[24] simulationTime 259200
scalar OsgEarthNet.uav[25] utilizationSecMission 33452.214871056
scalar OsgEarthNet.uav[25] utilizationSecMaintenance 14654.094801381
scalar OsgEarthNet.uav[25] utilizationSecCharge 177660
scalar OsgEarthNet.uav[25] utilizationSecIdle 33433.689327562
scalar OsgEarthNet.uav[25] utilizationEnergyMission 162936.7568512
scalar OsgEarthNet.uav[25] utilizationEnergyMaintenance 68759.272270203
scalar OsgEarthNet.uav[25] utilizationEnergyCharge 230330.58935547
scalar OsgEarthNet.uav[25] utilizationEnergyOverdrawMission 0
scalar OsgEarthNet.uav[25] utilizationEnergyOverdrawMaintenance 0
scalar OsgEarthNet.uav[25] utilizationCountMissions 50
scalar OsgEarthNet.uav[25] utilizationCountManeuversMission 1049
scalar OsgEarthNet.uav[25] utilizationCountManeuversMaintenance 100
scalar OsgEarthNet.uav[25] utilizationCountChargeState 50
scalar OsgEarthNet.uav[25] utilizationCountOverdrawnAfterMission 0
scalar OsgEarthNet.uav[25] utilizationCountIdleState 51
scalar OsgEarthNet.uav[25] utilizationFail 0
scalar OsgEarthNet.uav[25] simulationTime 259200
scalar OsgEarthNet.uav[26] utilizationSecMission 32191.877899025
scalar OsgEarthNet.uav[26] utilizationSecMaintenance 21206.846118111
scalar OsgEarthNet.uav[26] utilizationSecCharge 192309.26398286
scalar OsgEarthNet.uav[26] utilizationSecIdle 13492.011
scalar OsgEarthNet.uav[26] utilizationEnergyMission 157257.69284058
scalar OsgEarthNet.uav[26] utilizationEnergyMaintenance 100930.42089081
scalar OsgEarthNet.uav[26] utilizationEnergyCharge 255731.83447266
scalar OsgEarthNet.uav[26] utilizationEnergyOverdrawMission 0
scalar OsgEarthNet.uav[26] utilizationEnergyOverdrawMaintenance 0
scalar OsgEarthNet.uav[26] utilizationCountMissions 57
scalar OsgEarthNet.uav[26] utilizationCountManeuversMission 1115
scalar OsgEarthNet.uav[26] utilizationCountManeuversMaintenance 114
scalar OsgEarthNet.uav[26] utilizationCountChargeState 57
scalar OsgEarthNet.uav[26] utilizationCountOverdrawnAfterMission 0
scalar OsgEarthNet.uav[26] utilizationCountIdleState 29
scalar OsgEarthNet.uav[26] utilizationFail 0
scalar OsgEarthNet.uav[26] simulationTime 259200
scalar OsgEarthNet.uav[27] utilizationSecMission 31150.180663372
scalar OsgEarthNet.uav[27] utilizationSecMaintenance 17961.458179257
scalar OsgEarthNet.uav[27] utilizationSecCharge 186123.65445833
scalar OsgEarthNet.uav[27] utilizationSecIdle 23964.705699036
scalar OsgEarthNet.uav[27] utilizationEnergyMission 152428.94335938
scalar OsgEarthNet.uav[27] utilizationEnergyMaintenance 85161.1916008
scalar OsgEarthNet.uav[27] utilizationEnergyCharge 237114.86108398
scalar OsgEarthNet.uav[27] utilizationEnergyOverdrawMission 0
scalar OsgEarthNet.uav[27] utilizationEnergyOverdrawMaintenance 0
scalar OsgEarthNet.uav[27] utilizationCountMissions 56
scalar OsgEarthNet.uav[27] utilizationCountManeuversMission 980
scalar OsgEarthNet.uav[27] utilizationCountManeuversMaintenance 112
scalar OsgEarthNet.uav[27] utilizationCountChargeState 56
scalar OsgEarthNet.uav[27] utilizationCountOverdrawnAfterMission 0
scalar OsgEarthNet.uav[27] utilizationCountIdleState 55
scalar OsgEarthNet.uav[27] utilizationFail 0
scalar OsgEarthNet.uav[27] simulationTime 259200
scalar OsgEarthNet.uav[28] utilizationSecMission 33964.962990352
scalar OsgEarthNet.uav[28] utilizationSecMaintenance 14771.208677563
scalar OsgEarthNet.uav[28] utilizationSecCharge 180890
scalar OsgEarthNet.uav[28] utilizationSecIdle 29573.827332085
scalar OsgEarthNet.uav[28] utilizationEnergyMission 168415.26610947
scalar OsgEarthNet.uav[28] utilizationEnergyMaintenance 67942.479190826
scalar OsgEarthNet.uav[28] utilizationEnergyCharge 235201.78076172
scalar OsgEarthNet.uav[28] utilizationEnergyOverdrawMission 0
scalar OsgEarthNet.uav[28] utilizationEnergyOverdrawMaintenance 0
scalar OsgEarthNet.uav[28] utilizationCountMissions 51
scalar OsgEarthNet.uav[28] utilizationCountManeuversMission 1193
scalar OsgEarthNet.uav[28] utilizationCountManeuversMaintenance 102
scalar OsgEarthNet.uav[28] utilizationCountChargeState 51
scalar OsgEarthNet.uav[28] utilizationCountOverdrawnAfterMission 0
scalar OsgEarthNet.uav[28] utilizationCountIdleState 50
scalar OsgEarthNet.uav[28] utilizationFail 0
scalar OsgEarthNet.uav[28] simulationTime 259200
scalar OsgEarthNet.uav[29] utilizationSecMission 32100.885632615
scalar OsgEarthNet.uav[29] utilizationSecMaintenance 22129.676878629
scalar OsgEarthNet.uav[29] utilizationSecCharge 195307.43448876
scalar OsgEarthNet.uav[29] utilizationSecIdle 9662.002
scalar OsgEarthNet.uav[29] utilizationEnergyMission 158340.54520035
scalar OsgEarthNet.uav[29] utilizationEnergyMaintenance 105031.89139175
scalar OsgEarthNet.uav[29] utilizationEnergyCharge 259452.01635742
scalar OsgEarthNet.uav[29] utilizationEnergyOverdrawMission 0
scalar OsgEarthNet.uav[29] utilizationEnergyOverdrawMaintenance 0
scalar OsgEarthNet.uav[29] utilizationCountMissions 58
scalar OsgEarthNet.uav[29] utilizationCountManeuversMission 1158
scalar OsgEarthNet.uav[29] utilizationCountManeuversMaintenance 116
scalar OsgEarthNet.uav[29] utilizationCountChargeState 58
scalar OsgEarthNet.uav[29] utilizationCountOverdrawnAfterMission 0
scalar OsgEarthNet.uav[29] utilizationCountIdleState 32
scalar OsgEarthNet.uav[29] utilizationFail 0
scalar OsgEarthNet.uav[29] simulationTime 259200
scalar OsgEarthNet.uav[30] utilizationSecMission 34340.68404221
scalar OsgEarthNet.uav[30] utilizationSecMaintenance 15028.461572721
scalar OsgEarthNet.uav[30] utilizationSecCharge 177018.70864512
scalar OsgEarthNet.uav[30] utilizationSecIdle 32812.144739949
scalar OsgEarthNet.uav[30] utilizationEnergyMission 165819.64122772
scalar OsgEarthNet.uav[30] utilizationEnergyMaintenance 69155.47782898
scalar OsgEarthNet.uav[30] utilizationEnergyCharge 229185.82739258
scalar OsgEarthNet.uav[30] utilizationEnergyOverdrawMission 0
scalar OsgEarthNet.uav[30] utilizationEnergyOverdrawMaintenance 0
scalar OsgEarthNet.uav[30] utilizationCountMissions 51
scalar OsgEarthNet.uav[30] utilizationCountManeuversMission 1098
scalar OsgEarthNet.uav[30] utilizationCountManeuversMaintenance 102
scalar OsgEarthNet.uav[30] utilizationCountChargeState 51
scalar OsgEarthNet.uav[30] utilizationCountOverdrawnAfterMission 0
scalar OsgEarthNet.uav[30] utilizationCountIdleState 51
scalar OsgEarthNet.uav[30] utilizationFail 0
scalar OsgEarthNet.uav[30] simulationTime 259200
scalar OsgEarthNet.uav[31] utilizationSecMission 31252.926973663
scalar OsgEarthNet.uav[31] utilizationSecMaintenance 18189.629840758
scalar OsgEarthNet.uav[31] utilizationSecCharge 187402.83029606
scalar OsgEarthNet.uav[31] utilizationSecIdle 22354.611889516
scalar OsgEarthNet.uav[31] utilizationEnergyMission 147977.21527863
scalar OsgEarthNet.uav[31] utilizationEnergyMaintenance 86569.821872711
scalar OsgEarthNet.uav[31] utilizationEnergyCharge 236165.69555664
scalar OsgEarthNet.uav[31] utilizationEnergyOverdrawMission 0
scalar OsgEarthNet.uav[31] utilizationEnergyOverdrawMaintenance 0
scalar OsgEarthNet.uav[31] utilizationCountMissions 58
scalar OsgEarthNet.uav[31] utilizationCountManeuversMission 953
scalar OsgEarthNet.uav[31] utilizationCountManeuversMaintenance 116
scalar OsgEarthNet.uav[31] utilizationCountChargeState 58
scalar OsgEarthNet.uav[31] utilizationCountOverdrawnAfterMission 0
scalar OsgEarthNet.uav[31] utilizationCountIdleState 53
scalar OsgEarthNet.uav[31] utilizationFail 0
scalar OsgEarthNet.uav[31] simulationTime 259200
scalar OsgEarthNet.uav[32] utilizationSecMission 33603.009149036
scalar OsgEarthNet.uav[32] utilizationSecMaintenance 15062.172531096
scalar OsgEarthNet.uav[32] utilizationSecCharge 180635.39197258
scalar OsgEarthNet.uav[32] utilizationSecIdle 29899.42534729
scalar OsgEarthNet.uav[32] utilizationEnergyMission 165016.60936356
scalar OsgEarthNet.uav[32] utilizationEnergyMaintenance 69697.971897125
scalar OsgEarthNet.uav[32] utilizationEnergyCharge 234497.97119141
scalar OsgEarthNet.uav[32] utilizationEnergyOverdrawMission 0
scalar OsgEarthNet.uav[32] utilizationEnergyOverdrawMaintenance 0
scalar OsgEarthNet.uav[32] utilizationCountMissions 51
scalar OsgEarthNet.uav[32] utilizationCountManeuversMission 1181
scalar OsgEarthNet.uav[32] utilizationCountManeuversMaintenance 102
scalar OsgEarthNet.uav[32] utilizationCountChargeState 51
scalar OsgEarthNet.uav[32] utilizationCountOverdrawnAfterMission 0
scalar OsgEarthNet.uav[32] utilizationCountIdleState 51
scalar OsgEarthNet.uav[32] utilizationFail 0
scalar OsgEarthNet.uav[32] simulationTime 259200
scalar OsgEarthNet.uav[33] utilizationSecMission 32531.877899025
scalar OsgEarthNet.uav[33] utilizationSecMaintenance 21644.27784496
scalar OsgEarthNet.uav[33] utilizationSecCharge 194941.83825601
scalar OsgEarthNet.uav[33] utilizationSecIdle 10082.005
scalar OsgEarthNet.uav[33] utilizationEnergyMission 156971.85230637
scalar OsgEarthNet.uav[33] utilizationEnergyMaintenance 102456.07253265
scalar OsgEarthNet.uav[33] utilizationEnergyCharge 260245.17016602
scalar OsgEarthNet.uav[33] utilizationEnergyOverdrawMission 0
scalar OsgEarthNet.uav[33] utilizationEnergyOverdrawMaintenance 0
scalar OsgEarthNet.uav[33] utilizationCountMissions 58
scalar OsgEarthNet.uav[33] utilizationCountManeuversMission 1132
scalar OsgEarthNet.uav[33] utilizationCountManeuversMaintenance 116
scalar OsgEarthNet.uav[33] utilizationCountChargeState 58
scalar OsgEarthNet.uav[33] utilizationCountOverdrawnAfterMission 0
scalar OsgEarthNet.uav[33] utilizationCountIdleState 28
scalar OsgEarthNet.uav[33] utilizationFail 0
scalar OsgEarthNet.uav[33] simulationTime 259200
scalar OsgEarthNet.uav[34] utilizationSecMission 31774.7252579
scalar OsgEarthNet.uav[34] utilizationSecMaintenance 17627.893158754
scalar OsgEarthNet.uav[34] utilizationSecCharge 185649.57497329
scalar OsgEarthNet.uav[34] utilizationSecIdle 24147.80561006
scalar OsgEarthNet.uav[34] utilizationEnergyMission 153595.49382782
scalar OsgEarthNet.uav[34] utilizationEnergyMaintenance 83783.633621216
scalar OsgEarthNet.uav[34] utilizationEnergyCharge 234381.71502686
scalar OsgEarthNet.uav[34] utilizationEnergyOverdrawMission 0
scalar OsgEarthNet.uav[34] utilizationEnergyOverdrawMaintenance 0
scalar OsgEarthNet.uav[34] utilizationCountMissions 57
scalar OsgEarthNet.uav[34] utilizationCountManeuversMission 937
scalar OsgEarthNet.uav[34] utilizationCountManeuversMaintenance 114
scalar OsgEarthNet.uav[34] utilizationCountChargeState 57
scalar OsgEarthNet.uav[34] utilizationCountOverdrawnAfterMission 0
scalar OsgEarthNet.uav[34] utilizationCountIdleState 57
scalar OsgEarthNet.uav[34] utilizationFail 0
scalar OsgEarthNet.uav[34] simulationTime 259200
scalar OsgEarthNet.uav[35] utilizationSecMission 34859.668099921
scalar OsgEarthNet.uav[35] utilizationSecMaintenance 14258.702105667
scalar OsgEarthNet.uav[35] utilizationSecCharge 180356.17313779
scalar OsgEarthNet.uav[35] utilizationSecIdle 29725.45565662
scalar OsgEarthNet.uav[35] utilizationEnergyMission 167811.03356171
scalar OsgEarthNet.uav[35] utilizationEnergyMaintenance 65139.380661011
scalar OsgEarthNet.uav[35] utilizationEnergyCharge 234849.11230469
scalar OsgEarthNet.uav[35] utilizationEnergyOverdrawMission 0
scalar OsgEarthNet.uav[35] utilizationEnergyOverdrawMaintenance 0
scalar OsgEarthNet.uav[35] utilizationCountMissions 51
scalar OsgEarthNet.uav[35] utilizationCountManeuversMission 1231
scalar OsgEarthNet.uav[35] utilizationCountManeuversMaintenance 102
scalar OsgEarthNet.uav[35] utilizationCountChargeState 51
scalar OsgEarthNet.uav[35] utilizationCountOverdrawnAfterMission 0
scalar OsgEarthNet.uav[35] utilizationCountIdleState 51
scalar OsgEarthNet.uav[35] utilizationFail 0
scalar OsgEarthNet.uav[35] simulationTime 259200
scalar OsgEarthNet.uav[36] utilizationSecMission 34286.357013973
scalar OsgEarthNet.uav[36] utilizationSecMaintenance 19891.634986027
scalar OsgEarthNet.uav[36] utilizationSecCharge 193780
scalar OsgEarthNet.uav[36] utilizationSecIdle 11242.007
scalar OsgEarthNet.uav[36] utilizationEnergyMission 164205.96173557
scalar OsgEarthNet.uav[36] utilizationEnergyMaintenance 94248.748405456
scalar OsgEarthNet.uav[36] utilizationEnergyCharge 257187.17333984
scalar OsgEarthNet.uav[36] utilizationEnergyOverdrawMission 0
scalar OsgEarthNet.uav[36] utilizationEnergyOverdrawMaintenance 0
scalar OsgEarthNet.uav[36] utilizationCountMissions 57
scalar OsgEarthNet.uav[36] utilizationCountManeuversMission 1051
scalar OsgEarthNet.uav[36] utilizationCountManeuversMaintenance 115
scalar OsgEarthNet.uav[36] utilizationCountChargeState 57
scalar OsgEarthNet.uav[36] utilizationCountOverdrawnAfterMission 0
scalar OsgEarthNet.uav[36] utilizationCountIdleState 30
scalar OsgEarthNet.uav[36] utilizationFail 0
scalar OsgEarthNet.uav[36] simulationTime 259200
scalar OsgEarthNet.uav[37] utilizationSecMission 34064.672562419
scalar OsgEarthNet.uav[37] utilizationSecMaintenance 14182.633738111
scalar OsgEarthNet.uav[37] utilizationSecCharge 179150
scalar OsgEarthNet.uav[37] utilizationSecIdle 31802.69269947
scalar OsgEarthNet.uav[37] utilizationEnergyMission 164837.6252861
scalar OsgEarthNet.uav[37] utilizationEnergyMaintenance 66387.269268036
scalar OsgEarthNet.uav[37] utilizationEnergyCharge 231657.7175293
scalar OsgEarthNet.uav[37] utilizationEnergyOverdrawMission 0
scalar OsgEarthNet.uav[37] utilizationEnergyOverdrawMaintenance 0
scalar OsgEarthNet.uav[37] utilizationCountMissions 51
scalar OsgEarthNet.uav[37] utilizationCountManeuversMission 1002
scalar OsgEarthNet.uav[37] utilizationCountManeuversMaintenance 102
scalar OsgEarthNet.uav[37] utilizationCountChargeState 51
scalar OsgEarthNet.uav[37] utilizationCountOverdrawnAfterMission 0
scalar OsgEarthNet.uav[37] utilizationCountIdleState 51
scalar OsgEarthNet.uav[37] utilizationFail 0
scalar OsgEarthNet.uav[37] simulationTime 259200
scalar OsgEarthNet.uav[38] utilizationSecMission 35070.283604608
scalar OsgEarthNet.uav[38] utilizationSecMaintenance 13951.203247005
scalar OsgEarthNet.uav[38] utilizationSecCharge 180699.29253447
scalar OsgEarthNet.uav[38] utilizationSecIdle 29479.219613916
scalar OsgEarthNet.uav[38] utilizationEnergyMission 169701.32851791
scalar OsgEarthNet.uav[38] utilizationEnergyMaintenance 64930.031093597
scalar OsgEarthNet.uav[38] utilizationEnergyCharge 235552.84423828
scalar OsgEarthNet.uav[38] utilizationEnergyOverdrawMission 0
scalar OsgEarthNet.uav[38] utilizationEnergyOverdrawMaintenance 0
scalar OsgEarthNet.uav[38] utilizationCountMissions 51
scalar OsgEarthNet.uav[38] utilizationCountManeuversMission 1054
scalar OsgEarthNet.uav[38] utilizationCountManeuversMaintenance 102
scalar OsgEarthNet.uav[38] utilizationCountChargeState 51
scalar OsgEarthNet.uav[38] utilizationCountOverdrawnAfterMission 0
scalar OsgEarthNet.uav[38] utilizationCountIdleState 50
scalar OsgEarthNet.uav[38] utilizationFail 0
scalar OsgEarthNet.uav[38] simulationTime 259200
scalar OsgEarthNet.uav[39] utilizationSecMission 34095.628814507
scalar OsgEarthNet.uav[39] utilizationSecMaintenance 19768.771660342
scalar OsgEarthNet.uav[39] utilizationSecCharge 190680.95409463
scalar OsgEarthNet.uav[39] utilizationSecIdle 14654.644430518
scalar OsgEarthNet.uav[39] utilizationEnergyMission 167332.67856598
scalar OsgEarthNet.uav[39] utilizationEnergyMaintenance 93733.719047546
scalar OsgEarthNet.uav[39] utilizationEnergyCharge 253244.51953125
scalar OsgEarthNet.uav[39] utilizationEnergyOverdrawMission 0
scalar OsgEarthNet.uav[39] utilizationEnergyOverdrawMaintenance 0
scalar OsgEarthNet.uav[39] utilizationCountMissions 57
scalar OsgEarthNet.uav[39] utilizationCountManeuversMission 1054
scalar OsgEarthNet.uav[39] utilizationCountManeuversMaintenance 114
scalar OsgEarthNet.uav[39] utilizationCountChargeState 57
scalar OsgEarthNet.uav[39] utilizationCountOverdrawnAfterMission 0
scalar OsgEarthNet.uav[39] utilizationCountIdleState 31
scalar OsgEarthNet.uav[39] utilizationFail 0
scalar OsgEarthNet.uav[39] simulationTime 259200
scalar OsgEarthNet.uav[40] utilizationSecMission 32682.761090356
scalar OsgEarthNet.uav[40] utilizationSecMaintenance 21181.610567547
scalar OsgEarthNet.uav[40] utilizationSecCharge 192683.6243421
scalar OsgEarthNet.uav[40] utilizationSecIdle 12652.003
scalar OsgEarthNet.uav[40] utilizationEnergyMission 159235.64138794
scalar OsgEarthNet.uav[40] utilizationEnergyMaintenance 100490.18608856
scalar OsgEarthNet.uav[40] utilizationEnergyCharge 256436.97680664
scalar OsgEarthNet.uav[40] utilizationEnergyOverdrawMission 0
scalar OsgEarthNet.uav[40] utilizationEnergyOverdrawMaintenance 0
scalar OsgEarthNet.uav[40] utilizationCountMissions 57
scalar OsgEarthNet.uav[40] utilizationCountManeuversMission 1109
scalar OsgEarthNet.uav[40] utilizationCountManeuversMaintenance 114
scalar OsgEarthNet.uav[40] utilizationCountChargeState 57
scalar OsgEarthNet.uav[40] utilizationCountOverdrawnAfterMission 0
scalar OsgEarthNet.uav[40] utilizationCountIdleState 33
scalar OsgEarthNet.uav[40] utilizationFail 0
scalar OsgEarthNet.uav[40] simulationTime 259200
scalar OsgEarthNet.uav[41] utilizationSecMission 32121.002151323
scalar OsgEarthNet.uav[41] utilizationSecMaintenance 15979.238148049
scalar OsgEarthNet.uav[41] utilizationSecCharge 177677.75470063
scalar OsgEarthNet.uav[41] utilizationSecIdle 33422.004
scalar OsgEarthNet.uav[41] utilizationEnergyMission 154622.35977173
scalar OsgEarthNet.uav[41] utilizationEnergyMaintenance 74371.670173645
scalar OsgEarthNet.uav[41] utilizationEnergyCharge 227248.07397461
scalar OsgEarthNet.uav[41] utilizationEnergyOverdrawMission 0
scalar OsgEarthNet.uav[41] utilizationEnergyOverdrawMaintenance 0
scalar OsgEarthNet.uav[41] utilizationCountMissions 53
scalar OsgEarthNet.uav[41] utilizationCountManeuversMission 1072
scalar OsgEarthNet.uav[41] utilizationCountManeuversMaintenance 106
scalar OsgEarthNet.uav[41] utilizationCountChargeState 53
scalar OsgEarthNet.uav[41] utilizationCountOverdrawnAfterMission 0
scalar OsgEarthNet.uav[41] utilizationCountIdleState 52
scalar OsgEarthNet.uav[41] utilizationFail 0
scalar OsgEarthNet.uav[41] simulationTime 259200
scalar OsgEarthNet.uav[42] utilizationSecMission 35102.598187952
scalar OsgEarthNet.uav[42] utilizationSecMaintenance 14398.258913484
scalar OsgEarthNet.uav[42] utilizationSecCharge 180577.13989856
scalar OsgEarthNet.uav[42] utilizationSecIdle 29122.002
scalar OsgEarthNet.uav[42] utilizationEnergyMission 169299.06161499
scalar OsgEarthNet.uav[42] utilizationEnergyMaintenance 66519.530918121
scalar OsgEarthNet.uav[42] utilizationEnergyCharge 236046.78808594
scalar OsgEarthNet.uav[42] utilizationEnergyOverdrawMission 0
scalar OsgEarthNet.uav[42] utilizationEnergyOverdrawMaintenance 0
scalar OsgEarthNet.uav[42] utilizationCountMissions 51
scalar OsgEarthNet.uav[42] utilizationCountManeuversMission 1075
scalar OsgEarthNet.uav[42] utilizationCountManeuversMaintenance 102
scalar OsgEarthNet.uav[42] utilizationCountChargeState 51
scalar OsgEarthNet.uav[42] utilizationCountOverdrawnAfterMission 0
scalar OsgEarthNet.uav[42] utilizationCountIdleState 50
scalar OsgEarthNet.uav[42] utilizationFail 0
scalar OsgEarthNet.uav[42] simulationTime 259200
scalar OsgEarthNet.uav[43] utilizationSecMission 34418.327271042
scalar OsgEarthNet.uav[43] utilizationSecMaintenance 14376.560338997
scalar OsgEarthNet.uav[43] utilizationSecCharge 177874.1621343
scalar OsgEarthNet.uav[43] utilizationSecIdle 32530.949255665
scalar OsgEarthNet.uav[43] utilizationEnergyMission 168664.98550034
scalar OsgEarthNet.uav[43] utilizationEnergyMaintenance 65781.71780777
scalar OsgEarthNet.uav[43] utilizationEnergyCharge 230342.20043945
scalar OsgEarthNet.uav[43] utilizationEnergyOverdrawMission 0
scalar OsgEarthNet.uav[43] utilizationEnergyOverdrawMaintenance 0
scalar OsgEarthNet.uav[43] utilizationCountMissions 51
scalar OsgEarthNet.uav[43] utilizationCountManeuversMission 1251
scalar OsgEarthNet.uav[43] utilizationCountManeuversMaintenance 102
scalar OsgEarthNet.uav[43] utilizationCountChargeState 51
scalar OsgEarthNet.uav[43] utilizationCountOverdrawnAfterMission 0
scalar OsgEarthNet.uav[43] utilizationCountIdleState 51
scalar OsgEarthNet.uav[43] utilizationFail 0
scalar OsgEarthNet.uav[43] simulationTime 259200
scalar OsgEarthNet.uav[44] utilizationSecMission 30795.838566859
scalar OsgEarthNet.uav[44] utilizationSecMaintenance 18239.850937201
scalar OsgEarthNet.uav[44] utilizationSecCharge 186602.30694751
scalar OsgEarthNet.uav[44] utilizationSecIdle 23562.002548427
scalar OsgEarthNet.uav[44] utilizationEnergyMission 151070.71688843
scalar OsgEarthNet.uav[44] utilizationEnergyMaintenance 87200.922111511
scalar OsgEarthNet.uav[44] utilizationEnergyCharge 236391.94287109
scalar OsgEarthNet.uav[44] utilizationEnergyOverdrawMission 0
scalar OsgEarthNet.uav[44] utilizationEnergyOverdrawMaintenance 0
scalar OsgEarthNet.uav[44] utilizationCountMissions 57
scalar OsgEarthNet.uav[44] utilizationCountManeuversMission 988
scalar OsgEarthNet.uav[44] utilizationCountManeuversMaintenance 114
scalar OsgEarthNet.uav[44] utilizationCountChargeState 57
scalar OsgEarthNet.uav[44] utilizationCountOverdrawnAfterMission 0
scalar OsgEarthNet.uav[44] utilizationCountIdleState 55
scalar OsgEarthNet.uav[44] utilizationFail 0
scalar OsgEarthNet.uav[44] simulationTime 259200
scalar OsgEarthNet.uav[45] utilizationSecMission 34577.210045455
scalar OsgEarthNet.uav[45] utilizationSecMaintenance 15070.784954545
scalar OsgEarthNet.uav[45] utilizationSecCharge 181160
scalar OsgEarthNet.uav[45] utilizationSecIdle 28392.004
scalar OsgEarthNet.uav[45] utilizationEnergyMission 170199.39052182
scalar OsgEarthNet.uav[45] utilizationEnergyMaintenance 68406.884799957
scalar OsgEarthNet.uav[45] utilizationEnergyCharge 234496.32958984
scalar OsgEarthNet.uav[45] utilizationEnergyOverdrawMission 0
scalar OsgEarthNet.uav[45] utilizationEnergyOverdrawMaintenance 0
scalar OsgEarthNet.uav[45] utilizationCountMissions 51
scalar OsgEarthNet.uav[45] utilizationCountManeuversMission 1254
scalar OsgEarthNet.uav[45] utilizationCountManeuversMaintenance 103
scalar OsgEarthNet.uav[45] utilizationCountChargeState 51
scalar OsgEarthNet.uav[45] utilizationCountOverdrawnAfterMission 0
scalar OsgEarthNet.uav[45] utilizationCountIdleState 52
scalar OsgEarthNet.uav[45] utilizationFail 0
scalar OsgEarthNet.uav[45] simulationTime 259200
scalar OsgEarthNet.uav[46] utilizationSecMission 33629.320120399
scalar OsgEarthNet.uav[46] utilizationSecMaintenance 15593.974138543
scalar OsgEarthNet.uav[46] utilizationSecCharge 184020
scalar OsgEarthNet.uav[46] utilizationSecIdle 25956.704741057
scalar OsgEarthNet.uav[46] utilizationEnergyMission 163846.09610748
scalar OsgEarthNet.uav[46] utilizationEnergyMaintenance 72666.2501297
scalar OsgEarthNet.uav[46] utilizationEnergyCharge 239458.36572266
scalar OsgEarthNet.uav[46] utilizationEnergyOverdrawMission 0
scalar OsgEarthNet.uav[46] utilizationEnergyOverdrawMaintenance 0
scalar OsgEarthNet.uav[46] utilizationCountMissions 52
scalar OsgEarthNet.uav[46] utilizationCountManeuversMission 1189
scalar OsgEarthNet.uav[46] utilizationCountManeuversMaintenance 103
scalar OsgEarthNet.uav[46] utilizationCountChargeState 52
scalar OsgEarthNet.uav[46] utilizationCountOverdrawnAfterMission 0
scalar OsgEarthNet.uav[46] utilizationCountIdleState 51
scalar OsgEarthNet.uav[46] utilizationFail 0
scalar OsgEarthNet.uav[46] simulationTime 259200
scalar OsgEarthNet.uav[47] utilizationSecMission 32314.488480569
scalar OsgEarthNet.uav[47] utilizationSecMaintenance 17983.510519431
scalar OsgEarthNet.uav[47] utilizationSecCharge 188300
scalar OsgEarthNet.uav[47] utilizationSecIdle 20602
scalar OsgEarthNet.uav[47] utilizationEnergyMission 156537.65375519
scalar OsgEarthNet.uav[47] utilizationEnergyMaintenance 84322.436919512
scalar OsgEarthNet.uav[47] utilizationEnergyCharge 235676.74438477
scalar OsgEarthNet.uav[47] utilizationEnergyOverdrawMission 0
scalar OsgEarthNet.uav[47] utilizationEnergyOverdrawMaintenance 0
scalar OsgEarthNet.uav[47] utilizationCountMissions 59
scalar OsgEarthNet.uav[47] utilizationCountManeuversMission 891
scalar OsgEarthNet.uav[47] utilizationCountManeuversMaintenance 117
scalar OsgEarthNet.uav[47] utilizationCountChargeState 58
scalar OsgEarthNet.uav[47] utilizationCountOverdrawnAfterMission 0
scalar OsgEarthNet.uav[47] utilizationCountIdleState 54
scalar OsgEarthNet.uav[47] utilizationFail 0
scalar OsgEarthNet.uav[47] simulationTime 259200
scalar OsgEarthNet.uav[48] utilizationSecMission 33434.819739895
scalar OsgEarthNet.uav[48] utilizationSecMaintenance 17020.560284365
scalar OsgEarthNet.uav[48] utilizationSecCharge 187573.16601381
scalar OsgEarthNet.uav[48] utilizationSecIdle 21171.452961934
scalar OsgEarthNet.uav[48] utilizationEnergyMission 156871.08869171
scalar OsgEarthNet.uav[48] utilizationEnergyMaintenance 78535.786888123
scalar OsgEarthNet.uav[48] utilizationEnergyCharge 237330.14355469
scalar OsgEarthNet.uav[48] utilizationEnergyOverdrawMission 0
scalar OsgEarthNet.uav[48] utilizationEnergyOverdrawMaintenance 0
scalar OsgEarthNet.uav[48] utilizationCountMissions 57
scalar OsgEarthNet.uav[48] utilizationCountManeuversMission 881
scalar OsgEarthNet.uav[48] utilizationCountManeuversMaintenance 114
scalar OsgEarthNet.uav[48] utilizationCountChargeState 57
scalar OsgEarthNet.uav[48] utilizationCountOverdrawnAfterMission 0
scalar OsgEarthNet.uav[48] utilizationCountIdleState 53
scalar OsgEarthNet.uav[48] utilizationFail 0
scalar OsgEarthNet.uav[48] simulationTime 259200
scalar OsgEarthNet.uav[49] utilizationSecMission 31369.420870303
scalar OsgEarthNet.uav[49] utilizationSecMaintenance 17370.725276107
scalar OsgEarthNet.uav[49] utilizationSecCharge 183087.08687966
scalar OsgEarthNet.uav[49] utilizationSecIdle 27372.765973934
scalar OsgEarthNet.uav[49] utilizationEnergyMission 149929.53568649
scalar OsgEarthNet.uav[49] utilizationEnergyMaintenance 83235.465354919
scalar OsgEarthNet.uav[49] utilizationEnergyCharge 229733.97692871
scalar OsgEarthNet.uav[49] utilizationEnergyOverdrawMission 0
scalar OsgEarthNet.uav[49] utilizationEnergyOverdrawMaintenance 0
scalar OsgEarthNet.uav[49] utilizationCountMissions 57
scalar OsgEarthNet.uav[49] utilizationCountManeuversMission 921
scalar OsgEarthNet.uav[49] utilizationCountManeuversMaintenance 114
scalar OsgEarthNet.uav[49] utilizationCountChargeState 57
scalar OsgEarthNet.uav[49] utilizationCountOverdrawnAfterMission 0
scalar OsgEarthNet.uav[49] utilizationCountIdleState 56
scalar OsgEarthNet.uav[49] utilizationFail 0
scalar OsgEarthNet.uav[49] simulationTime 259200
scalar OsgEarthNet.uav[50] utilizationSecMission 31456.116997476
scalar OsgEarthNet.uav[50] utilizationSecMaintenance 17678.024444436
scalar OsgEarthNet.uav[50] utilizationSecCharge 188893.85755809
scalar OsgEarthNet.uav[50] utilizationSecIdle 21172
scalar OsgEarthNet.uav[50] utilizationEnergyMission 149681.85989761
scalar OsgEarthNet.uav[50] utilizationEnergyMaintenance 84088.662204742
scalar OsgEarthNet.uav[50] utilizationEnergyCharge 235045.28320312
scalar OsgEarthNet.uav[50] utilizationEnergyOverdrawMission 0
scalar OsgEarthNet.uav[50] utilizationEnergyOverdrawMaintenance 0
scalar OsgEarthNet.uav[50] utilizationCountMissions 59
scalar OsgEarthNet.uav[50] utilizationCountManeuversMission 777
scalar OsgEarthNet.uav[50] utilizationCountManeuversMaintenance 118
scalar OsgEarthNet.uav[50] utilizationCountChargeState 59
scalar OsgEarthNet.uav[50] utilizationCountOverdrawnAfterMission 0
scalar OsgEarthNet.uav[50] utilizationCountIdleState 57
scalar OsgEarthNet.uav[50] utilizationFail 0
scalar OsgEarthNet.uav[50] simulationTime 259200
scalar OsgEarthNet.uav[51] utilizationSecMission 31065.763689375
scalar OsgEarthNet.uav[51] utilizationSecMaintenance 18558.958035567
scalar OsgEarthNet.uav[51] utilizationSecCharge 187463.27627506
scalar OsgEarthNet.uav[51] utilizationSecIdle 22112.001
scalar OsgEarthNet.uav[51] utilizationEnergyMission 150370.11373901
scalar OsgEarthNet.uav[51] utilizationEnergyMaintenance 87591.379875183
scalar OsgEarthNet.uav[51] utilizationEnergyCharge 236790.91015625
scalar OsgEarthNet.uav[51] utilizationEnergyOverdrawMission 0
scalar OsgEarthNet.uav[51] utilizationEnergyOverdrawMaintenance 0
scalar OsgEarthNet.uav[51] utilizationCountMissions 58
scalar OsgEarthNet.uav[51] utilizationCountManeuversMission 964
scalar OsgEarthNet.uav[51] utilizationCountManeuversMaintenance 116
scalar OsgEarthNet.uav[51] utilizationCountChargeState 58
scalar OsgEarthNet.uav[51] utilizationCountOverdrawnAfterMission 0
scalar OsgEarthNet.uav[51] utilizationCountIdleState 56
scalar OsgEarthNet.uav[51] utilizationFail 0
scalar OsgEarthNet.uav[51] simulationTime 259200
scalar OsgEarthNet.uav[52] utilizationSecMission 34812.491866236
scalar OsgEarthNet.uav[52] utilizationSecMaintenance 14038.658971767
scalar OsgEarthNet.uav[52] utilizationSecCharge 177800
scalar OsgEarthNet.uav[52] utilizationSecIdle 32548.848161997
scalar OsgEarthNet.uav[52] utilizationEnergyMission 167600.66272399
scalar OsgEarthNet.uav[52] utilizationEnergyMaintenance 64408.399402618
scalar OsgEarthNet.uav[52] utilizationEnergyCharge 230509.02294922
scalar OsgEarthNet.uav[52] utilizationEnergyOverdrawMission 0
scalar OsgEarthNet.uav[52] utilizationEnergyOverdrawMaintenance 0
scalar OsgEarthNet.uav[52] utilizationCountMissions 50
scalar OsgEarthNet.uav[52] utilizationCountManeuversMission 1071
scalar OsgEarthNet.uav[52] utilizationCountManeuversMaintenance 101
scalar OsgEarthNet.uav[52] utilizationCountChargeState 50
scalar OsgEarthNet.uav[52] utilizationCountOverdrawnAfterMission 0
scalar OsgEarthNet.uav[52] utilizationCountIdleState 50
scalar OsgEarthNet.uav[52] utilizationFail 0
scalar OsgEarthNet.uav[52] simulationTime 259200
scalar OsgEarthNet.uav[53] utilizationSecMission 33745.370775757
scalar OsgEarthNet.uav[53] utilizationSecMaintenance 19811.8636601
scalar OsgEarthNet.uav[53] utilizationSecCharge 191959.37243802
scalar OsgEarthNet.uav[53] utilizationSecIdle 13683.392126128
scalar OsgEarthNet.uav[53] utilizationEnergyMission 163295.13329315
scalar OsgEarthNet.uav[53] utilizationEnergyMaintenance 94400.827976227
scalar OsgEarthNet.uav[53] utilizationEnergyCharge 255273.8605957
scalar OsgEarthNet.uav[53] utilizationEnergyOverdrawMission 0
scalar OsgEarthNet.uav[53] utilizationEnergyOverdrawMaintenance 0
scalar OsgEarthNet.uav[53] utilizationCountMissions 57
scalar OsgEarthNet.uav[53] utilizationCountManeuversMission 1041
scalar OsgEarthNet.uav[53] utilizationCountManeuversMaintenance 114
scalar OsgEarthNet.uav[53] utilizationCountChargeState 57
scalar OsgEarthNet.uav[53] utilizationCountOverdrawnAfterMission 0
scalar OsgEarthNet.uav[53] utilizationCountIdleState 31
scalar OsgEarthNet.uav[53] utilizationFail 0
scalar OsgEarthNet.uav[53] simulationTime 259200
scalar OsgEarthNet.uav[54] utilizationSecMission 30337.726422806
scalar OsgEarthNet.uav[54] utilizationSecMaintenance 18530.266577194
scalar OsgEarthNet.uav[54] utilizationSecCharge 186110
scalar OsgEarthNet.uav[54] utilizationSecIdle 24222.006
scalar OsgEarthNet.uav[54] utilizationEnergyMission 147308.42573929
scalar OsgEarthNet.uav[54] utilizationEnergyMaintenance 87654.972527181
scalar OsgEarthNet.uav[54] utilizationEnergyCharge 231737.26074219
scalar OsgEarthNet.uav[54] utilizationEnergyOverdrawMission 0
scalar OsgEarthNet.uav[54] utilizationEnergyOverdrawMaintenance 0
scalar OsgEarthNet.uav[54] utilizationCountMissions 58
scalar OsgEarthNet.uav[54] utilizationCountManeuversMission 957
scalar OsgEarthNet.uav[54] utilizationCountManeuversMaintenance 117
scalar OsgEarthNet.uav[54] utilizationCountChargeState 58
scalar OsgEarthNet.uav[54] utilizationCountOverdrawnAfterMission 0
scalar OsgEarthNet.uav[54] utilizationCountIdleState 55
scalar OsgEarthNet.uav[54] utilizationFail 0
scalar OsgEarthNet.uav[54] simulationTime 259200
scalar OsgEarthNet.uav[55] utilizationSecMission 36201.902747986
scalar OsgEarthNet.uav[55] utilizationSecMaintenance 13208.02354967
scalar OsgEarthNet.uav[55] utilizationSecCharge 181418.07270234
scalar OsgEarthNet.uav[55] utilizationSecIdle 28372
scalar OsgEarthNet.uav[55] utilizationEnergyMission 172937.85811996
scalar OsgEarthNet.uav[55] utilizationEnergyMaintenance 62152.107486725
scalar OsgEarthNet.uav[55] utilizationEnergyCharge 237097.67382812
scalar OsgEarthNet.uav[55] utilizationEnergyOverdrawMission 0
scalar OsgEarthNet.uav[55] utilizationEnergyOverdrawMaintenance 0
scalar OsgEarthNet.uav[55] utilizationCountMissions 51
scalar OsgEarthNet.uav[55] utilizationCountManeuversMission 1067
scalar OsgEarthNet.uav[55] utilizationCountManeuversMaintenance 102
scalar OsgEarthNet.uav[55] utilizationCountChargeState 51
scalar OsgEarthNet.uav[55] utilizationCountOverdrawnAfterMission 0
scalar OsgEarthNet.uav[55] utilizationCountIdleState 50
scalar OsgEarthNet.uav[55] utilizationFail 0
scalar OsgEarthNet.uav[55] simulationTime 259200
scalar OsgEarthNet.uav[56] utilizationSecMission 31690.275439165
scalar OsgEarthNet.uav[56] utilizationSecMaintenance 16975.288484888
scalar OsgEarthNet.uav[56] utilizationSecCharge 184200
scalar OsgEarthNet.uav[56] utilizationSecIdle 26334.435075947
scalar OsgEarthNet.uav[56] utilizationEnergyMission 150699.42611496
scalar OsgEarthNet.uav[56] utilizationEnergyMaintenance 81146.120292664
scalar OsgEarthNet.uav[56] utilizationEnergyCharge 229643.86108398
scalar OsgEarthNet.uav[56] utilizationEnergyOverdrawMission 0
scalar OsgEarthNet.uav[56] utilizationEnergyOverdrawMaintenance 0
scalar OsgEarthNet.uav[56] utilizationCountMissions 57
scalar OsgEarthNet.uav[56] utilizationCountManeuversMission 852
scalar OsgEarthNet.uav[56] utilizationCountManeuversMaintenance 115
scalar OsgEarthNet.uav[56] utilizationCountChargeState 57
scalar OsgEarthNet.uav[56] utilizationCountOverdrawnAfterMission 0
scalar OsgEarthNet.uav[56] utilizationCountIdleState 57
scalar OsgEarthNet.uav[56] utilizationFail 0
scalar OsgEarthNet.uav[56] simulationTime 259200
scalar OsgEarthNet.uav[57] utilizationSecMission 32539.928874395
scalar OsgEarthNet.uav[57] utilizationSecMaintenance 16396.579803779
scalar OsgEarthNet.uav[57] utilizationSecCharge 182708.04623314
scalar OsgEarthNet.uav[57] utilizationSecIdle 27555.444088691
scalar OsgEarthNet.uav[57] utilizationEnergyMission 160563.42536163
scalar OsgEarthNet.uav[57] utilizationEnergyMaintenance 75242.741439819
scalar OsgEarthNet.uav[57] utilizationEnergyCharge 237431.17504883
scalar OsgEarthNet.uav[57] utilizationEnergyOverdrawMission 0
scalar OsgEarthNet.uav[57] utilizationEnergyOverdrawMaintenance 0
scalar OsgEarthNet.uav[57] utilizationCountMissions 52
scalar OsgEarthNet.uav[57] utilizationCountManeuversMission 1212
scalar OsgEarthNet.uav[57] utilizationCountManeuversMaintenance 104
scalar OsgEarthNet.uav[57] utilizationCountChargeState 52
scalar OsgEarthNet.uav[57] utilizationCountOverdrawnAfterMission 0
scalar OsgEarthNet.uav[57] utilizationCountIdleState 51
scalar OsgEarthNet.uav[57] utilizationFail 0
scalar OsgEarthNet.uav[57] simulationTime 259200
scalar OsgEarthNet.uav[58] utilizationSecMission 36061.730214012
scalar OsgEarthNet.uav[58] utilizationSecMaintenance 12863.186439732
scalar OsgEarthNet.uav[58] utilizationSecCharge 178250
scalar OsgEarthNet.uav[58] utilizationSecIdle 32025.082346256
scalar OsgEarthNet.uav[58] utilizationEnergyMission 171404.91417313
scalar OsgEarthNet.uav[58] utilizationEnergyMaintenance 59723.746208191
scalar OsgEarthNet.uav[58] utilizationEnergyCharge 232526.23535156
scalar OsgEarthNet.uav[58] utilizationEnergyOverdrawMission 0
scalar OsgEarthNet.uav[58] utilizationEnergyOverdrawMaintenance 0
scalar OsgEarthNet.uav[58] utilizationCountMissions 50
scalar OsgEarthNet.uav[58] utilizationCountManeuversMission 952
scalar OsgEarthNet.uav[58] utilizationCountManeuversMaintenance 100
scalar OsgEarthNet.uav[58] utilizationCountChargeState 50
scalar OsgEarthNet.uav[58] utilizationCountOverdrawnAfterMission 0
scalar OsgEarthNet.uav[58] utilizationCountIdleState 50
scalar OsgEarthNet.uav[58] utilizationFail 0
scalar OsgEarthNet.uav[58] simulationTime 259200
scalar OsgEarthNet.uav[59] utilizationSecMission 32689.559701217
scalar OsgEarthNet.uav[59] utilizationSecMaintenance 16029.039904564
scalar OsgEarthNet.uav[59] utilizationSecCharge 184810
scalar OsgEarthNet.uav[59] utilizationSecIdle 25671.399394219
scalar OsgEarthNet.uav[59] utilizationEnergyMission 159760.27791214
scalar OsgEarthNet.uav[59] utilizationEnergyMaintenance 74789.020462036
scalar OsgEarthNet.uav[59] utilizationEnergyCharge 234673.41064453
scalar OsgEarthNet.uav[59] utilizationEnergyOverdrawMission 0
scalar OsgEarthNet.uav[59] utilizationEnergyOverdrawMaintenance 0
scalar OsgEarthNet.uav[59] utilizationCountMissions 55
scalar OsgEarthNet.uav[59] utilizationCountManeuversMission 1057
scalar OsgEarthNet.uav[59] utilizationCountManeuversMaintenance 110
scalar OsgEarthNet.uav[59] utilizationCountChargeState 55
scalar OsgEarthNet.uav[59] utilizationCountOverdrawnAfterMission 0
scalar OsgEarthNet.uav[59] utilizationCountIdleState 53
scalar OsgEarthNet.uav[59] utilizationFail 0
scalar OsgEarthNet.uav[59] simulationTime 259200
scalar OsgEarthNet.uav[60] utilizationSecMission 31423.754312464
scalar OsgEarthNet.uav[60] utilizationSecMaintenance 18444.234687537
scalar OsgEarthNet.uav[60] utilizationSecCharge 186130
scalar OsgEarthNet.uav[60] utilizationSecIdle 23202.01
scalar OsgEarthNet.uav[60] utilizationEnergyMission 151612.93032455
scalar OsgEarthNet.uav[60] utilizationEnergyMaintenance 88629.310344542
scalar OsgEarthNet.uav[60] utilizationEnergyCharge 236059.90185547
scalar OsgEarthNet.uav[60] utilizationEnergyOverdrawMission 0
scalar OsgEarthNet.uav[60] utilizationEnergyOverdrawMaintenance 0
scalar OsgEarthNet.uav[60] utilizationCountMissions 57
scalar OsgEarthNet.uav[60] utilizationCountManeuversMission 899
scalar OsgEarthNet.uav[60] utilizationCountManeuversMaintenance 114
scalar OsgEarthNet.uav[60] utilizationCountChargeState 56
scalar OsgEarthNet.uav[60] utilizationCountOverdrawnAfterMission 0
scalar OsgEarthNet.uav[60] utilizationCountIdleState 51
scalar OsgEarthNet.uav[60] utilizationFail 0
scalar OsgEarthNet.uav[60] simulationTime 259200
scalar OsgEarthNet.uav[61] utilizationSecMission 32103.859749118
scalar OsgEarthNet.uav[61] utilizationSecMaintenance 16273.424601462
scalar OsgEarthNet.uav[61] utilizationSecCharge 183790.70964942
scalar OsgEarthNet.uav[61] utilizationSecIdle 27032.005
scalar OsgEarthNet.uav[61] utilizationEnergyMission 153709.34683228
scalar OsgEarthNet.uav[61] utilizationEnergyMaintenance 76919.357749939
scalar OsgEarthNet.uav[61] utilizationEnergyCharge 230781.21020508
scalar OsgEarthNet.uav[61] utilizationEnergyOverdrawMission 0
scalar OsgEarthNet.uav[61] utilizationEnergyOverdrawMaintenance 0
scalar OsgEarthNet.uav[61] utilizationCountMissions 57
scalar OsgEarthNet.uav[61] utilizationCountManeuversMission 854
scalar OsgEarthNet.uav[61] utilizationCountManeuversMaintenance 114
scalar OsgEarthNet.uav[61] utilizationCountChargeState 57
scalar OsgEarthNet.uav[61] utilizationCountOverdrawnAfterMission 0
scalar OsgEarthNet.uav[61] utilizationCountIdleState 55
scalar OsgEarthNet.uav[61] utilizationFail 0
scalar OsgEarthNet.uav[61] simulationTime 259200
scalar OsgEarthNet.uav[62] utilizationSecMission 35955.853525897
scalar OsgEarthNet.uav[62] utilizationSecMaintenance 13708.505064293
scalar OsgEarthNet.uav[62] utilizationSecCharge 179616.74403467
scalar OsgEarthNet.uav[62] utilizationSecIdle 29918.896375144
scalar OsgEarthNet.uav[62] utilizationEnergyMission 174057.65625763
scalar OsgEarthNet.uav[62] utilizationEnergyMaintenance 62767.668857575
scalar OsgEarthNet.uav[62] utilizationEnergyCharge 233962.30249023
scalar OsgEarthNet.uav[62] utilizationEnergyOverdrawMission 0
scalar OsgEarthNet.uav[62] utilizationEnergyOverdrawMaintenance 0
scalar OsgEarthNet.uav[62] utilizationCountMissions 51
scalar OsgEarthNet.uav[62] utilizationCountManeuversMission 1097
scalar OsgEarthNet.uav[62] utilizationCountManeuversMaintenance 102
scalar OsgEarthNet.uav[62] utilizationCountChargeState 51
scalar OsgEarthNet.uav[62] utilizationCountOverdrawnAfterMission 0
scalar OsgEarthNet.uav[62] utilizationCountIdleState 49
scalar OsgEarthNet.uav[62] utilizationFail 0
scalar OsgEarthNet.uav[62] simulationTime 259200
scalar OsgEarthNet.uav[63] utilizationSecMission 32552.503051606
scalar OsgEarthNet.uav[63] utilizationSecMaintenance 20865.264599971
scalar OsgEarthNet.uav[63] utilizationSecCharge 193768.2130701
scalar OsgEarthNet.uav[63] utilizationSecIdle 12014.018278323
scalar OsgEarthNet.uav[63] utilizationEnergyMission 159080.19916153
scalar OsgEarthNet.uav[63] utilizationEnergyMaintenance 99305.530815124
scalar OsgEarthNet.uav[63] utilizationEnergyCharge 257754.43017578
scalar OsgEarthNet.uav[63] utilizationEnergyOverdrawMission 0
scalar OsgEarthNet.uav[63] utilizationEnergyOverdrawMaintenance 0
scalar OsgEarthNet.uav[63] utilizationCountMissions 57
scalar OsgEarthNet.uav[63] utilizationCountManeuversMission 1107
scalar OsgEarthNet.uav[63] utilizationCountManeuversMaintenance 114
scalar OsgEarthNet.uav[63] utilizationCountChargeState 57
scalar OsgEarthNet.uav[63] utilizationCountOverdrawnAfterMission 0
scalar OsgEarthNet.uav[63] utilizationCountIdleState 30
scalar OsgEarthNet.uav[63] utilizationFail 0
scalar OsgEarthNet.uav[63] simulationTime 259200
scalar OsgEarthNet.uav[64] utilizationSecMission 30578.364743132
scalar OsgEarthNet.uav[64] utilizationSecMaintenance 18252.571080445
scalar OsgEarthNet.uav[64] utilizationSecCharge 184505.26025991
scalar OsgEarthNet.uav[64] utilizationSecIdle 25863.802916509
scalar OsgEarthNet.uav[64] utilizationEnergyMission 146008.80170059
scalar OsgEarthNet.uav[64] utilizationEnergyMaintenance 86832.522384644
scalar OsgEarthNet.uav[64] utilizationEnergyCharge 228964.74182129
scalar OsgEarthNet.uav[64] utilizationEnergyOverdrawMission 0
scalar OsgEarthNet.uav[64] utilizationEnergyOverdrawMaintenance 0
scalar OsgEarthNet.uav[64] utilizationCountMissions 59
scalar OsgEarthNet.uav[64] utilizationCountManeuversMission 821
scalar OsgEarthNet.uav[64] utilizationCountManeuversMaintenance 118
scalar OsgEarthNet.uav[64] utilizationCountChargeState 59
scalar OsgEarthNet.uav[64] utilizationCountOverdrawnAfterMission 0
scalar OsgEarthNet.uav[64] utilizationCountIdleState 57
scalar OsgEarthNet.uav[64] utilizationFail 0
scalar OsgEarthNet.uav[64] simulationTime 259200
scalar OsgEarthNet.uav[65] utilizationSecMission 34459.239489872
scalar OsgEarthNet.uav[65] utilizationSecMaintenance 15417.337198104
scalar OsgEarthNet.uav[65] utilizationSecCharge 181257.0720912
scalar OsgEarthNet.uav[65] utilizationSecIdle 28066.350220821
scalar OsgEarthNet.uav[65] utilizationEnergyMission 167501.55516434
scalar OsgEarthNet.uav[65] utilizationEnergyMaintenance 70475.997650146
scalar OsgEarthNet.uav[65] utilizationEnergyCharge 234865.21826172
scalar OsgEarthNet.uav[65] utilizationEnergyOverdrawMission 0
scalar OsgEarthNet.uav[65] utilizationEnergyOverdrawMaintenance 0
scalar OsgEarthNet.uav[65] utilizationCountMissions 52
scalar OsgEarthNet.uav[65] utilizationCountManeuversMission 1107
scalar OsgEarthNet.uav[65] utilizationCountManeuversMaintenance 104
scalar OsgEarthNet.uav[65] utilizationCountChargeState 52
scalar OsgEarthNet.uav[65] utilizationCountOverdrawnAfterMission 0
scalar OsgEarthNet.uav[65] utilizationCountIdleState 52
scalar OsgEarthNet.uav[65] utilizationFail 0
scalar OsgEarthNet.uav[65] simulationTime 259200
scalar OsgEarthNet.uav[66] utilizationSecMission 33262.590732052
scalar OsgEarthNet.uav[66] utilizationSecMaintenance 17570.752195191
scalar OsgEarthNet.uav[66] utilizationSecCharge 188674.51625102
scalar OsgEarthNet.uav[66] utilizationSecIdle 19692.139821739
scalar OsgEarthNet.uav[66] utilizationEnergyMission 156683.54989624
scalar OsgEarthNet.uav[66] utilizationEnergyMaintenance 83071.483310699
scalar OsgEarthNet.uav[66] utilizationEnergyCharge 238170.19848633
scalar OsgEarthNet.uav[66] utilizationEnergyOverdrawMission 0
scalar OsgEarthNet.uav[66] utilizationEnergyOverdrawMaintenance 0
scalar OsgEarthNet.uav[66] utilizationCountMissions 58
scalar OsgEarthNet.uav[66] utilizationCountManeuversMission 788
scalar OsgEarthNet.uav[66] utilizationCountManeuversMaintenance 116
scalar OsgEarthNet.uav[66] utilizationCountChargeState 58
scalar OsgEarthNet.uav[66] utilizationCountOverdrawnAfterMission 0
scalar OsgEarthNet.uav[66] utilizationCountIdleState 53
scalar OsgEarthNet.uav[66] utilizationFail 0
scalar OsgEarthNet.uav[66] simulationTime 259200
scalar OsgEarthNet.uav[67] utilizationSecMission 33481.414070788
scalar OsgEarthNet.uav[67] utilizationSecMaintenance 15203.142840521
scalar OsgEarthNet.uav[67] utilizationSecCharge 180500
scalar OsgEarthNet.uav[67] utilizationSecIdle 30015.442088691
scalar OsgEarthNet.uav[67] utilizationEnergyMission 163632.81710434
scalar OsgEarthNet.uav[67] utilizationEnergyMaintenance 69618.892937912
scalar OsgEarthNet.uav[67] utilizationEnergyCharge 233605.53955078
scalar OsgEarthNet.uav[67] utilizationEnergyOverdrawMission 0
scalar OsgEarthNet.uav[67] utilizationEnergyOverdrawMaintenance 0
scalar OsgEarthNet.uav[67] utilizationCountMissions 51
scalar OsgEarthNet.uav[67] utilizationCountManeuversMission 1210
scalar OsgEarthNet.uav[67] utilizationCountManeuversMaintenance 103
scalar OsgEarthNet.uav[67] utilizationCountChargeState 51
scalar OsgEarthNet.uav[67] utilizationCountOverdrawnAfterMission 0
scalar OsgEarthNet.uav[67] utilizationCountIdleState 52
scalar OsgEarthNet.uav[67] utilizationFail 0
scalar OsgEarthNet.uav[67] simulationTime 259200
scalar OsgEarthNet.uav[68] utilizationSecMission 35202.596332141
scalar OsgEarthNet.uav[68] utilizationSecMaintenance 14162.486359078
scalar OsgEarthNet.uav[68] utilizationSecCharge 181430
scalar OsgEarthNet.uav[68] utilizationSecIdle 28404.916308781
scalar OsgEarthNet.uav[68] utilizationEnergyMission 170837.08082906
scalar OsgEarthNet.uav[68] utilizationEnergyMaintenance 65285.342926025
scalar OsgEarthNet.uav[68] utilizationEnergyCharge 236220.40917969
scalar OsgEarthNet.uav[68] utilizationEnergyOverdrawMission 0
scalar OsgEarthNet.uav[68] utilizationEnergyOverdrawMaintenance 0
scalar OsgEarthNet.uav[68] utilizationCountMissions 51
scalar OsgEarthNet.uav[68] utilizationCountManeuversMission 1094
scalar OsgEarthNet.uav[68] utilizationCountManeuversMaintenance 101
scalar OsgEarthNet.uav[68] utilizationCountChargeState 51
scalar OsgEarthNet.uav[68] utilizationCountOverdrawnAfterMission 0
scalar OsgEarthNet.uav[68] utilizationCountIdleState 51
scalar OsgEarthNet.uav[68] utilizationFail 0
scalar OsgEarthNet.uav[68] simulationTime 259200
scalar OsgEarthNet.uav[69] utilizationSecMission 34557.950362514
scalar OsgEarthNet.uav[69] utilizationSecMaintenance 19210.048637486
scalar OsgEarthNet.uav[69] utilizationSecCharge 194180
scalar OsgEarthNet.uav[69] utilizationSecIdle 11252
scalar OsgEarthNet.uav[69] utilizationEnergyMission 165468.04587606
scalar OsgEarthNet.uav[69] utilizationEnergyMaintenance 91343.724773407
scalar OsgEarthNet.uav[69] utilizationEnergyCharge 256100.53710938
scalar OsgEarthNet.uav[69] utilizationEnergyOverdrawMission 0
scalar OsgEarthNet.uav[69] utilizationEnergyOverdrawMaintenance 0
scalar OsgEarthNet.uav[69] utilizationCountMissions 57
scalar OsgEarthNet.uav[69] utilizationCountManeuversMission 1020
scalar OsgEarthNet.uav[69] utilizationCountManeuversMaintenance 114
scalar OsgEarthNet.uav[69] utilizationCountChargeState 57
scalar OsgEarthNet.uav[69] utilizationCountOverdrawnAfterMission 0
scalar OsgEarthNet.uav[69] utilizationCountIdleState 36
scalar OsgEarthNet.uav[69] utilizationFail 0
scalar OsgEarthNet.uav[69] simulationTime 259200
scalar OsgEarthNet.cs[0] usedPower 3991475.3138086
scalar OsgEarthNet.cs[0] chargedPower 3991475.3138086
scalar OsgEarthNet.cs[0] chargedMobileNodes 481
scalar OsgEarthNet.cs[0] reservations 890
scalar OsgEarthNet.cs[1] usedPower 5693598.6318862
scalar OsgEarthNet.cs[1] chargedPower 5693598.6318862
scalar OsgEarthNet.cs[1] chargedMobileNodes 1332
scalar OsgEarthNet.cs[1] reservations 1411
scalar OsgEarthNet.cs[2] usedPower 6990693.6729942
scalar OsgEarthNet.cs[2] chargedPower 6990693.6729942
scalar OsgEarthNet.cs[2] chargedMobileNodes 1485
scalar OsgEarthNet.cs[2] reservations 1525

