version 2
run Szenario_Hotel_Gabelbach-313-20180719-12:44:04-3908
attr configname Szenario_Hotel_Gabelbach
attr datetime 20180719-12:44:04
attr experiment Szenario_Hotel_Gabelbach
attr inifile omnetpp.ini
attr iterationvars "$replM=2, $biWeight=0.35, $replSearchM=1, $numUAVs=78"
attr iterationvarsf replM=2,biWeight=0.35,replSearchM=1,numUAVs=78-
attr measurement "$replM=2, $biWeight=0.35, $replSearchM=1, $numUAVs=78"
attr network OsgEarthNet
attr processid 3908
attr repetition 1
attr replication #1
attr resultdir results
attr runnumber 313
attr seedset 313
itervar biWeight 0.35
itervar numUAVs 78
itervar replM 2
itervar replSearchM 1
param *.osgEarthScene.scene "\"Szenario_Hotel_Gabelbach.earth\""
param *.playgroundLatitude 50.6830269
param *.playgroundLongitude 10.8538055
param *.playgroundWidth 3500m
param *.playgroundHeight 3500m
param *.cs[0].posX 3537m
param *.cs[0].posY 965m
param *.cs[0].posZ 538m
param *.cs[1].posX 312m
param *.cs[1].posY 1262m
param *.cs[1].posZ 539m
param *.cs[2].posX 2185m
param *.cs[2].posY 3026m
param *.cs[2].posZ 777m
param *.cs[3].posX 10m
param *.cs[3].posY 2200m
param *.cs[3].posZ 560m
param *.cs[4].posX 750m
param *.cs[4].posY 200m
param *.cs[4].posZ 540m
param *.cs[5].posX 2450m
param *.cs[5].posY 180m
param *.cs[5].posZ 524m
param *.cs[6].posX 3140m
param *.cs[6].posY 1790m
param *.cs[6].posZ 606m
param *.numCSs 3
param *.uav[*].replacementMethod 2
param *.uav[*].weightedSumWeight 0.35
param *.missionControl.replacementSearchMethod 1
param *.numUAVs 78
param *.*.timeStep 10s
param *.uav[*].commandPreviewCommandCount 20
param *.missionControl.missionFiles "\"missions\\\\Szenario_WB_Hotel_Gabelbach_Mission_Hotel.waypoints,missions\\\\Szenario_WB_Hotel_Gabelbach_Mission_Kickelhahn.waypoints,missions\\\\Szenario_WB_Hotel_Gabelbach_Mission_Ilmenau_Sportplatz.waypoints,missions\\\\Szenario_WB_Hotel_Gabelbach_Mission_Manebach_Mitte.waypoints,missions\\\\Szenario_WB_Hotel_Gabelbach_Mission_Manebach_Sued.waypoints,missions\\\\Szenario_WB_Hotel_Gabelbach_Hover_HoheSchlaufe.waypoints,missions\\\\Szenario_WB_Hotel_Gabelbach_Hover_Kickelhahn.waypoints,missions\\\\Szenario_WB_Hotel_Gabelbach_Hover_Gabelbachskopf.waypoints,missions\\\\Szenario_WB_Hotel_Gabelbach_Hover_Dachskopf.waypoints\""
param *.uav[0].startX 3537m
param *.uav[0].startY 965m
param *.uav[0].startZ 539m
param *.uav[1].startX 312m
param *.uav[1].startY 1262m
param *.uav[1].startZ 540m
param *.uav[2].startX 2185m
param *.uav[2].startY 3026m
param *.uav[2].startZ 778m
param *.uav[3].startX 3537m
param *.uav[3].startY 965m
param *.uav[3].startZ 539m
param *.uav[4].startX 312m
param *.uav[4].startY 1262m
param *.uav[4].startZ 540m
param *.uav[5].startX 2185m
param *.uav[5].startY 3026m
param *.uav[5].startZ 778m
param *.uav[6].startX 3537m
param *.uav[6].startY 965m
param *.uav[6].startZ 539m
param *.uav[7].startX 312m
param *.uav[7].startY 1262m
param *.uav[7].startZ 540m
param *.uav[8].startX 2185m
param *.uav[8].startY 3026m
param *.uav[8].startZ 778m
param *.uav[9].startX 3537m
param *.uav[9].startY 965m
param *.uav[9].startZ 539m
param *.uav[10].startX 3537m
param *.uav[10].startY 965m
param *.uav[10].startZ 539m
param *.uav[11].startX 312m
param *.uav[11].startY 1262m
param *.uav[11].startZ 540m
param *.uav[12].startX 2185m
param *.uav[12].startY 3026m
param *.uav[12].startZ 778m
param *.uav[13].startX 3537m
param *.uav[13].startY 965m
param *.uav[13].startZ 539m
param *.uav[14].startX 312m
param *.uav[14].startY 1262m
param *.uav[14].startZ 540m
param *.uav[15].startX 2185m
param *.uav[15].startY 3026m
param *.uav[15].startZ 778m
param *.uav[16].startX 3537m
param *.uav[16].startY 965m
param *.uav[16].startZ 539m
param *.uav[17].startX 312m
param *.uav[17].startY 1262m
param *.uav[17].startZ 540m
param *.uav[18].startX 2185m
param *.uav[18].startY 3026m
param *.uav[18].startZ 778m
param *.uav[19].startX 3537m
param *.uav[19].startY 965m
param *.uav[19].startZ 539m
param *.uav[20].startX 3537m
param *.uav[20].startY 965m
param *.uav[20].startZ 539m
param *.uav[21].startX 312m
param *.uav[21].startY 1262m
param *.uav[21].startZ 540m
param *.uav[22].startX 2185m
param *.uav[22].startY 3026m
param *.uav[22].startZ 778m
param *.uav[23].startX 3537m
param *.uav[23].startY 965m
param *.uav[23].startZ 539m
param *.uav[24].startX 312m
param *.uav[24].startY 1262m
param *.uav[24].startZ 540m
param *.uav[25].startX 2185m
param *.uav[25].startY 3026m
param *.uav[25].startZ 778m
param *.uav[26].startX 3537m
param *.uav[26].startY 965m
param *.uav[26].startZ 539m
param *.uav[27].startX 312m
param *.uav[27].startY 1262m
param *.uav[27].startZ 540m
param *.uav[28].startX 2185m
param *.uav[28].startY 3026m
param *.uav[28].startZ 778m
param *.uav[29].startX 3537m
param *.uav[29].startY 965m
param *.uav[29].startZ 539m
param *.uav[30].startX 3537m
param *.uav[30].startY 965m
param *.uav[30].startZ 539m
param *.uav[31].startX 312m
param *.uav[31].startY 1262m
param *.uav[31].startZ 540m
param *.uav[32].startX 2185m
param *.uav[32].startY 3026m
param *.uav[32].startZ 778m
param *.uav[33].startX 3537m
param *.uav[33].startY 965m
param *.uav[33].startZ 539m
param *.uav[34].startX 312m
param *.uav[34].startY 1262m
param *.uav[34].startZ 540m
param *.uav[35].startX 2185m
param *.uav[35].startY 3026m
param *.uav[35].startZ 778m
param *.uav[36].startX 3537m
param *.uav[36].startY 965m
param *.uav[36].startZ 539m
param *.uav[37].startX 312m
param *.uav[37].startY 1262m
param *.uav[37].startZ 540m
param *.uav[38].startX 2185m
param *.uav[38].startY 3026m
param *.uav[38].startZ 778m
param *.uav[39].startX 3537m
param *.uav[39].startY 965m
param *.uav[39].startZ 539m
param *.uav[40].startX 3537m
param *.uav[40].startY 965m
param *.uav[40].startZ 539m
param *.uav[41].startX 312m
param *.uav[41].startY 1262m
param *.uav[41].startZ 540m
param *.uav[42].startX 2185m
param *.uav[42].startY 3026m
param *.uav[42].startZ 778m
param *.uav[43].startX 3537m
param *.uav[43].startY 965m
param *.uav[43].startZ 539m
param *.uav[44].startX 312m
param *.uav[44].startY 1262m
param *.uav[44].startZ 540m
param *.uav[45].startX 2185m
param *.uav[45].startY 3026m
param *.uav[45].startZ 778m
param *.uav[46].startX 3537m
param *.uav[46].startY 965m
param *.uav[46].startZ 539m
param *.uav[47].startX 312m
param *.uav[47].startY 1262m
param *.uav[47].startZ 540m
param *.uav[48].startX 2185m
param *.uav[48].startY 3026m
param *.uav[48].startZ 778m
param *.uav[49].startX 3537m
param *.uav[49].startY 965m
param *.uav[49].startZ 539m
param *.uav[50].startX 3537m
param *.uav[50].startY 965m
param *.uav[50].startZ 539m
param *.uav[51].startX 312m
param *.uav[51].startY 1262m
param *.uav[51].startZ 540m
param *.uav[52].startX 2185m
param *.uav[52].startY 3026m
param *.uav[52].startZ 778m
param *.uav[53].startX 3537m
param *.uav[53].startY 965m
param *.uav[53].startZ 539m
param *.uav[54].startX 312m
param *.uav[54].startY 1262m
param *.uav[54].startZ 540m
param *.uav[55].startX 2185m
param *.uav[55].startY 3026m
param *.uav[55].startZ 778m
param *.uav[56].startX 3537m
param *.uav[56].startY 965m
param *.uav[56].startZ 539m
param *.uav[57].startX 312m
param *.uav[57].startY 1262m
param *.uav[57].startZ 540m
param *.uav[58].startX 2185m
param *.uav[58].startY 3026m
param *.uav[58].startZ 778m
param *.uav[59].startX 3537m
param *.uav[59].startY 965m
param *.uav[59].startZ 539m
param *.uav[60].startX 3537m
param *.uav[60].startY 965m
param *.uav[60].startZ 539m
param *.uav[61].startX 312m
param *.uav[61].startY 1262m
param *.uav[61].startZ 540m
param *.uav[62].startX 2185m
param *.uav[62].startY 3026m
param *.uav[62].startZ 778m
param *.uav[63].startX 3537m
param *.uav[63].startY 965m
param *.uav[63].startZ 539m
param *.uav[64].startX 312m
param *.uav[64].startY 1262m
param *.uav[64].startZ 540m
param *.uav[65].startX 2185m
param *.uav[65].startY 3026m
param *.uav[65].startZ 778m
param *.uav[66].startX 3537m
param *.uav[66].startY 965m
param *.uav[66].startZ 539m
param *.uav[67].startX 312m
param *.uav[67].startY 1262m
param *.uav[67].startZ 540m
param *.uav[68].startX 2185m
param *.uav[68].startY 3026m
param *.uav[68].startZ 778m
param *.uav[69].startX 3537m
param *.uav[69].startY 965m
param *.uav[69].startZ 539m
param *.uav[70].startX 3537m
param *.uav[70].startY 965m
param *.uav[70].startZ 539m
param *.uav[71].startX 312m
param *.uav[71].startY 1262m
param *.uav[71].startZ 540m
param *.uav[72].startX 2185m
param *.uav[72].startY 3026m
param *.uav[72].startZ 778m
param *.uav[73].startX 3537m
param *.uav[73].startY 965m
param *.uav[73].startZ 539m
param *.uav[74].startX 312m
param *.uav[74].startY 1262m
param *.uav[74].startZ 540m
param *.uav[75].startX 2185m
param *.uav[75].startY 3026m
param *.uav[75].startZ 778m
param *.uav[76].startX 3537m
param *.uav[76].startY 965m
param *.uav[76].startZ 539m
param *.uav[77].startX 312m
param *.uav[77].startY 1262m
param *.uav[77].startZ 540m
param *.uav[78].startX 2185m
param *.uav[78].startY 3026m
param *.uav[78].startZ 778m
param *.uav[79].startX 3537m
param *.uav[79].startY 965m
param *.uav[79].startZ 539m
param *.uav[80].startX 3537m
param *.uav[80].startY 965m
param *.uav[80].startZ 539m
param *.uav[81].startX 312m
param *.uav[81].startY 1262m
param *.uav[81].startZ 540m
param *.uav[82].startX 2185m
param *.uav[82].startY 3026m
param *.uav[82].startZ 778m
param *.uav[83].startX 3537m
param *.uav[83].startY 965m
param *.uav[83].startZ 539m
param *.uav[84].startX 312m
param *.uav[84].startY 1262m
param *.uav[84].startZ 540m
param *.uav[85].startX 2185m
param *.uav[85].startY 3026m
param *.uav[85].startZ 778m
param *.uav[86].startX 3537m
param *.uav[86].startY 965m
param *.uav[86].startZ 539m
param *.uav[87].startX 312m
param *.uav[87].startY 1262m
param *.uav[87].startZ 540m
param *.uav[88].startX 2185m
param *.uav[88].startY 3026m
param *.uav[88].startZ 778m
param *.uav[89].startX 3537m
param *.uav[89].startY 965m
param *.uav[89].startZ 539m
param *.uav[90].startX 3537m
param *.uav[90].startY 965m
param *.uav[90].startZ 539m
param *.uav[91].startX 312m
param *.uav[91].startY 1262m
param *.uav[91].startZ 540m
param *.uav[92].startX 2185m
param *.uav[92].startY 3026m
param *.uav[92].startZ 778m
param *.uav[93].startX 3537m
param *.uav[93].startY 965m
param *.uav[93].startZ 539m
param *.uav[94].startX 312m
param *.uav[94].startY 1262m
param *.uav[94].startZ 540m
param *.uav[95].startX 2185m
param *.uav[95].startY 3026m
param *.uav[95].startZ 778m
param *.uav[96].startX 3537m
param *.uav[96].startY 965m
param *.uav[96].startZ 539m
param *.uav[97].startX 312m
param *.uav[97].startY 1262m
param *.uav[97].startZ 540m
param *.uav[98].startX 2185m
param *.uav[98].startY 3026m
param *.uav[98].startZ 778m
param *.uav[99].startX 3537m
param *.uav[99].startY 965m
param *.uav[99].startZ 539m
param *.osgEarthScene.scene "\"boston.earth\""
param *.playgroundLatitude 42.3558
param *.playgroundLongitude -71.0677
param *.playgroundWidth 400m
param *.playgroundHeight 200m
param *.channelController.connectionColor "\"#0000FF40\""
param *.channelController.showConnections false
param *.uav[*].modelURL "\"quadrocopter.small.obj.15.scale.0,0,90.rot\""
param *.uav[*].labelColor "\"#FF7C00CC\""
param *.uav[*].label2Color "\"#FF7C00EE\""
param *.uav[*].batteryCapacity 5200mAh
param *.uav[*].batteryRemaining uav[index].batteryCapacity
param *.uav[*].predictionQuantile 0.95
param *.uav[*].replacementMethod 2
param *.uav[*].weightedSumWeight 0.5
param *.cs[*].modelURL "\"chargingstation_v1.osgt.2.scale.0,0,0.rot.0,0,-15e-1.trans\""
param *.cs[*].spotsWaiting 999
param *.cs[*].spotsCharging 999
param *.cs[*].chargeEffectivenessPercentage 100
param *.cs[*].nonLinearPhaseStartPercentage 85
param *.cs[*].chargeCurrent 6.0A
param *.cs[*].prioritizeFastCharge true
param *.missionControl.replacementSearchMethod 0
param *.*.timeStep 9s

scalar OsgEarthNet.uav[0] utilizationSecMission 39583.312375307
scalar OsgEarthNet.uav[0] utilizationSecMaintenance 15904.207275214
scalar OsgEarthNet.uav[0] utilizationSecCharge 195368.52130262
scalar OsgEarthNet.uav[0] utilizationSecIdle 8343.958046861
scalar OsgEarthNet.uav[0] utilizationEnergyMission 187160.11697769
scalar OsgEarthNet.uav[0] utilizationEnergyMaintenance 73739.384239197
scalar OsgEarthNet.uav[0] utilizationEnergyCharge 261776.30004883
scalar OsgEarthNet.uav[0] utilizationEnergyOverdrawMission 0
scalar OsgEarthNet.uav[0] utilizationEnergyOverdrawMaintenance 0
scalar OsgEarthNet.uav[0] utilizationCountMissions 57
scalar OsgEarthNet.uav[0] utilizationCountManeuversMission 1058
scalar OsgEarthNet.uav[0] utilizationCountManeuversMaintenance 114
scalar OsgEarthNet.uav[0] utilizationCountChargeState 57
scalar OsgEarthNet.uav[0] utilizationCountOverdrawnAfterMission 0
scalar OsgEarthNet.uav[0] utilizationCountIdleState 34
scalar OsgEarthNet.uav[0] utilizationFail 0
scalar OsgEarthNet.uav[0] simulationTime 259200
scalar OsgEarthNet.uav[1] utilizationSecMission 22175.787577769
scalar OsgEarthNet.uav[1] utilizationSecMaintenance 14651.679962706
scalar OsgEarthNet.uav[1] utilizationSecCharge 140210.52945952
scalar OsgEarthNet.uav[1] utilizationSecIdle 82162.002
scalar OsgEarthNet.uav[1] utilizationEnergyMission 108652.65889359
scalar OsgEarthNet.uav[1] utilizationEnergyMaintenance 69148.01259613
scalar OsgEarthNet.uav[1] utilizationEnergyCharge 179044.16015625
scalar OsgEarthNet.uav[1] utilizationEnergyOverdrawMission 0
scalar OsgEarthNet.uav[1] utilizationEnergyOverdrawMaintenance 0
scalar OsgEarthNet.uav[1] utilizationCountMissions 42
scalar OsgEarthNet.uav[1] utilizationCountManeuversMission 797
scalar OsgEarthNet.uav[1] utilizationCountManeuversMaintenance 84
scalar OsgEarthNet.uav[1] utilizationCountChargeState 42
scalar OsgEarthNet.uav[1] utilizationCountOverdrawnAfterMission 0
scalar OsgEarthNet.uav[1] utilizationCountIdleState 42
scalar OsgEarthNet.uav[1] utilizationFail 0
scalar OsgEarthNet.uav[1] simulationTime 259200
scalar OsgEarthNet.uav[2] utilizationSecMission 38977.91166504
scalar OsgEarthNet.uav[2] utilizationSecMaintenance 17048.298800275
scalar OsgEarthNet.uav[2] utilizationSecCharge 196831.78653468
scalar OsgEarthNet.uav[2] utilizationSecIdle 6342.002
scalar OsgEarthNet.uav[2] utilizationEnergyMission 189627.79557037
scalar OsgEarthNet.uav[2] utilizationEnergyMaintenance 78255.942955017
scalar OsgEarthNet.uav[2] utilizationEnergyCharge 266246.63684082
scalar OsgEarthNet.uav[2] utilizationEnergyOverdrawMission 0
scalar OsgEarthNet.uav[2] utilizationEnergyOverdrawMaintenance 0
scalar OsgEarthNet.uav[2] utilizationCountMissions 58
scalar OsgEarthNet.uav[2] utilizationCountManeuversMission 1171
scalar OsgEarthNet.uav[2] utilizationCountManeuversMaintenance 116
scalar OsgEarthNet.uav[2] utilizationCountChargeState 58
scalar OsgEarthNet.uav[2] utilizationCountOverdrawnAfterMission 0
scalar OsgEarthNet.uav[2] utilizationCountIdleState 27
scalar OsgEarthNet.uav[2] utilizationFail 0
scalar OsgEarthNet.uav[2] simulationTime 259200
scalar OsgEarthNet.uav[3] utilizationSecMission 23591.768823946
scalar OsgEarthNet.uav[3] utilizationSecMaintenance 13865.340483828
scalar OsgEarthNet.uav[3] utilizationSecCharge 135670.88969223
scalar OsgEarthNet.uav[3] utilizationSecIdle 86072
scalar OsgEarthNet.uav[3] utilizationEnergyMission 113244.72465134
scalar OsgEarthNet.uav[3] utilizationEnergyMaintenance 65995.50024414
scalar OsgEarthNet.uav[3] utilizationEnergyCharge 175684.93920898
scalar OsgEarthNet.uav[3] utilizationEnergyOverdrawMission 0
scalar OsgEarthNet.uav[3] utilizationEnergyOverdrawMaintenance 0
scalar OsgEarthNet.uav[3] utilizationCountMissions 39
scalar OsgEarthNet.uav[3] utilizationCountManeuversMission 702
scalar OsgEarthNet.uav[3] utilizationCountManeuversMaintenance 78
scalar OsgEarthNet.uav[3] utilizationCountChargeState 39
scalar OsgEarthNet.uav[3] utilizationCountOverdrawnAfterMission 0
scalar OsgEarthNet.uav[3] utilizationCountIdleState 39
scalar OsgEarthNet.uav[3] utilizationFail 0
scalar OsgEarthNet.uav[3] simulationTime 259200
scalar OsgEarthNet.uav[4] utilizationSecMission 19838.240138763
scalar OsgEarthNet.uav[4] utilizationSecMaintenance 12703.456858699
scalar OsgEarthNet.uav[4] utilizationSecCharge 123414.63382455
scalar OsgEarthNet.uav[4] utilizationSecIdle 103243.66817799
scalar OsgEarthNet.uav[4] utilizationEnergyMission 95163.093482971
scalar OsgEarthNet.uav[4] utilizationEnergyMaintenance 60304.16229248
scalar OsgEarthNet.uav[4] utilizationEnergyCharge 153767.00537109
scalar OsgEarthNet.uav[4] utilizationEnergyOverdrawMission 0
scalar OsgEarthNet.uav[4] utilizationEnergyOverdrawMaintenance 0
scalar OsgEarthNet.uav[4] utilizationCountMissions 39
scalar OsgEarthNet.uav[4] utilizationCountManeuversMission 583
scalar OsgEarthNet.uav[4] utilizationCountManeuversMaintenance 78
scalar OsgEarthNet.uav[4] utilizationCountChargeState 39
scalar OsgEarthNet.uav[4] utilizationCountOverdrawnAfterMission 0
scalar OsgEarthNet.uav[4] utilizationCountIdleState 39
scalar OsgEarthNet.uav[4] utilizationFail 0
scalar OsgEarthNet.uav[4] simulationTime 259200
scalar OsgEarthNet.uav[5] utilizationSecMission 38574.027528031
scalar OsgEarthNet.uav[5] utilizationSecMaintenance 17087.391427783
scalar OsgEarthNet.uav[5] utilizationSecCharge 196220
scalar OsgEarthNet.uav[5] utilizationSecIdle 7318.5800441858
scalar OsgEarthNet.uav[5] utilizationEnergyMission 184559.57522583
scalar OsgEarthNet.uav[5] utilizationEnergyMaintenance 78644.584026337
scalar OsgEarthNet.uav[5] utilizationEnergyCharge 264766.11474609
scalar OsgEarthNet.uav[5] utilizationEnergyOverdrawMission 0
scalar OsgEarthNet.uav[5] utilizationEnergyOverdrawMaintenance 0
scalar OsgEarthNet.uav[5] utilizationCountMissions 57
scalar OsgEarthNet.uav[5] utilizationCountManeuversMission 1105
scalar OsgEarthNet.uav[5] utilizationCountManeuversMaintenance 114
scalar OsgEarthNet.uav[5] utilizationCountChargeState 57
scalar OsgEarthNet.uav[5] utilizationCountOverdrawnAfterMission 0
scalar OsgEarthNet.uav[5] utilizationCountIdleState 31
scalar OsgEarthNet.uav[5] utilizationFail 0
scalar OsgEarthNet.uav[5] simulationTime 259200
scalar OsgEarthNet.uav[6] utilizationSecMission 37446.658198575
scalar OsgEarthNet.uav[6] utilizationSecMaintenance 17166.531341912
scalar OsgEarthNet.uav[6] utilizationSecCharge 196115.86020385
scalar OsgEarthNet.uav[6] utilizationSecIdle 8470.9492556647
scalar OsgEarthNet.uav[6] utilizationEnergyMission 182630.83463287
scalar OsgEarthNet.uav[6] utilizationEnergyMaintenance 80316.432964325
scalar OsgEarthNet.uav[6] utilizationEnergyCharge 263618.54174805
scalar OsgEarthNet.uav[6] utilizationEnergyOverdrawMission 0
scalar OsgEarthNet.uav[6] utilizationEnergyOverdrawMaintenance 0
scalar OsgEarthNet.uav[6] utilizationCountMissions 57
scalar OsgEarthNet.uav[6] utilizationCountManeuversMission 1256
scalar OsgEarthNet.uav[6] utilizationCountManeuversMaintenance 114
scalar OsgEarthNet.uav[6] utilizationCountChargeState 57
scalar OsgEarthNet.uav[6] utilizationCountOverdrawnAfterMission 0
scalar OsgEarthNet.uav[6] utilizationCountIdleState 31
scalar OsgEarthNet.uav[6] utilizationFail 0
scalar OsgEarthNet.uav[6] simulationTime 259200
scalar OsgEarthNet.uav[7] utilizationSecMission 16053.7486165
scalar OsgEarthNet.uav[7] utilizationSecMaintenance 10814.49059897
scalar OsgEarthNet.uav[7] utilizationSecCharge 104410
scalar OsgEarthNet.uav[7] utilizationSecIdle 127921.75978453
scalar OsgEarthNet.uav[7] utilizationEnergyMission 78151.194755554
scalar OsgEarthNet.uav[7] utilizationEnergyMaintenance 51215.188293457
scalar OsgEarthNet.uav[7] utilizationEnergyCharge 130378.15014648
scalar OsgEarthNet.uav[7] utilizationEnergyOverdrawMission 0
scalar OsgEarthNet.uav[7] utilizationEnergyOverdrawMaintenance 0
scalar OsgEarthNet.uav[7] utilizationCountMissions 32
scalar OsgEarthNet.uav[7] utilizationCountManeuversMission 542
scalar OsgEarthNet.uav[7] utilizationCountManeuversMaintenance 64
scalar OsgEarthNet.uav[7] utilizationCountChargeState 32
scalar OsgEarthNet.uav[7] utilizationCountOverdrawnAfterMission 0
scalar OsgEarthNet.uav[7] utilizationCountIdleState 33
scalar OsgEarthNet.uav[7] utilizationFail 0
scalar OsgEarthNet.uav[7] simulationTime 259200
scalar OsgEarthNet.uav[8] utilizationSecMission 38743.473469075
scalar OsgEarthNet.uav[8] utilizationSecMaintenance 16549.633570657
scalar OsgEarthNet.uav[8] utilizationSecCharge 196624.88796027
scalar OsgEarthNet.uav[8] utilizationSecIdle 7282.004
scalar OsgEarthNet.uav[8] utilizationEnergyMission 188667.63576126
scalar OsgEarthNet.uav[8] utilizationEnergyMaintenance 76291.614452362
scalar OsgEarthNet.uav[8] utilizationEnergyCharge 263281.72998047
scalar OsgEarthNet.uav[8] utilizationEnergyOverdrawMission 0
scalar OsgEarthNet.uav[8] utilizationEnergyOverdrawMaintenance 0
scalar OsgEarthNet.uav[8] utilizationCountMissions 57
scalar OsgEarthNet.uav[8] utilizationCountManeuversMission 1182
scalar OsgEarthNet.uav[8] utilizationCountManeuversMaintenance 114
scalar OsgEarthNet.uav[8] utilizationCountChargeState 57
scalar OsgEarthNet.uav[8] utilizationCountOverdrawnAfterMission 0
scalar OsgEarthNet.uav[8] utilizationCountIdleState 38
scalar OsgEarthNet.uav[8] utilizationFail 0
scalar OsgEarthNet.uav[8] simulationTime 259200
scalar OsgEarthNet.uav[9] utilizationSecMission 38653.430652135
scalar OsgEarthNet.uav[9] utilizationSecMaintenance 16942.197861866
scalar OsgEarthNet.uav[9] utilizationSecCharge 196120
scalar OsgEarthNet.uav[9] utilizationSecIdle 7484.3704859987
scalar OsgEarthNet.uav[9] utilizationEnergyMission 184558.11787066
scalar OsgEarthNet.uav[9] utilizationEnergyMaintenance 78508.225608826
scalar OsgEarthNet.uav[9] utilizationEnergyCharge 261609.25170898
scalar OsgEarthNet.uav[9] utilizationEnergyOverdrawMission 0
scalar OsgEarthNet.uav[9] utilizationEnergyOverdrawMaintenance 0
scalar OsgEarthNet.uav[9] utilizationCountMissions 57
scalar OsgEarthNet.uav[9] utilizationCountManeuversMission 1123
scalar OsgEarthNet.uav[9] utilizationCountManeuversMaintenance 115
scalar OsgEarthNet.uav[9] utilizationCountChargeState 57
scalar OsgEarthNet.uav[9] utilizationCountOverdrawnAfterMission 0
scalar OsgEarthNet.uav[9] utilizationCountIdleState 28
scalar OsgEarthNet.uav[9] utilizationFail 0
scalar OsgEarthNet.uav[9] simulationTime 259200
scalar OsgEarthNet.uav[10] utilizationSecMission 11645.001220642
scalar OsgEarthNet.uav[10] utilizationSecMaintenance 7351.20558655
scalar OsgEarthNet.uav[10] utilizationSecCharge 70760
scalar OsgEarthNet.uav[10] utilizationSecIdle 169443.79219281
scalar OsgEarthNet.uav[10] utilizationEnergyMission 57247.7643013
scalar OsgEarthNet.uav[10] utilizationEnergyMaintenance 34723.04649353
scalar OsgEarthNet.uav[10] utilizationEnergyCharge 91629.443359375
scalar OsgEarthNet.uav[10] utilizationEnergyOverdrawMission 0
scalar OsgEarthNet.uav[10] utilizationEnergyOverdrawMaintenance 0
scalar OsgEarthNet.uav[10] utilizationCountMissions 20
scalar OsgEarthNet.uav[10] utilizationCountManeuversMission 374
scalar OsgEarthNet.uav[10] utilizationCountManeuversMaintenance 40
scalar OsgEarthNet.uav[10] utilizationCountChargeState 20
scalar OsgEarthNet.uav[10] utilizationCountOverdrawnAfterMission 0
scalar OsgEarthNet.uav[10] utilizationCountIdleState 21
scalar OsgEarthNet.uav[10] utilizationFail 0
scalar OsgEarthNet.uav[10] simulationTime 259200
scalar OsgEarthNet.uav[11] utilizationSecMission 24370.940335012
scalar OsgEarthNet.uav[11] utilizationSecMaintenance 15823.437356417
scalar OsgEarthNet.uav[11] utilizationSecCharge 152793.62030857
scalar OsgEarthNet.uav[11] utilizationSecIdle 66212.001
scalar OsgEarthNet.uav[11] utilizationEnergyMission 118438.27886963
scalar OsgEarthNet.uav[11] utilizationEnergyMaintenance 76086.354808807
scalar OsgEarthNet.uav[11] utilizationEnergyCharge 190524.41699219
scalar OsgEarthNet.uav[11] utilizationEnergyOverdrawMission 0
scalar OsgEarthNet.uav[11] utilizationEnergyOverdrawMaintenance 0
scalar OsgEarthNet.uav[11] utilizationCountMissions 48
scalar OsgEarthNet.uav[11] utilizationCountManeuversMission 750
scalar OsgEarthNet.uav[11] utilizationCountManeuversMaintenance 96
scalar OsgEarthNet.uav[11] utilizationCountChargeState 48
scalar OsgEarthNet.uav[11] utilizationCountOverdrawnAfterMission 0
scalar OsgEarthNet.uav[11] utilizationCountIdleState 48
scalar OsgEarthNet.uav[11] utilizationFail 0
scalar OsgEarthNet.uav[11] simulationTime 259200
scalar OsgEarthNet.uav[12] utilizationSecMission 37933.172846255
scalar OsgEarthNet.uav[12] utilizationSecMaintenance 16885.094480038
scalar OsgEarthNet.uav[12] utilizationSecCharge 196439.72667371
scalar OsgEarthNet.uav[12] utilizationSecIdle 7942.005
scalar OsgEarthNet.uav[12] utilizationEnergyMission 185985.18689728
scalar OsgEarthNet.uav[12] utilizationEnergyMaintenance 77877.024562836
scalar OsgEarthNet.uav[12] utilizationEnergyCharge 263705.58691406
scalar OsgEarthNet.uav[12] utilizationEnergyOverdrawMission 0
scalar OsgEarthNet.uav[12] utilizationEnergyOverdrawMaintenance 0
scalar OsgEarthNet.uav[12] utilizationCountMissions 57
scalar OsgEarthNet.uav[12] utilizationCountManeuversMission 1134
scalar OsgEarthNet.uav[12] utilizationCountManeuversMaintenance 114
scalar OsgEarthNet.uav[12] utilizationCountChargeState 57
scalar OsgEarthNet.uav[12] utilizationCountOverdrawnAfterMission 0
scalar OsgEarthNet.uav[12] utilizationCountIdleState 28
scalar OsgEarthNet.uav[12] utilizationFail 0
scalar OsgEarthNet.uav[12] simulationTime 259200
scalar OsgEarthNet.uav[13] utilizationSecMission 11974.743181892
scalar OsgEarthNet.uav[13] utilizationSecMaintenance 7657.0147314272
scalar OsgEarthNet.uav[13] utilizationSecCharge 73650
scalar OsgEarthNet.uav[13] utilizationSecIdle 165918.24108668
scalar OsgEarthNet.uav[13] utilizationEnergyMission 57480.02904129
scalar OsgEarthNet.uav[13] utilizationEnergyMaintenance 36294.138393402
scalar OsgEarthNet.uav[13] utilizationEnergyCharge 94634.15625
scalar OsgEarthNet.uav[13] utilizationEnergyOverdrawMission 0
scalar OsgEarthNet.uav[13] utilizationEnergyOverdrawMaintenance 0
scalar OsgEarthNet.uav[13] utilizationCountMissions 21
scalar OsgEarthNet.uav[13] utilizationCountManeuversMission 395
scalar OsgEarthNet.uav[13] utilizationCountManeuversMaintenance 42
scalar OsgEarthNet.uav[13] utilizationCountChargeState 21
scalar OsgEarthNet.uav[13] utilizationCountOverdrawnAfterMission 0
scalar OsgEarthNet.uav[13] utilizationCountIdleState 22
scalar OsgEarthNet.uav[13] utilizationFail 0
scalar OsgEarthNet.uav[13] simulationTime 259200
scalar OsgEarthNet.uav[14] utilizationSecMission 21304.203051617
scalar OsgEarthNet.uav[14] utilizationSecMaintenance 15135.563156294
scalar OsgEarthNet.uav[14] utilizationSecCharge 139858.22879209
scalar OsgEarthNet.uav[14] utilizationSecIdle 82902.004
scalar OsgEarthNet.uav[14] utilizationEnergyMission 104573.39230347
scalar OsgEarthNet.uav[14] utilizationEnergyMaintenance 71312.718387604
scalar OsgEarthNet.uav[14] utilizationEnergyCharge 175860.47216797
scalar OsgEarthNet.uav[14] utilizationEnergyOverdrawMission 0
scalar OsgEarthNet.uav[14] utilizationEnergyOverdrawMaintenance 0
scalar OsgEarthNet.uav[14] utilizationCountMissions 43
scalar OsgEarthNet.uav[14] utilizationCountManeuversMission 819
scalar OsgEarthNet.uav[14] utilizationCountManeuversMaintenance 86
scalar OsgEarthNet.uav[14] utilizationCountChargeState 43
scalar OsgEarthNet.uav[14] utilizationCountOverdrawnAfterMission 0
scalar OsgEarthNet.uav[14] utilizationCountIdleState 43
scalar OsgEarthNet.uav[14] utilizationFail 0
scalar OsgEarthNet.uav[14] simulationTime 259200
scalar OsgEarthNet.uav[15] utilizationSecMission 39126.977956749
scalar OsgEarthNet.uav[15] utilizationSecMaintenance 16792.675567029
scalar OsgEarthNet.uav[15] utilizationSecCharge 196772.89521219
scalar OsgEarthNet.uav[15] utilizationSecIdle 6507.4502640309
scalar OsgEarthNet.uav[15] utilizationEnergyMission 190000.43480682
scalar OsgEarthNet.uav[15] utilizationEnergyMaintenance 77683.01121521
scalar OsgEarthNet.uav[15] utilizationEnergyCharge 266003.92871094
scalar OsgEarthNet.uav[15] utilizationEnergyOverdrawMission 0
scalar OsgEarthNet.uav[15] utilizationEnergyOverdrawMaintenance 0
scalar OsgEarthNet.uav[15] utilizationCountMissions 58
scalar OsgEarthNet.uav[15] utilizationCountManeuversMission 1195
scalar OsgEarthNet.uav[15] utilizationCountManeuversMaintenance 116
scalar OsgEarthNet.uav[15] utilizationCountChargeState 58
scalar OsgEarthNet.uav[15] utilizationCountOverdrawnAfterMission 0
scalar OsgEarthNet.uav[15] utilizationCountIdleState 30
scalar OsgEarthNet.uav[15] utilizationFail 0
scalar OsgEarthNet.uav[15] simulationTime 259200
scalar OsgEarthNet.uav[16] utilizationSecMission 21028.017908464
scalar OsgEarthNet.uav[16] utilizationSecMaintenance 14136.480842533
scalar OsgEarthNet.uav[16] utilizationSecCharge 127243.497249
scalar OsgEarthNet.uav[16] utilizationSecIdle 96792.003
scalar OsgEarthNet.uav[16] utilizationEnergyMission 102250.43451309
scalar OsgEarthNet.uav[16] utilizationEnergyMaintenance 67146.158657074
scalar OsgEarthNet.uav[16] utilizationEnergyCharge 164155.19598389
scalar OsgEarthNet.uav[16] utilizationEnergyOverdrawMission 0
scalar OsgEarthNet.uav[16] utilizationEnergyOverdrawMaintenance 0
scalar OsgEarthNet.uav[16] utilizationCountMissions 37
scalar OsgEarthNet.uav[16] utilizationCountManeuversMission 730
scalar OsgEarthNet.uav[16] utilizationCountManeuversMaintenance 74
scalar OsgEarthNet.uav[16] utilizationCountChargeState 37
scalar OsgEarthNet.uav[16] utilizationCountOverdrawnAfterMission 0
scalar OsgEarthNet.uav[16] utilizationCountIdleState 37
scalar OsgEarthNet.uav[16] utilizationFail 0
scalar OsgEarthNet.uav[16] simulationTime 259200
scalar OsgEarthNet.uav[17] utilizationSecMission 19417.812118101
scalar OsgEarthNet.uav[17] utilizationSecMaintenance 14288.516107931
scalar OsgEarthNet.uav[17] utilizationSecCharge 131771.66477397
scalar OsgEarthNet.uav[17] utilizationSecIdle 93722.006
scalar OsgEarthNet.uav[17] utilizationEnergyMission 95720.757331848
scalar OsgEarthNet.uav[17] utilizationEnergyMaintenance 67969.148582458
scalar OsgEarthNet.uav[17] utilizationEnergyCharge 163185.1105957
scalar OsgEarthNet.uav[17] utilizationEnergyOverdrawMission 0
scalar OsgEarthNet.uav[17] utilizationEnergyOverdrawMaintenance 0
scalar OsgEarthNet.uav[17] utilizationCountMissions 42
scalar OsgEarthNet.uav[17] utilizationCountManeuversMission 694
scalar OsgEarthNet.uav[17] utilizationCountManeuversMaintenance 84
scalar OsgEarthNet.uav[17] utilizationCountChargeState 42
scalar OsgEarthNet.uav[17] utilizationCountOverdrawnAfterMission 0
scalar OsgEarthNet.uav[17] utilizationCountIdleState 42
scalar OsgEarthNet.uav[17] utilizationFail 0
scalar OsgEarthNet.uav[17] simulationTime 259200
scalar OsgEarthNet.uav[18] utilizationSecMission 40004.072261699
scalar OsgEarthNet.uav[18] utilizationSecMaintenance 16155.676678815
scalar OsgEarthNet.uav[18] utilizationSecCharge 197858.25005949
scalar OsgEarthNet.uav[18] utilizationSecIdle 5182
scalar OsgEarthNet.uav[18] utilizationEnergyMission 192356.7863887
scalar OsgEarthNet.uav[18] utilizationEnergyMaintenance 73557.096214294
scalar OsgEarthNet.uav[18] utilizationEnergyCharge 265642.45654297
scalar OsgEarthNet.uav[18] utilizationEnergyOverdrawMission 0
scalar OsgEarthNet.uav[18] utilizationEnergyOverdrawMaintenance 0
scalar OsgEarthNet.uav[18] utilizationCountMissions 58
scalar OsgEarthNet.uav[18] utilizationCountManeuversMission 1114
scalar OsgEarthNet.uav[18] utilizationCountManeuversMaintenance 115
scalar OsgEarthNet.uav[18] utilizationCountChargeState 58
scalar OsgEarthNet.uav[18] utilizationCountOverdrawnAfterMission 0
scalar OsgEarthNet.uav[18] utilizationCountIdleState 33
scalar OsgEarthNet.uav[18] utilizationFail 0
scalar OsgEarthNet.uav[18] simulationTime 259200
scalar OsgEarthNet.uav[19] utilizationSecMission 19687.501830963
scalar OsgEarthNet.uav[19] utilizationSecMaintenance 13133.066744411
scalar OsgEarthNet.uav[19] utilizationSecCharge 122337.42542463
scalar OsgEarthNet.uav[19] utilizationSecIdle 104042.005
scalar OsgEarthNet.uav[19] utilizationEnergyMission 96527.903774261
scalar OsgEarthNet.uav[19] utilizationEnergyMaintenance 62450.075565338
scalar OsgEarthNet.uav[19] utilizationEnergyCharge 158206.7265625
scalar OsgEarthNet.uav[19] utilizationEnergyOverdrawMission 0
scalar OsgEarthNet.uav[19] utilizationEnergyOverdrawMaintenance 0
scalar OsgEarthNet.uav[19] utilizationCountMissions 35
scalar OsgEarthNet.uav[19] utilizationCountManeuversMission 672
scalar OsgEarthNet.uav[19] utilizationCountManeuversMaintenance 70
scalar OsgEarthNet.uav[19] utilizationCountChargeState 35
scalar OsgEarthNet.uav[19] utilizationCountOverdrawnAfterMission 0
scalar OsgEarthNet.uav[19] utilizationCountIdleState 35
scalar OsgEarthNet.uav[19] utilizationFail 0
scalar OsgEarthNet.uav[19] simulationTime 259200
scalar OsgEarthNet.uav[20] utilizationSecMission 19048.126983544
scalar OsgEarthNet.uav[20] utilizationSecMaintenance 12081.345158175
scalar OsgEarthNet.uav[20] utilizationSecCharge 114449.95642522
scalar OsgEarthNet.uav[20] utilizationSecIdle 113620.57043306
scalar OsgEarthNet.uav[20] utilizationEnergyMission 91183.448329926
scalar OsgEarthNet.uav[20] utilizationEnergyMaintenance 57554.434410095
scalar OsgEarthNet.uav[20] utilizationEnergyCharge 148649.51147461
scalar OsgEarthNet.uav[20] utilizationEnergyOverdrawMission 0
scalar OsgEarthNet.uav[20] utilizationEnergyOverdrawMaintenance 0
scalar OsgEarthNet.uav[20] utilizationCountMissions 33
scalar OsgEarthNet.uav[20] utilizationCountManeuversMission 614
scalar OsgEarthNet.uav[20] utilizationCountManeuversMaintenance 66
scalar OsgEarthNet.uav[20] utilizationCountChargeState 33
scalar OsgEarthNet.uav[20] utilizationCountOverdrawnAfterMission 0
scalar OsgEarthNet.uav[20] utilizationCountIdleState 33
scalar OsgEarthNet.uav[20] utilizationFail 0
scalar OsgEarthNet.uav[20] simulationTime 259200
scalar OsgEarthNet.uav[21] utilizationSecMission 21836.903247866
scalar OsgEarthNet.uav[21] utilizationSecMaintenance 15497.32509511
scalar OsgEarthNet.uav[21] utilizationSecCharge 144075.75038288
scalar OsgEarthNet.uav[21] utilizationSecIdle 77790.020274145
scalar OsgEarthNet.uav[21] utilizationEnergyMission 108361.90218735
scalar OsgEarthNet.uav[21] utilizationEnergyMaintenance 73119.264839172
scalar OsgEarthNet.uav[21] utilizationEnergyCharge 180633.19726562
scalar OsgEarthNet.uav[21] utilizationEnergyOverdrawMission 0
scalar OsgEarthNet.uav[21] utilizationEnergyOverdrawMaintenance 0
scalar OsgEarthNet.uav[21] utilizationCountMissions 45
scalar OsgEarthNet.uav[21] utilizationCountManeuversMission 786
scalar OsgEarthNet.uav[21] utilizationCountManeuversMaintenance 90
scalar OsgEarthNet.uav[21] utilizationCountChargeState 45
scalar OsgEarthNet.uav[21] utilizationCountOverdrawnAfterMission 0
scalar OsgEarthNet.uav[21] utilizationCountIdleState 45
scalar OsgEarthNet.uav[21] utilizationFail 0
scalar OsgEarthNet.uav[21] simulationTime 259200
scalar OsgEarthNet.uav[22] utilizationSecMission 40835.276250073
scalar OsgEarthNet.uav[22] utilizationSecMaintenance 15809.27290887
scalar OsgEarthNet.uav[22] utilizationSecCharge 196723.44984106
scalar OsgEarthNet.uav[22] utilizationSecIdle 5832
scalar OsgEarthNet.uav[22] utilizationEnergyMission 192769.84755759
scalar OsgEarthNet.uav[22] utilizationEnergyMaintenance 73341.717151642
scalar OsgEarthNet.uav[22] utilizationEnergyCharge 263951.9342041
scalar OsgEarthNet.uav[22] utilizationEnergyOverdrawMission 0
scalar OsgEarthNet.uav[22] utilizationEnergyOverdrawMaintenance 0
scalar OsgEarthNet.uav[22] utilizationCountMissions 58
scalar OsgEarthNet.uav[22] utilizationCountManeuversMission 1125
scalar OsgEarthNet.uav[22] utilizationCountManeuversMaintenance 115
scalar OsgEarthNet.uav[22] utilizationCountChargeState 58
scalar OsgEarthNet.uav[22] utilizationCountOverdrawnAfterMission 0
scalar OsgEarthNet.uav[22] utilizationCountIdleState 32
scalar OsgEarthNet.uav[22] utilizationFail 0
scalar OsgEarthNet.uav[22] simulationTime 259200
scalar OsgEarthNet.uav[23] utilizationSecMission 22139.119249954
scalar OsgEarthNet.uav[23] utilizationSecMaintenance 14048.875750046
scalar OsgEarthNet.uav[23] utilizationSecCharge 134230
scalar OsgEarthNet.uav[23] utilizationSecIdle 88782.004
scalar OsgEarthNet.uav[23] utilizationEnergyMission 107509.02623749
scalar OsgEarthNet.uav[23] utilizationEnergyMaintenance 66723.050369858
scalar OsgEarthNet.uav[23] utilizationEnergyCharge 173170.68408203
scalar OsgEarthNet.uav[23] utilizationEnergyOverdrawMission 0
scalar OsgEarthNet.uav[23] utilizationEnergyOverdrawMaintenance 0
scalar OsgEarthNet.uav[23] utilizationCountMissions 38
scalar OsgEarthNet.uav[23] utilizationCountManeuversMission 721
scalar OsgEarthNet.uav[23] utilizationCountManeuversMaintenance 77
scalar OsgEarthNet.uav[23] utilizationCountChargeState 38
scalar OsgEarthNet.uav[23] utilizationCountOverdrawnAfterMission 0
scalar OsgEarthNet.uav[23] utilizationCountIdleState 39
scalar OsgEarthNet.uav[23] utilizationFail 0
scalar OsgEarthNet.uav[23] simulationTime 259200
scalar OsgEarthNet.uav[24] utilizationSecMission 21419.355808861
scalar OsgEarthNet.uav[24] utilizationSecMaintenance 14352.759325411
scalar OsgEarthNet.uav[24] utilizationSecCharge 138650
scalar OsgEarthNet.uav[24] utilizationSecIdle 84777.883865728
scalar OsgEarthNet.uav[24] utilizationEnergyMission 104408.63044739
scalar OsgEarthNet.uav[24] utilizationEnergyMaintenance 68195.722286224
scalar OsgEarthNet.uav[24] utilizationEnergyCharge 170907.3762207
scalar OsgEarthNet.uav[24] utilizationEnergyOverdrawMission 0
scalar OsgEarthNet.uav[24] utilizationEnergyOverdrawMaintenance 0
scalar OsgEarthNet.uav[24] utilizationCountMissions 44
scalar OsgEarthNet.uav[24] utilizationCountManeuversMission 668
scalar OsgEarthNet.uav[24] utilizationCountManeuversMaintenance 88
scalar OsgEarthNet.uav[24] utilizationCountChargeState 44
scalar OsgEarthNet.uav[24] utilizationCountOverdrawnAfterMission 0
scalar OsgEarthNet.uav[24] utilizationCountIdleState 45
scalar OsgEarthNet.uav[24] utilizationFail 0
scalar OsgEarthNet.uav[24] simulationTime 259200
scalar OsgEarthNet.uav[25] utilizationSecMission 41002.311696461
scalar OsgEarthNet.uav[25] utilizationSecMaintenance 15228.059438866
scalar OsgEarthNet.uav[25] utilizationSecCharge 195507.95481309
scalar OsgEarthNet.uav[25] utilizationSecIdle 7461.6730515863
scalar OsgEarthNet.uav[25] utilizationEnergyMission 196070.83972168
scalar OsgEarthNet.uav[25] utilizationEnergyMaintenance 69425.907333374
scalar OsgEarthNet.uav[25] utilizationEnergyCharge 261896.07836914
scalar OsgEarthNet.uav[25] utilizationEnergyOverdrawMission 0
scalar OsgEarthNet.uav[25] utilizationEnergyOverdrawMaintenance 0
scalar OsgEarthNet.uav[25] utilizationCountMissions 57
scalar OsgEarthNet.uav[25] utilizationCountManeuversMission 1161
scalar OsgEarthNet.uav[25] utilizationCountManeuversMaintenance 114
scalar OsgEarthNet.uav[25] utilizationCountChargeState 57
scalar OsgEarthNet.uav[25] utilizationCountOverdrawnAfterMission 0
scalar OsgEarthNet.uav[25] utilizationCountIdleState 34
scalar OsgEarthNet.uav[25] utilizationFail 0
scalar OsgEarthNet.uav[25] simulationTime 259200
scalar OsgEarthNet.uav[26] utilizationSecMission 38893.414758666
scalar OsgEarthNet.uav[26] utilizationSecMaintenance 16465.414077083
scalar OsgEarthNet.uav[26] utilizationSecCharge 194668.81871121
scalar OsgEarthNet.uav[26] utilizationSecIdle 9172.3514530398
scalar OsgEarthNet.uav[26] utilizationEnergyMission 187410.04930496
scalar OsgEarthNet.uav[26] utilizationEnergyMaintenance 74948.58165741
scalar OsgEarthNet.uav[26] utilizationEnergyCharge 260136.59985352
scalar OsgEarthNet.uav[26] utilizationEnergyOverdrawMission 0
scalar OsgEarthNet.uav[26] utilizationEnergyOverdrawMaintenance 0
scalar OsgEarthNet.uav[26] utilizationCountMissions 57
scalar OsgEarthNet.uav[26] utilizationCountManeuversMission 1089
scalar OsgEarthNet.uav[26] utilizationCountManeuversMaintenance 114
scalar OsgEarthNet.uav[26] utilizationCountChargeState 57
scalar OsgEarthNet.uav[26] utilizationCountOverdrawnAfterMission 0
scalar OsgEarthNet.uav[26] utilizationCountIdleState 33
scalar OsgEarthNet.uav[26] utilizationFail 0
scalar OsgEarthNet.uav[26] simulationTime 259200
scalar OsgEarthNet.uav[27] utilizationSecMission 38514.503719518
scalar OsgEarthNet.uav[27] utilizationSecMaintenance 17240.052191792
scalar OsgEarthNet.uav[27] utilizationSecCharge 195640
scalar OsgEarthNet.uav[27] utilizationSecIdle 7805.4430886909
scalar OsgEarthNet.uav[27] utilizationEnergyMission 189348.52355576
scalar OsgEarthNet.uav[27] utilizationEnergyMaintenance 79394.727645789
scalar OsgEarthNet.uav[27] utilizationEnergyCharge 263039.05712891
scalar OsgEarthNet.uav[27] utilizationEnergyOverdrawMission 0
scalar OsgEarthNet.uav[27] utilizationEnergyOverdrawMaintenance 0
scalar OsgEarthNet.uav[27] utilizationCountMissions 58
scalar OsgEarthNet.uav[27] utilizationCountManeuversMission 1276
scalar OsgEarthNet.uav[27] utilizationCountManeuversMaintenance 116
scalar OsgEarthNet.uav[27] utilizationCountChargeState 57
scalar OsgEarthNet.uav[27] utilizationCountOverdrawnAfterMission 0
scalar OsgEarthNet.uav[27] utilizationCountIdleState 28
scalar OsgEarthNet.uav[27] utilizationFail 0
scalar OsgEarthNet.uav[27] simulationTime 259200
scalar OsgEarthNet.uav[28] utilizationSecMission 38231.635643156
scalar OsgEarthNet.uav[28] utilizationSecMaintenance 16604.780589513
scalar OsgEarthNet.uav[28] utilizationSecCharge 196141.58076733
scalar OsgEarthNet.uav[28] utilizationSecIdle 8222.002
scalar OsgEarthNet.uav[28] utilizationEnergyMission 183397.41225052
scalar OsgEarthNet.uav[28] utilizationEnergyMaintenance 78006.31168747
scalar OsgEarthNet.uav[28] utilizationEnergyCharge 262421.97070312
scalar OsgEarthNet.uav[28] utilizationEnergyOverdrawMission 0
scalar OsgEarthNet.uav[28] utilizationEnergyOverdrawMaintenance 0
scalar OsgEarthNet.uav[28] utilizationCountMissions 57
scalar OsgEarthNet.uav[28] utilizationCountManeuversMission 1188
scalar OsgEarthNet.uav[28] utilizationCountManeuversMaintenance 114
scalar OsgEarthNet.uav[28] utilizationCountChargeState 57
scalar OsgEarthNet.uav[28] utilizationCountOverdrawnAfterMission 0
scalar OsgEarthNet.uav[28] utilizationCountIdleState 34
scalar OsgEarthNet.uav[28] utilizationFail 0
scalar OsgEarthNet.uav[28] simulationTime 259200
scalar OsgEarthNet.uav[29] utilizationSecMission 22060.260480035
scalar OsgEarthNet.uav[29] utilizationSecMaintenance 13327.325419375
scalar OsgEarthNet.uav[29] utilizationSecCharge 129560.40610059
scalar OsgEarthNet.uav[29] utilizationSecIdle 94252.007
scalar OsgEarthNet.uav[29] utilizationEnergyMission 105579.68396378
scalar OsgEarthNet.uav[29] utilizationEnergyMaintenance 63430.270931244
scalar OsgEarthNet.uav[29] utilizationEnergyCharge 168394.44702148
scalar OsgEarthNet.uav[29] utilizationEnergyOverdrawMission 0
scalar OsgEarthNet.uav[29] utilizationEnergyOverdrawMaintenance 0
scalar OsgEarthNet.uav[29] utilizationCountMissions 37
scalar OsgEarthNet.uav[29] utilizationCountManeuversMission 682
scalar OsgEarthNet.uav[29] utilizationCountManeuversMaintenance 74
scalar OsgEarthNet.uav[29] utilizationCountChargeState 37
scalar OsgEarthNet.uav[29] utilizationCountOverdrawnAfterMission 0
scalar OsgEarthNet.uav[29] utilizationCountIdleState 37
scalar OsgEarthNet.uav[29] utilizationFail 0
scalar OsgEarthNet.uav[29] simulationTime 259200
scalar OsgEarthNet.uav[30] utilizationSecMission 25893.517675567
scalar OsgEarthNet.uav[30] utilizationSecMaintenance 15985.015233335
scalar OsgEarthNet.uav[30] utilizationSecCharge 155419.4660911
scalar OsgEarthNet.uav[30] utilizationSecIdle 61902
scalar OsgEarthNet.uav[30] utilizationEnergyMission 125409.31080246
scalar OsgEarthNet.uav[30] utilizationEnergyMaintenance 75909.139175415
scalar OsgEarthNet.uav[30] utilizationEnergyCharge 200830.90673828
scalar OsgEarthNet.uav[30] utilizationEnergyOverdrawMission 0
scalar OsgEarthNet.uav[30] utilizationEnergyOverdrawMaintenance 0
scalar OsgEarthNet.uav[30] utilizationCountMissions 44
scalar OsgEarthNet.uav[30] utilizationCountManeuversMission 819
scalar OsgEarthNet.uav[30] utilizationCountManeuversMaintenance 87
scalar OsgEarthNet.uav[30] utilizationCountChargeState 44
scalar OsgEarthNet.uav[30] utilizationCountOverdrawnAfterMission 0
scalar OsgEarthNet.uav[30] utilizationCountIdleState 44
scalar OsgEarthNet.uav[30] utilizationFail 0
scalar OsgEarthNet.uav[30] simulationTime 259200
scalar OsgEarthNet.uav[31] utilizationSecMission 23264.236143277
scalar OsgEarthNet.uav[31] utilizationSecMaintenance 14767.409253844
scalar OsgEarthNet.uav[31] utilizationSecCharge 144420
scalar OsgEarthNet.uav[31] utilizationSecIdle 76748.353602879
scalar OsgEarthNet.uav[31] utilizationEnergyMission 110894.29912438
scalar OsgEarthNet.uav[31] utilizationEnergyMaintenance 70153.518989563
scalar OsgEarthNet.uav[31] utilizationEnergyCharge 181070.4050293
scalar OsgEarthNet.uav[31] utilizationEnergyOverdrawMission 0
scalar OsgEarthNet.uav[31] utilizationEnergyOverdrawMaintenance 0
scalar OsgEarthNet.uav[31] utilizationCountMissions 44
scalar OsgEarthNet.uav[31] utilizationCountManeuversMission 729
scalar OsgEarthNet.uav[31] utilizationCountManeuversMaintenance 89
scalar OsgEarthNet.uav[31] utilizationCountChargeState 44
scalar OsgEarthNet.uav[31] utilizationCountOverdrawnAfterMission 0
scalar OsgEarthNet.uav[31] utilizationCountIdleState 45
scalar OsgEarthNet.uav[31] utilizationFail 0
scalar OsgEarthNet.uav[31] simulationTime 259200
scalar OsgEarthNet.uav[32] utilizationSecMission 22488.5372745
scalar OsgEarthNet.uav[32] utilizationSecMaintenance 16526.268773989
scalar OsgEarthNet.uav[32] utilizationSecCharge 144631.81710967
scalar OsgEarthNet.uav[32] utilizationSecIdle 75553.375841838
scalar OsgEarthNet.uav[32] utilizationEnergyMission 111334.07941055
scalar OsgEarthNet.uav[32] utilizationEnergyMaintenance 78787.801029205
scalar OsgEarthNet.uav[32] utilizationEnergyCharge 186773.20983887
scalar OsgEarthNet.uav[32] utilizationEnergyOverdrawMission 0
scalar OsgEarthNet.uav[32] utilizationEnergyOverdrawMaintenance 0
scalar OsgEarthNet.uav[32] utilizationCountMissions 42
scalar OsgEarthNet.uav[32] utilizationCountManeuversMission 843
scalar OsgEarthNet.uav[32] utilizationCountManeuversMaintenance 84
scalar OsgEarthNet.uav[32] utilizationCountChargeState 42
scalar OsgEarthNet.uav[32] utilizationCountOverdrawnAfterMission 0
scalar OsgEarthNet.uav[32] utilizationCountIdleState 42
scalar OsgEarthNet.uav[32] utilizationFail 0
scalar OsgEarthNet.uav[32] simulationTime 259200
scalar OsgEarthNet.uav[33] utilizationSecMission 22099.635327455
scalar OsgEarthNet.uav[33] utilizationSecMaintenance 14029.022725146
scalar OsgEarthNet.uav[33] utilizationSecCharge 134790.14435913
scalar OsgEarthNet.uav[33] utilizationSecIdle 88281.196588268
scalar OsgEarthNet.uav[33] utilizationEnergyMission 107035.43193054
scalar OsgEarthNet.uav[33] utilizationEnergyMaintenance 66404.323188782
scalar OsgEarthNet.uav[33] utilizationEnergyCharge 175679.96289062
scalar OsgEarthNet.uav[33] utilizationEnergyOverdrawMission 0
scalar OsgEarthNet.uav[33] utilizationEnergyOverdrawMaintenance 0
scalar OsgEarthNet.uav[33] utilizationCountMissions 38
scalar OsgEarthNet.uav[33] utilizationCountManeuversMission 710
scalar OsgEarthNet.uav[33] utilizationCountManeuversMaintenance 76
scalar OsgEarthNet.uav[33] utilizationCountChargeState 38
scalar OsgEarthNet.uav[33] utilizationCountOverdrawnAfterMission 0
scalar OsgEarthNet.uav[33] utilizationCountIdleState 38
scalar OsgEarthNet.uav[33] utilizationFail 0
scalar OsgEarthNet.uav[33] simulationTime 259200
scalar OsgEarthNet.uav[34] utilizationSecMission 24177.812118101
scalar OsgEarthNet.uav[34] utilizationSecMaintenance 17847.906775772
scalar OsgEarthNet.uav[34] utilizationSecCharge 160732.28010613
scalar OsgEarthNet.uav[34] utilizationSecIdle 56442
scalar OsgEarthNet.uav[34] utilizationEnergyMission 119085.33283615
scalar OsgEarthNet.uav[34] utilizationEnergyMaintenance 85196.944950104
scalar OsgEarthNet.uav[34] utilizationEnergyCharge 199844.42016602
scalar OsgEarthNet.uav[34] utilizationEnergyOverdrawMission 0
scalar OsgEarthNet.uav[34] utilizationEnergyOverdrawMaintenance 0
scalar OsgEarthNet.uav[34] utilizationCountMissions 51
scalar OsgEarthNet.uav[34] utilizationCountManeuversMission 932
scalar OsgEarthNet.uav[34] utilizationCountManeuversMaintenance 102
scalar OsgEarthNet.uav[34] utilizationCountChargeState 51
scalar OsgEarthNet.uav[34] utilizationCountOverdrawnAfterMission 0
scalar OsgEarthNet.uav[34] utilizationCountIdleState 51
scalar OsgEarthNet.uav[34] utilizationFail 0
scalar OsgEarthNet.uav[34] simulationTime 259200
scalar OsgEarthNet.uav[35] utilizationSecMission 38024.905625956
scalar OsgEarthNet.uav[35] utilizationSecMaintenance 17192.552537516
scalar OsgEarthNet.uav[35] utilizationSecCharge 195930.53783653
scalar OsgEarthNet.uav[35] utilizationSecIdle 8052.003
scalar OsgEarthNet.uav[35] utilizationEnergyMission 183173.7401123
scalar OsgEarthNet.uav[35] utilizationEnergyMaintenance 79580.830425262
scalar OsgEarthNet.uav[35] utilizationEnergyCharge 264859.47021484
scalar OsgEarthNet.uav[35] utilizationEnergyOverdrawMission 0
scalar OsgEarthNet.uav[35] utilizationEnergyOverdrawMaintenance 0
scalar OsgEarthNet.uav[35] utilizationCountMissions 57
scalar OsgEarthNet.uav[35] utilizationCountManeuversMission 1138
scalar OsgEarthNet.uav[35] utilizationCountManeuversMaintenance 114
scalar OsgEarthNet.uav[35] utilizationCountChargeState 57
scalar OsgEarthNet.uav[35] utilizationCountOverdrawnAfterMission 0
scalar OsgEarthNet.uav[35] utilizationCountIdleState 30
scalar OsgEarthNet.uav[35] utilizationFail 0
scalar OsgEarthNet.uav[35] simulationTime 259200
scalar OsgEarthNet.uav[36] utilizationSecMission 25202.870165435
scalar OsgEarthNet.uav[36] utilizationSecMaintenance 13999.376064692
scalar OsgEarthNet.uav[36] utilizationSecCharge 142885.74676987
scalar OsgEarthNet.uav[36] utilizationSecIdle 77112.006
scalar OsgEarthNet.uav[36] utilizationEnergyMission 119584.27271652
scalar OsgEarthNet.uav[36] utilizationEnergyMaintenance 67028.157207489
scalar OsgEarthNet.uav[36] utilizationEnergyCharge 185357.40234375
scalar OsgEarthNet.uav[36] utilizationEnergyOverdrawMission 0
scalar OsgEarthNet.uav[36] utilizationEnergyOverdrawMaintenance 0
scalar OsgEarthNet.uav[36] utilizationCountMissions 41
scalar OsgEarthNet.uav[36] utilizationCountManeuversMission 718
scalar OsgEarthNet.uav[36] utilizationCountManeuversMaintenance 82
scalar OsgEarthNet.uav[36] utilizationCountChargeState 41
scalar OsgEarthNet.uav[36] utilizationCountOverdrawnAfterMission 0
scalar OsgEarthNet.uav[36] utilizationCountIdleState 41
scalar OsgEarthNet.uav[36] utilizationFail 0
scalar OsgEarthNet.uav[36] simulationTime 259200
scalar OsgEarthNet.uav[37] utilizationSecMission 23985.333142652
scalar OsgEarthNet.uav[37] utilizationSecMaintenance 15471.949481153
scalar OsgEarthNet.uav[37] utilizationSecCharge 151300
scalar OsgEarthNet.uav[37] utilizationSecIdle 68442.716376195
scalar OsgEarthNet.uav[37] utilizationEnergyMission 117989.0514679
scalar OsgEarthNet.uav[37] utilizationEnergyMaintenance 73628.850692749
scalar OsgEarthNet.uav[37] utilizationEnergyCharge 193472.5612793
scalar OsgEarthNet.uav[37] utilizationEnergyOverdrawMission 0
scalar OsgEarthNet.uav[37] utilizationEnergyOverdrawMaintenance 0
scalar OsgEarthNet.uav[37] utilizationCountMissions 44
scalar OsgEarthNet.uav[37] utilizationCountManeuversMission 873
scalar OsgEarthNet.uav[37] utilizationCountManeuversMaintenance 88
scalar OsgEarthNet.uav[37] utilizationCountChargeState 44
scalar OsgEarthNet.uav[37] utilizationCountOverdrawnAfterMission 0
scalar OsgEarthNet.uav[37] utilizationCountIdleState 45
scalar OsgEarthNet.uav[37] utilizationFail 0
scalar OsgEarthNet.uav[37] simulationTime 259200
scalar OsgEarthNet.uav[38] utilizationSecMission 38740.391607075
scalar OsgEarthNet.uav[38] utilizationSecMaintenance 17412.353752047
scalar OsgEarthNet.uav[38] utilizationSecCharge 196767.82829359
scalar OsgEarthNet.uav[38] utilizationSecIdle 6279.4253472904
scalar OsgEarthNet.uav[38] utilizationEnergyMission 185764.86192703
scalar OsgEarthNet.uav[38] utilizationEnergyMaintenance 80292.773887634
scalar OsgEarthNet.uav[38] utilizationEnergyCharge 264323.85949707
scalar OsgEarthNet.uav[38] utilizationEnergyOverdrawMission 0
scalar OsgEarthNet.uav[38] utilizationEnergyOverdrawMaintenance 0
scalar OsgEarthNet.uav[38] utilizationCountMissions 58
scalar OsgEarthNet.uav[38] utilizationCountManeuversMission 1237
scalar OsgEarthNet.uav[38] utilizationCountManeuversMaintenance 116
scalar OsgEarthNet.uav[38] utilizationCountChargeState 58
scalar OsgEarthNet.uav[38] utilizationCountOverdrawnAfterMission 0
scalar OsgEarthNet.uav[38] utilizationCountIdleState 30
scalar OsgEarthNet.uav[38] utilizationFail 0
scalar OsgEarthNet.uav[38] simulationTime 259200
scalar OsgEarthNet.uav[39] utilizationSecMission 24866.876678383
scalar OsgEarthNet.uav[39] utilizationSecMaintenance 18309.061256471
scalar OsgEarthNet.uav[39] utilizationSecCharge 161930
scalar OsgEarthNet.uav[39] utilizationSecIdle 54094.061065146
scalar OsgEarthNet.uav[39] utilizationEnergyMission 121966.78245163
scalar OsgEarthNet.uav[39] utilizationEnergyMaintenance 86750.709815979
scalar OsgEarthNet.uav[39] utilizationEnergyCharge 208856.28076172
scalar OsgEarthNet.uav[39] utilizationEnergyOverdrawMission 0
scalar OsgEarthNet.uav[39] utilizationEnergyOverdrawMaintenance 0
scalar OsgEarthNet.uav[39] utilizationCountMissions 46
scalar OsgEarthNet.uav[39] utilizationCountManeuversMission 957
scalar OsgEarthNet.uav[39] utilizationCountManeuversMaintenance 92
scalar OsgEarthNet.uav[39] utilizationCountChargeState 46
scalar OsgEarthNet.uav[39] utilizationCountOverdrawnAfterMission 0
scalar OsgEarthNet.uav[39] utilizationCountIdleState 47
scalar OsgEarthNet.uav[39] utilizationFail 0
scalar OsgEarthNet.uav[39] simulationTime 259200
scalar OsgEarthNet.uav[40] utilizationSecMission 20566.251525803
scalar OsgEarthNet.uav[40] utilizationSecMaintenance 15071.240342563
scalar OsgEarthNet.uav[40] utilizationSecCharge 133789.43207773
scalar OsgEarthNet.uav[40] utilizationSecIdle 89773.075053903
scalar OsgEarthNet.uav[40] utilizationEnergyMission 102417.70578766
scalar OsgEarthNet.uav[40] utilizationEnergyMaintenance 71498.820594787
scalar OsgEarthNet.uav[40] utilizationEnergyCharge 173451.56347656
scalar OsgEarthNet.uav[40] utilizationEnergyOverdrawMission 0
scalar OsgEarthNet.uav[40] utilizationEnergyOverdrawMaintenance 0
scalar OsgEarthNet.uav[40] utilizationCountMissions 38
scalar OsgEarthNet.uav[40] utilizationCountManeuversMission 768
scalar OsgEarthNet.uav[40] utilizationCountManeuversMaintenance 76
scalar OsgEarthNet.uav[40] utilizationCountChargeState 38
scalar OsgEarthNet.uav[40] utilizationCountOverdrawnAfterMission 0
scalar OsgEarthNet.uav[40] utilizationCountIdleState 38
scalar OsgEarthNet.uav[40] utilizationFail 0
scalar OsgEarthNet.uav[40] simulationTime 259200
scalar OsgEarthNet.uav[41] utilizationSecMission 24929.810243978
scalar OsgEarthNet.uav[41] utilizationSecMaintenance 17883.246546048
scalar OsgEarthNet.uav[41] utilizationSecCharge 168079.62612814
scalar OsgEarthNet.uav[41] utilizationSecIdle 48307.316081831
scalar OsgEarthNet.uav[41] utilizationEnergyMission 121925.13356781
scalar OsgEarthNet.uav[41] utilizationEnergyMaintenance 85529.762245178
scalar OsgEarthNet.uav[41] utilizationEnergyCharge 208142.80249023
scalar OsgEarthNet.uav[41] utilizationEnergyOverdrawMission 0
scalar OsgEarthNet.uav[41] utilizationEnergyOverdrawMaintenance 0
scalar OsgEarthNet.uav[41] utilizationCountMissions 53
scalar OsgEarthNet.uav[41] utilizationCountManeuversMission 858
scalar OsgEarthNet.uav[41] utilizationCountManeuversMaintenance 106
scalar OsgEarthNet.uav[41] utilizationCountChargeState 53
scalar OsgEarthNet.uav[41] utilizationCountOverdrawnAfterMission 0
scalar OsgEarthNet.uav[41] utilizationCountIdleState 53
scalar OsgEarthNet.uav[41] utilizationFail 0
scalar OsgEarthNet.uav[41] simulationTime 259200
scalar OsgEarthNet.uav[42] utilizationSecMission 37859.625303336
scalar OsgEarthNet.uav[42] utilizationSecMaintenance 17843.668334261
scalar OsgEarthNet.uav[42] utilizationSecCharge 196870
scalar OsgEarthNet.uav[42] utilizationSecIdle 6626.7053624037
scalar OsgEarthNet.uav[42] utilizationEnergyMission 182239.01837979
scalar OsgEarthNet.uav[42] utilizationEnergyMaintenance 82708.354228973
scalar OsgEarthNet.uav[42] utilizationEnergyCharge 263595.83886719
scalar OsgEarthNet.uav[42] utilizationEnergyOverdrawMission 0
scalar OsgEarthNet.uav[42] utilizationEnergyOverdrawMaintenance 0
scalar OsgEarthNet.uav[42] utilizationCountMissions 57
scalar OsgEarthNet.uav[42] utilizationCountManeuversMission 1122
scalar OsgEarthNet.uav[42] utilizationCountManeuversMaintenance 115
scalar OsgEarthNet.uav[42] utilizationCountChargeState 57
scalar OsgEarthNet.uav[42] utilizationCountOverdrawnAfterMission 0
scalar OsgEarthNet.uav[42] utilizationCountIdleState 32
scalar OsgEarthNet.uav[42] utilizationFail 0
scalar OsgEarthNet.uav[42] simulationTime 259200
scalar OsgEarthNet.uav[43] utilizationSecMission 25002.870165435
scalar OsgEarthNet.uav[43] utilizationSecMaintenance 14086.743386661
scalar OsgEarthNet.uav[43] utilizationSecCharge 143548.3764479
scalar OsgEarthNet.uav[43] utilizationSecIdle 76562.009
scalar OsgEarthNet.uav[43] utilizationEnergyMission 120431.71503448
scalar OsgEarthNet.uav[43] utilizationEnergyMaintenance 67100.60111618
scalar OsgEarthNet.uav[43] utilizationEnergyCharge 186167.7265625
scalar OsgEarthNet.uav[43] utilizationEnergyOverdrawMission 0
scalar OsgEarthNet.uav[43] utilizationEnergyOverdrawMaintenance 0
scalar OsgEarthNet.uav[43] utilizationCountMissions 41
scalar OsgEarthNet.uav[43] utilizationCountManeuversMission 708
scalar OsgEarthNet.uav[43] utilizationCountManeuversMaintenance 82
scalar OsgEarthNet.uav[43] utilizationCountChargeState 41
scalar OsgEarthNet.uav[43] utilizationCountOverdrawnAfterMission 0
scalar OsgEarthNet.uav[43] utilizationCountIdleState 41
scalar OsgEarthNet.uav[43] utilizationFail 0
scalar OsgEarthNet.uav[43] simulationTime 259200
scalar OsgEarthNet.uav[44] utilizationSecMission 22317.812118101
scalar OsgEarthNet.uav[44] utilizationSecMaintenance 16671.151055034
scalar OsgEarthNet.uav[44] utilizationSecCharge 153300
scalar OsgEarthNet.uav[44] utilizationSecIdle 66911.035826865
scalar OsgEarthNet.uav[44] utilizationEnergyMission 111561.26572037
scalar OsgEarthNet.uav[44] utilizationEnergyMaintenance 78273.561687469
scalar OsgEarthNet.uav[44] utilizationEnergyCharge 189905.93066406
scalar OsgEarthNet.uav[44] utilizationEnergyOverdrawMission 0
scalar OsgEarthNet.uav[44] utilizationEnergyOverdrawMaintenance 0
scalar OsgEarthNet.uav[44] utilizationCountMissions 48
scalar OsgEarthNet.uav[44] utilizationCountManeuversMission 839
scalar OsgEarthNet.uav[44] utilizationCountManeuversMaintenance 96
scalar OsgEarthNet.uav[44] utilizationCountChargeState 48
scalar OsgEarthNet.uav[44] utilizationCountOverdrawnAfterMission 0
scalar OsgEarthNet.uav[44] utilizationCountIdleState 49
scalar OsgEarthNet.uav[44] utilizationFail 0
scalar OsgEarthNet.uav[44] simulationTime 259200
scalar OsgEarthNet.uav[45] utilizationSecMission 37952.319868649
scalar OsgEarthNet.uav[45] utilizationSecMaintenance 17928.588678117
scalar OsgEarthNet.uav[45] utilizationSecCharge 196897.08645323
scalar OsgEarthNet.uav[45] utilizationSecIdle 6422.004
scalar OsgEarthNet.uav[45] utilizationEnergyMission 186313.1716156
scalar OsgEarthNet.uav[45] utilizationEnergyMaintenance 83540.539844513
scalar OsgEarthNet.uav[45] utilizationEnergyCharge 266116.23748779
scalar OsgEarthNet.uav[45] utilizationEnergyOverdrawMission 0
scalar OsgEarthNet.uav[45] utilizationEnergyOverdrawMaintenance 0
scalar OsgEarthNet.uav[45] utilizationCountMissions 59
scalar OsgEarthNet.uav[45] utilizationCountManeuversMission 1201
scalar OsgEarthNet.uav[45] utilizationCountManeuversMaintenance 118
scalar OsgEarthNet.uav[45] utilizationCountChargeState 59
scalar OsgEarthNet.uav[45] utilizationCountOverdrawnAfterMission 0
scalar OsgEarthNet.uav[45] utilizationCountIdleState 26
scalar OsgEarthNet.uav[45] utilizationFail 0
scalar OsgEarthNet.uav[45] simulationTime 259200
scalar OsgEarthNet.uav[46] utilizationSecMission 22988.643061045
scalar OsgEarthNet.uav[46] utilizationSecMaintenance 15759.349617395
scalar OsgEarthNet.uav[46] utilizationSecCharge 144600
scalar OsgEarthNet.uav[46] utilizationSecIdle 75852.00632156
scalar OsgEarthNet.uav[46] utilizationEnergyMission 111792.54181671
scalar OsgEarthNet.uav[46] utilizationEnergyMaintenance 74481.237804413
scalar OsgEarthNet.uav[46] utilizationEnergyCharge 186838.63867188
scalar OsgEarthNet.uav[46] utilizationEnergyOverdrawMission 0
scalar OsgEarthNet.uav[46] utilizationEnergyOverdrawMaintenance 0
scalar OsgEarthNet.uav[46] utilizationCountMissions 41
scalar OsgEarthNet.uav[46] utilizationCountManeuversMission 802
scalar OsgEarthNet.uav[46] utilizationCountManeuversMaintenance 82
scalar OsgEarthNet.uav[46] utilizationCountChargeState 41
scalar OsgEarthNet.uav[46] utilizationCountOverdrawnAfterMission 0
scalar OsgEarthNet.uav[46] utilizationCountIdleState 42
scalar OsgEarthNet.uav[46] utilizationFail 0
scalar OsgEarthNet.uav[46] simulationTime 259200
scalar OsgEarthNet.uav[47] utilizationSecMission 25359.355808861
scalar OsgEarthNet.uav[47] utilizationSecMaintenance 17889.271957933
scalar OsgEarthNet.uav[47] utilizationSecCharge 166369.36823321
scalar OsgEarthNet.uav[47] utilizationSecIdle 49582.003
scalar OsgEarthNet.uav[47] utilizationEnergyMission 124160.35970306
scalar OsgEarthNet.uav[47] utilizationEnergyMaintenance 85151.879646301
scalar OsgEarthNet.uav[47] utilizationEnergyCharge 206315.87792969
scalar OsgEarthNet.uav[47] utilizationEnergyOverdrawMission 0
scalar OsgEarthNet.uav[47] utilizationEnergyOverdrawMaintenance 0
scalar OsgEarthNet.uav[47] utilizationCountMissions 53
scalar OsgEarthNet.uav[47] utilizationCountManeuversMission 865
scalar OsgEarthNet.uav[47] utilizationCountManeuversMaintenance 106
scalar OsgEarthNet.uav[47] utilizationCountChargeState 53
scalar OsgEarthNet.uav[47] utilizationCountOverdrawnAfterMission 0
scalar OsgEarthNet.uav[47] utilizationCountIdleState 53
scalar OsgEarthNet.uav[47] utilizationFail 0
scalar OsgEarthNet.uav[47] simulationTime 259200
scalar OsgEarthNet.uav[48] utilizationSecMission 38653.181132225
scalar OsgEarthNet.uav[48] utilizationSecMaintenance 16754.814867775
scalar OsgEarthNet.uav[48] utilizationSecCharge 196190
scalar OsgEarthNet.uav[48] utilizationSecIdle 7602.003
scalar OsgEarthNet.uav[48] utilizationEnergyMission 187501.20253365
scalar OsgEarthNet.uav[48] utilizationEnergyMaintenance 78109.645294189
scalar OsgEarthNet.uav[48] utilizationEnergyCharge 263810.42041016
scalar OsgEarthNet.uav[48] utilizationEnergyOverdrawMission 0
scalar OsgEarthNet.uav[48] utilizationEnergyOverdrawMaintenance 0
scalar OsgEarthNet.uav[48] utilizationCountMissions 57
scalar OsgEarthNet.uav[48] utilizationCountManeuversMission 1298
scalar OsgEarthNet.uav[48] utilizationCountManeuversMaintenance 115
scalar OsgEarthNet.uav[48] utilizationCountChargeState 57
scalar OsgEarthNet.uav[48] utilizationCountOverdrawnAfterMission 0
scalar OsgEarthNet.uav[48] utilizationCountIdleState 30
scalar OsgEarthNet.uav[48] utilizationFail 0
scalar OsgEarthNet.uav[48] simulationTime 259200
scalar OsgEarthNet.uav[49] utilizationSecMission 39218.460196073
scalar OsgEarthNet.uav[49] utilizationSecMaintenance 16094.911729264
scalar OsgEarthNet.uav[49] utilizationSecCharge 194884.84106462
scalar OsgEarthNet.uav[49] utilizationSecIdle 9001.7860100454
scalar OsgEarthNet.uav[49] utilizationEnergyMission 188825.34790802
scalar OsgEarthNet.uav[49] utilizationEnergyMaintenance 74977.961357117
scalar OsgEarthNet.uav[49] utilizationEnergyCharge 261384.64990234
scalar OsgEarthNet.uav[49] utilizationEnergyOverdrawMission 0
scalar OsgEarthNet.uav[49] utilizationEnergyOverdrawMaintenance 0
scalar OsgEarthNet.uav[49] utilizationCountMissions 57
scalar OsgEarthNet.uav[49] utilizationCountManeuversMission 1150
scalar OsgEarthNet.uav[49] utilizationCountManeuversMaintenance 114
scalar OsgEarthNet.uav[49] utilizationCountChargeState 57
scalar OsgEarthNet.uav[49] utilizationCountOverdrawnAfterMission 0
scalar OsgEarthNet.uav[49] utilizationCountIdleState 33
scalar OsgEarthNet.uav[49] utilizationFail 0
scalar OsgEarthNet.uav[49] simulationTime 259200
scalar OsgEarthNet.uav[50] utilizationSecMission 24560.994707695
scalar OsgEarthNet.uav[50] utilizationSecMaintenance 15132.197081921
scalar OsgEarthNet.uav[50] utilizationSecCharge 148200
scalar OsgEarthNet.uav[50] utilizationSecIdle 71306.807210385
scalar OsgEarthNet.uav[50] utilizationEnergyMission 117029.01387787
scalar OsgEarthNet.uav[50] utilizationEnergyMaintenance 72199.327884674
scalar OsgEarthNet.uav[50] utilizationEnergyCharge 191321.87792969
scalar OsgEarthNet.uav[50] utilizationEnergyOverdrawMission 0
scalar OsgEarthNet.uav[50] utilizationEnergyOverdrawMaintenance 0
scalar OsgEarthNet.uav[50] utilizationCountMissions 42
scalar OsgEarthNet.uav[50] utilizationCountManeuversMission 764
scalar OsgEarthNet.uav[50] utilizationCountManeuversMaintenance 84
scalar OsgEarthNet.uav[50] utilizationCountChargeState 42
scalar OsgEarthNet.uav[50] utilizationCountOverdrawnAfterMission 0
scalar OsgEarthNet.uav[50] utilizationCountIdleState 43
scalar OsgEarthNet.uav[50] utilizationFail 0
scalar OsgEarthNet.uav[50] simulationTime 259200
scalar OsgEarthNet.uav[51] utilizationSecMission 23663.847331124
scalar OsgEarthNet.uav[51] utilizationSecMaintenance 15430.943843479
scalar OsgEarthNet.uav[51] utilizationSecCharge 151750
scalar OsgEarthNet.uav[51] utilizationSecIdle 68355.207825397
scalar OsgEarthNet.uav[51] utilizationEnergyMission 113496.01581192
scalar OsgEarthNet.uav[51] utilizationEnergyMaintenance 73484.980327606
scalar OsgEarthNet.uav[51] utilizationEnergyCharge 185300.50634766
scalar OsgEarthNet.uav[51] utilizationEnergyOverdrawMission 0
scalar OsgEarthNet.uav[51] utilizationEnergyOverdrawMaintenance 0
scalar OsgEarthNet.uav[51] utilizationCountMissions 49
scalar OsgEarthNet.uav[51] utilizationCountManeuversMission 632
scalar OsgEarthNet.uav[51] utilizationCountManeuversMaintenance 98
scalar OsgEarthNet.uav[51] utilizationCountChargeState 49
scalar OsgEarthNet.uav[51] utilizationCountOverdrawnAfterMission 0
scalar OsgEarthNet.uav[51] utilizationCountIdleState 50
scalar OsgEarthNet.uav[51] utilizationFail 0
scalar OsgEarthNet.uav[51] simulationTime 259200
scalar OsgEarthNet.uav[52] utilizationSecMission 39356.857841608
scalar OsgEarthNet.uav[52] utilizationSecMaintenance 17163.921544476
scalar OsgEarthNet.uav[52] utilizationSecCharge 197530
scalar OsgEarthNet.uav[52] utilizationSecIdle 5149.2196139157
scalar OsgEarthNet.uav[52] utilizationEnergyMission 190639.69639932
scalar OsgEarthNet.uav[52] utilizationEnergyMaintenance 79416.508663178
scalar OsgEarthNet.uav[52] utilizationEnergyCharge 264968.33105469
scalar OsgEarthNet.uav[52] utilizationEnergyOverdrawMission 0
scalar OsgEarthNet.uav[52] utilizationEnergyOverdrawMaintenance 0
scalar OsgEarthNet.uav[52] utilizationCountMissions 57
scalar OsgEarthNet.uav[52] utilizationCountManeuversMission 1142
scalar OsgEarthNet.uav[52] utilizationCountManeuversMaintenance 115
scalar OsgEarthNet.uav[52] utilizationCountChargeState 57
scalar OsgEarthNet.uav[52] utilizationCountOverdrawnAfterMission 0
scalar OsgEarthNet.uav[52] utilizationCountIdleState 30
scalar OsgEarthNet.uav[52] utilizationFail 0
scalar OsgEarthNet.uav[52] simulationTime 259200
scalar OsgEarthNet.uav[53] utilizationSecMission 38442.625818295
scalar OsgEarthNet.uav[53] utilizationSecMaintenance 16211.090051174
scalar OsgEarthNet.uav[53] utilizationSecCharge 194070
scalar OsgEarthNet.uav[53] utilizationSecIdle 10476.283130531
scalar OsgEarthNet.uav[53] utilizationEnergyMission 185711.56383133
scalar OsgEarthNet.uav[53] utilizationEnergyMaintenance 74990.702575684
scalar OsgEarthNet.uav[53] utilizationEnergyCharge 259709.32421875
scalar OsgEarthNet.uav[53] utilizationEnergyOverdrawMission 0
scalar OsgEarthNet.uav[53] utilizationEnergyOverdrawMaintenance 0
scalar OsgEarthNet.uav[53] utilizationCountMissions 56
scalar OsgEarthNet.uav[53] utilizationCountManeuversMission 1187
scalar OsgEarthNet.uav[53] utilizationCountManeuversMaintenance 112
scalar OsgEarthNet.uav[53] utilizationCountChargeState 56
scalar OsgEarthNet.uav[53] utilizationCountOverdrawnAfterMission 0
scalar OsgEarthNet.uav[53] utilizationCountIdleState 34
scalar OsgEarthNet.uav[53] utilizationFail 0
scalar OsgEarthNet.uav[53] simulationTime 259200
scalar OsgEarthNet.uav[54] utilizationSecMission 22430.719114213
scalar OsgEarthNet.uav[54] utilizationSecMaintenance 16684.145394078
scalar OsgEarthNet.uav[54] utilizationSecCharge 152914.07669652
scalar OsgEarthNet.uav[54] utilizationSecIdle 67171.057795193
scalar OsgEarthNet.uav[54] utilizationEnergyMission 109897.79556656
scalar OsgEarthNet.uav[54] utilizationEnergyMaintenance 79551.209506988
scalar OsgEarthNet.uav[54] utilizationEnergyCharge 187412.28979492
scalar OsgEarthNet.uav[54] utilizationEnergyOverdrawMission 0
scalar OsgEarthNet.uav[54] utilizationEnergyOverdrawMaintenance 0
scalar OsgEarthNet.uav[54] utilizationCountMissions 50
scalar OsgEarthNet.uav[54] utilizationCountManeuversMission 762
scalar OsgEarthNet.uav[54] utilizationCountManeuversMaintenance 100
scalar OsgEarthNet.uav[54] utilizationCountChargeState 50
scalar OsgEarthNet.uav[54] utilizationCountOverdrawnAfterMission 0
scalar OsgEarthNet.uav[54] utilizationCountIdleState 50
scalar OsgEarthNet.uav[54] utilizationFail 0
scalar OsgEarthNet.uav[54] simulationTime 259200
scalar OsgEarthNet.uav[55] utilizationSecMission 39116.483685641
scalar OsgEarthNet.uav[55] utilizationSecMaintenance 16844.808787435
scalar OsgEarthNet.uav[55] utilizationSecCharge 197416.70552692
scalar OsgEarthNet.uav[55] utilizationSecIdle 5822.001
scalar OsgEarthNet.uav[55] utilizationEnergyMission 187759.18538284
scalar OsgEarthNet.uav[55] utilizationEnergyMaintenance 76981.542991638
scalar OsgEarthNet.uav[55] utilizationEnergyCharge 265920.83935547
scalar OsgEarthNet.uav[55] utilizationEnergyOverdrawMission 0
scalar OsgEarthNet.uav[55] utilizationEnergyOverdrawMaintenance 0
scalar OsgEarthNet.uav[55] utilizationCountMissions 58
scalar OsgEarthNet.uav[55] utilizationCountManeuversMission 1235
scalar OsgEarthNet.uav[55] utilizationCountManeuversMaintenance 116
scalar OsgEarthNet.uav[55] utilizationCountChargeState 58
scalar OsgEarthNet.uav[55] utilizationCountOverdrawnAfterMission 0
scalar OsgEarthNet.uav[55] utilizationCountIdleState 31
scalar OsgEarthNet.uav[55] utilizationFail 0
scalar OsgEarthNet.uav[55] simulationTime 259200
scalar OsgEarthNet.uav[56] utilizationSecMission 38955.824912875
scalar OsgEarthNet.uav[56] utilizationSecMaintenance 17390.987243326
scalar OsgEarthNet.uav[56] utilizationSecCharge 196847.1652326
scalar OsgEarthNet.uav[56] utilizationSecIdle 6006.0216111988
scalar OsgEarthNet.uav[56] utilizationEnergyMission 187772.83760071
scalar OsgEarthNet.uav[56] utilizationEnergyMaintenance 80003.233322144
scalar OsgEarthNet.uav[56] utilizationEnergyCharge 264816.6184082
scalar OsgEarthNet.uav[56] utilizationEnergyOverdrawMission 0
scalar OsgEarthNet.uav[56] utilizationEnergyOverdrawMaintenance 0
scalar OsgEarthNet.uav[56] utilizationCountMissions 58
scalar OsgEarthNet.uav[56] utilizationCountManeuversMission 1126
scalar OsgEarthNet.uav[56] utilizationCountManeuversMaintenance 116
scalar OsgEarthNet.uav[56] utilizationCountChargeState 58
scalar OsgEarthNet.uav[56] utilizationCountOverdrawnAfterMission 0
scalar OsgEarthNet.uav[56] utilizationCountIdleState 27
scalar OsgEarthNet.uav[56] utilizationFail 0
scalar OsgEarthNet.uav[56] simulationTime 259200
scalar OsgEarthNet.uav[57] utilizationSecMission 26595.003836613
scalar OsgEarthNet.uav[57] utilizationSecMaintenance 18430.38327387
scalar OsgEarthNet.uav[57] utilizationSecCharge 173290
scalar OsgEarthNet.uav[57] utilizationSecIdle 40884.611889516
scalar OsgEarthNet.uav[57] utilizationEnergyMission 128470.64202118
scalar OsgEarthNet.uav[57] utilizationEnergyMaintenance 87649.390037488
scalar OsgEarthNet.uav[57] utilizationEnergyCharge 213526.48510742
scalar OsgEarthNet.uav[57] utilizationEnergyOverdrawMission 0
scalar OsgEarthNet.uav[57] utilizationEnergyOverdrawMaintenance 0
scalar OsgEarthNet.uav[57] utilizationCountMissions 56
scalar OsgEarthNet.uav[57] utilizationCountManeuversMission 845
scalar OsgEarthNet.uav[57] utilizationCountManeuversMaintenance 112
scalar OsgEarthNet.uav[57] utilizationCountChargeState 55
scalar OsgEarthNet.uav[57] utilizationCountOverdrawnAfterMission 0
scalar OsgEarthNet.uav[57] utilizationCountIdleState 56
scalar OsgEarthNet.uav[57] utilizationFail 0
scalar OsgEarthNet.uav[57] simulationTime 259200
scalar OsgEarthNet.uav[58] utilizationSecMission 40535.201134223
scalar OsgEarthNet.uav[58] utilizationSecMaintenance 15936.873880033
scalar OsgEarthNet.uav[58] utilizationSecCharge 195546.47102703
scalar OsgEarthNet.uav[58] utilizationSecIdle 7181.4529587171
scalar OsgEarthNet.uav[58] utilizationEnergyMission 192395.11323547
scalar OsgEarthNet.uav[58] utilizationEnergyMaintenance 73367.456230164
scalar OsgEarthNet.uav[58] utilizationEnergyCharge 261423.2300415
scalar OsgEarthNet.uav[58] utilizationEnergyOverdrawMission 0
scalar OsgEarthNet.uav[58] utilizationEnergyOverdrawMaintenance 0
scalar OsgEarthNet.uav[58] utilizationCountMissions 57
scalar OsgEarthNet.uav[58] utilizationCountManeuversMission 995
scalar OsgEarthNet.uav[58] utilizationCountManeuversMaintenance 114
scalar OsgEarthNet.uav[58] utilizationCountChargeState 57
scalar OsgEarthNet.uav[58] utilizationCountOverdrawnAfterMission 0
scalar OsgEarthNet.uav[58] utilizationCountIdleState 35
scalar OsgEarthNet.uav[58] utilizationFail 0
scalar OsgEarthNet.uav[58] simulationTime 259200
scalar OsgEarthNet.uav[59] utilizationSecMission 23388.752136124
scalar OsgEarthNet.uav[59] utilizationSecMaintenance 15668.635359958
scalar OsgEarthNet.uav[59] utilizationSecCharge 145830
scalar OsgEarthNet.uav[59] utilizationSecIdle 74312.611503918
scalar OsgEarthNet.uav[59] utilizationEnergyMission 113872.66100693
scalar OsgEarthNet.uav[59] utilizationEnergyMaintenance 74752.736351013
scalar OsgEarthNet.uav[59] utilizationEnergyCharge 188577.28710938
scalar OsgEarthNet.uav[59] utilizationEnergyOverdrawMission 0
scalar OsgEarthNet.uav[59] utilizationEnergyOverdrawMaintenance 0
scalar OsgEarthNet.uav[59] utilizationCountMissions 41
scalar OsgEarthNet.uav[59] utilizationCountManeuversMission 805
scalar OsgEarthNet.uav[59] utilizationCountManeuversMaintenance 82
scalar OsgEarthNet.uav[59] utilizationCountChargeState 41
scalar OsgEarthNet.uav[59] utilizationCountOverdrawnAfterMission 0
scalar OsgEarthNet.uav[59] utilizationCountIdleState 42
scalar OsgEarthNet.uav[59] utilizationFail 0
scalar OsgEarthNet.uav[59] simulationTime 259200
scalar OsgEarthNet.uav[60] utilizationSecMission 26501.119693936
scalar OsgEarthNet.uav[60] utilizationSecMaintenance 16596.877306064
scalar OsgEarthNet.uav[60] utilizationSecCharge 158870
scalar OsgEarthNet.uav[60] utilizationSecIdle 57232.002
scalar OsgEarthNet.uav[60] utilizationEnergyMission 128469.12448729
scalar OsgEarthNet.uav[60] utilizationEnergyMaintenance 78893.308284759
scalar OsgEarthNet.uav[60] utilizationEnergyCharge 204970.6875
scalar OsgEarthNet.uav[60] utilizationEnergyOverdrawMission 0
scalar OsgEarthNet.uav[60] utilizationEnergyOverdrawMaintenance 0
scalar OsgEarthNet.uav[60] utilizationCountMissions 45
scalar OsgEarthNet.uav[60] utilizationCountManeuversMission 857
scalar OsgEarthNet.uav[60] utilizationCountManeuversMaintenance 91
scalar OsgEarthNet.uav[60] utilizationCountChargeState 45
scalar OsgEarthNet.uav[60] utilizationCountOverdrawnAfterMission 0
scalar OsgEarthNet.uav[60] utilizationCountIdleState 46
scalar OsgEarthNet.uav[60] utilizationFail 0
scalar OsgEarthNet.uav[60] simulationTime 259200
scalar OsgEarthNet.uav[61] utilizationSecMission 40467.265064782
scalar OsgEarthNet.uav[61] utilizationSecMaintenance 15811.985801727
scalar OsgEarthNet.uav[61] utilizationSecCharge 194644.56000456
scalar OsgEarthNet.uav[61] utilizationSecIdle 8276.1881289308
scalar OsgEarthNet.uav[61] utilizationEnergyMission 192125.04139709
scalar OsgEarthNet.uav[61] utilizationEnergyMaintenance 72944.392375946
scalar OsgEarthNet.uav[61] utilizationEnergyCharge 259639.7003479
scalar OsgEarthNet.uav[61] utilizationEnergyOverdrawMission 0
scalar OsgEarthNet.uav[61] utilizationEnergyOverdrawMaintenance 0
scalar OsgEarthNet.uav[61] utilizationCountMissions 57
scalar OsgEarthNet.uav[61] utilizationCountManeuversMission 980
scalar OsgEarthNet.uav[61] utilizationCountManeuversMaintenance 114
scalar OsgEarthNet.uav[61] utilizationCountChargeState 57
scalar OsgEarthNet.uav[61] utilizationCountOverdrawnAfterMission 0
scalar OsgEarthNet.uav[61] utilizationCountIdleState 37
scalar OsgEarthNet.uav[61] utilizationFail 0
scalar OsgEarthNet.uav[61] simulationTime 259200
scalar OsgEarthNet.uav[62] utilizationSecMission 39361.232625551
scalar OsgEarthNet.uav[62] utilizationSecMaintenance 16179.973952006
scalar OsgEarthNet.uav[62] utilizationSecCharge 196936.79242244
scalar OsgEarthNet.uav[62] utilizationSecIdle 6722
scalar OsgEarthNet.uav[62] utilizationEnergyMission 190535.60752106
scalar OsgEarthNet.uav[62] utilizationEnergyMaintenance 76000.243968964
scalar OsgEarthNet.uav[62] utilizationEnergyCharge 265714.90087891
scalar OsgEarthNet.uav[62] utilizationEnergyOverdrawMission 0
scalar OsgEarthNet.uav[62] utilizationEnergyOverdrawMaintenance 0
scalar OsgEarthNet.uav[62] utilizationCountMissions 57
scalar OsgEarthNet.uav[62] utilizationCountManeuversMission 1153
scalar OsgEarthNet.uav[62] utilizationCountManeuversMaintenance 114
scalar OsgEarthNet.uav[62] utilizationCountChargeState 57
scalar OsgEarthNet.uav[62] utilizationCountOverdrawnAfterMission 0
scalar OsgEarthNet.uav[62] utilizationCountIdleState 32
scalar OsgEarthNet.uav[62] utilizationFail 0
scalar OsgEarthNet.uav[62] simulationTime 259200
scalar OsgEarthNet.uav[63] utilizationSecMission 23308.861211203
scalar OsgEarthNet.uav[63] utilizationSecMaintenance 15121.104554885
scalar OsgEarthNet.uav[63] utilizationSecCharge 144040
scalar OsgEarthNet.uav[63] utilizationSecIdle 76730.033233912
scalar OsgEarthNet.uav[63] utilizationEnergyMission 114781.17755127
scalar OsgEarthNet.uav[63] utilizationEnergyMaintenance 71604.585430145
scalar OsgEarthNet.uav[63] utilizationEnergyCharge 185442.70922852
scalar OsgEarthNet.uav[63] utilizationEnergyOverdrawMission 0
scalar OsgEarthNet.uav[63] utilizationEnergyOverdrawMaintenance 0
scalar OsgEarthNet.uav[63] utilizationCountMissions 41
scalar OsgEarthNet.uav[63] utilizationCountManeuversMission 784
scalar OsgEarthNet.uav[63] utilizationCountManeuversMaintenance 82
scalar OsgEarthNet.uav[63] utilizationCountChargeState 41
scalar OsgEarthNet.uav[63] utilizationCountOverdrawnAfterMission 0
scalar OsgEarthNet.uav[63] utilizationCountIdleState 42
scalar OsgEarthNet.uav[63] utilizationFail 0
scalar OsgEarthNet.uav[63] simulationTime 259200
scalar OsgEarthNet.uav[64] utilizationSecMission 25431.23763778
scalar OsgEarthNet.uav[64] utilizationSecMaintenance 16836.75636222
scalar OsgEarthNet.uav[64] utilizationSecCharge 160000
scalar OsgEarthNet.uav[64] utilizationSecIdle 56932.005
scalar OsgEarthNet.uav[64] utilizationEnergyMission 126044.20134518
scalar OsgEarthNet.uav[64] utilizationEnergyMaintenance 79854.357086182
scalar OsgEarthNet.uav[64] utilizationEnergyCharge 202119.72851562
scalar OsgEarthNet.uav[64] utilizationEnergyOverdrawMission 0
scalar OsgEarthNet.uav[64] utilizationEnergyOverdrawMaintenance 0
scalar OsgEarthNet.uav[64] utilizationCountMissions 48
scalar OsgEarthNet.uav[64] utilizationCountManeuversMission 923
scalar OsgEarthNet.uav[64] utilizationCountManeuversMaintenance 97
scalar OsgEarthNet.uav[64] utilizationCountChargeState 48
scalar OsgEarthNet.uav[64] utilizationCountOverdrawnAfterMission 0
scalar OsgEarthNet.uav[64] utilizationCountIdleState 49
scalar OsgEarthNet.uav[64] utilizationFail 0
scalar OsgEarthNet.uav[64] simulationTime 259200
scalar OsgEarthNet.uav[65] utilizationSecMission 39499.070037397
scalar OsgEarthNet.uav[65] utilizationSecMaintenance 16345.055015646
scalar OsgEarthNet.uav[65] utilizationSecCharge 196236.69883655
scalar OsgEarthNet.uav[65] utilizationSecIdle 7119.1751104107
scalar OsgEarthNet.uav[65] utilizationEnergyMission 190914.44161987
scalar OsgEarthNet.uav[65] utilizationEnergyMaintenance 75438.690685272
scalar OsgEarthNet.uav[65] utilizationEnergyCharge 263432.54199219
scalar OsgEarthNet.uav[65] utilizationEnergyOverdrawMission 0
scalar OsgEarthNet.uav[65] utilizationEnergyOverdrawMaintenance 0
scalar OsgEarthNet.uav[65] utilizationCountMissions 57
scalar OsgEarthNet.uav[65] utilizationCountManeuversMission 1041
scalar OsgEarthNet.uav[65] utilizationCountManeuversMaintenance 114
scalar OsgEarthNet.uav[65] utilizationCountChargeState 57
scalar OsgEarthNet.uav[65] utilizationCountOverdrawnAfterMission 0
scalar OsgEarthNet.uav[65] utilizationCountIdleState 39
scalar OsgEarthNet.uav[65] utilizationFail 0
scalar OsgEarthNet.uav[65] simulationTime 259200
scalar OsgEarthNet.uav[66] utilizationSecMission 39688.976782293
scalar OsgEarthNet.uav[66] utilizationSecMaintenance 16810.25967283
scalar OsgEarthNet.uav[66] utilizationSecCharge 196438.76254488
scalar OsgEarthNet.uav[66] utilizationSecIdle 6262
scalar OsgEarthNet.uav[66] utilizationEnergyMission 191174.00912857
scalar OsgEarthNet.uav[66] utilizationEnergyMaintenance 76665.915916443
scalar OsgEarthNet.uav[66] utilizationEnergyCharge 264744.90240479
scalar OsgEarthNet.uav[66] utilizationEnergyOverdrawMission 0
scalar OsgEarthNet.uav[66] utilizationEnergyOverdrawMaintenance 0
scalar OsgEarthNet.uav[66] utilizationCountMissions 58
scalar OsgEarthNet.uav[66] utilizationCountManeuversMission 1257
scalar OsgEarthNet.uav[66] utilizationCountManeuversMaintenance 115
scalar OsgEarthNet.uav[66] utilizationCountChargeState 58
scalar OsgEarthNet.uav[66] utilizationCountOverdrawnAfterMission 0
scalar OsgEarthNet.uav[66] utilizationCountIdleState 30
scalar OsgEarthNet.uav[66] utilizationFail 0
scalar OsgEarthNet.uav[66] simulationTime 259200
scalar OsgEarthNet.uav[67] utilizationSecMission 24518.860538352
scalar OsgEarthNet.uav[67] utilizationSecMaintenance 17224.278594595
scalar OsgEarthNet.uav[67] utilizationSecCharge 162190.48749675
scalar OsgEarthNet.uav[67] utilizationSecIdle 55266.372370302
scalar OsgEarthNet.uav[67] utilizationEnergyMission 119900.14356995
scalar OsgEarthNet.uav[67] utilizationEnergyMaintenance 82073.743110657
scalar OsgEarthNet.uav[67] utilizationEnergyCharge 198615.32714844
scalar OsgEarthNet.uav[67] utilizationEnergyOverdrawMission 0
scalar OsgEarthNet.uav[67] utilizationEnergyOverdrawMaintenance 0
scalar OsgEarthNet.uav[67] utilizationCountMissions 53
scalar OsgEarthNet.uav[67] utilizationCountManeuversMission 748
scalar OsgEarthNet.uav[67] utilizationCountManeuversMaintenance 106
scalar OsgEarthNet.uav[67] utilizationCountChargeState 53
scalar OsgEarthNet.uav[67] utilizationCountOverdrawnAfterMission 0
scalar OsgEarthNet.uav[67] utilizationCountIdleState 53
scalar OsgEarthNet.uav[67] utilizationFail 0
scalar OsgEarthNet.uav[67] simulationTime 259200
scalar OsgEarthNet.uav[68] utilizationSecMission 38679.664033131
scalar OsgEarthNet.uav[68] utilizationSecMaintenance 16307.009030757
scalar OsgEarthNet.uav[68] utilizationSecCharge 195753.69485545
scalar OsgEarthNet.uav[68] utilizationSecIdle 8459.6310806652
scalar OsgEarthNet.uav[68] utilizationEnergyMission 189009.0735054
scalar OsgEarthNet.uav[68] utilizationEnergyMaintenance 74951.291713715
scalar OsgEarthNet.uav[68] utilizationEnergyCharge 262831.52294922
scalar OsgEarthNet.uav[68] utilizationEnergyOverdrawMission 0
scalar OsgEarthNet.uav[68] utilizationEnergyOverdrawMaintenance 0
scalar OsgEarthNet.uav[68] utilizationCountMissions 57
scalar OsgEarthNet.uav[68] utilizationCountManeuversMission 1291
scalar OsgEarthNet.uav[68] utilizationCountManeuversMaintenance 114
scalar OsgEarthNet.uav[68] utilizationCountChargeState 57
scalar OsgEarthNet.uav[68] utilizationCountOverdrawnAfterMission 0
scalar OsgEarthNet.uav[68] utilizationCountIdleState 32
scalar OsgEarthNet.uav[68] utilizationFail 0
scalar OsgEarthNet.uav[68] simulationTime 259200
scalar OsgEarthNet.uav[69] utilizationSecMission 38358.290233967
scalar OsgEarthNet.uav[69] utilizationSecMaintenance 17260.757510368
scalar OsgEarthNet.uav[69] utilizationSecCharge 195450
scalar OsgEarthNet.uav[69] utilizationSecIdle 8130.9512556647
scalar OsgEarthNet.uav[69] utilizationEnergyMission 184662.27585768
scalar OsgEarthNet.uav[69] utilizationEnergyMaintenance 80255.632377625
scalar OsgEarthNet.uav[69] utilizationEnergyCharge 263126.69482422
scalar OsgEarthNet.uav[69] utilizationEnergyOverdrawMission 0
scalar OsgEarthNet.uav[69] utilizationEnergyOverdrawMaintenance 0
scalar OsgEarthNet.uav[69] utilizationCountMissions 57
scalar OsgEarthNet.uav[69] utilizationCountManeuversMission 1181
scalar OsgEarthNet.uav[69] utilizationCountManeuversMaintenance 115
scalar OsgEarthNet.uav[69] utilizationCountChargeState 57
scalar OsgEarthNet.uav[69] utilizationCountOverdrawnAfterMission 0
scalar OsgEarthNet.uav[69] utilizationCountIdleState 29
scalar OsgEarthNet.uav[69] utilizationFail 0
scalar OsgEarthNet.uav[69] simulationTime 259200
scalar OsgEarthNet.uav[70] utilizationSecMission 24708.126983544
scalar OsgEarthNet.uav[70] utilizationSecMaintenance 17353.138496194
scalar OsgEarthNet.uav[70] utilizationSecCharge 156386.72352026
scalar OsgEarthNet.uav[70] utilizationSecIdle 60752.01
scalar OsgEarthNet.uav[70] utilizationEnergyMission 120666.8417244
scalar OsgEarthNet.uav[70] utilizationEnergyMaintenance 82376.142055511
scalar OsgEarthNet.uav[70] utilizationEnergyCharge 202472.43115234
scalar OsgEarthNet.uav[70] utilizationEnergyOverdrawMission 0
scalar OsgEarthNet.uav[70] utilizationEnergyOverdrawMaintenance 0
scalar OsgEarthNet.uav[70] utilizationCountMissions 45
scalar OsgEarthNet.uav[70] utilizationCountManeuversMission 897
scalar OsgEarthNet.uav[70] utilizationCountManeuversMaintenance 90
scalar OsgEarthNet.uav[70] utilizationCountChargeState 45
scalar OsgEarthNet.uav[70] utilizationCountOverdrawnAfterMission 0
scalar OsgEarthNet.uav[70] utilizationCountIdleState 45
scalar OsgEarthNet.uav[70] utilizationFail 0
scalar OsgEarthNet.uav[70] simulationTime 259200
scalar OsgEarthNet.uav[71] utilizationSecMission 26570.651864366
scalar OsgEarthNet.uav[71] utilizationSecMaintenance 17983.677411652
scalar OsgEarthNet.uav[71] utilizationSecCharge 174304.70573831
scalar OsgEarthNet.uav[71] utilizationSecIdle 40340.963985674
scalar OsgEarthNet.uav[71] utilizationEnergyMission 128361.46952057
scalar OsgEarthNet.uav[71] utilizationEnergyMaintenance 86080.051708221
scalar OsgEarthNet.uav[71] utilizationEnergyCharge 214885.72729492
scalar OsgEarthNet.uav[71] utilizationEnergyOverdrawMission 0
scalar OsgEarthNet.uav[71] utilizationEnergyOverdrawMaintenance 0
scalar OsgEarthNet.uav[71] utilizationCountMissions 56
scalar OsgEarthNet.uav[71] utilizationCountManeuversMission 762
scalar OsgEarthNet.uav[71] utilizationCountManeuversMaintenance 112
scalar OsgEarthNet.uav[71] utilizationCountChargeState 56
scalar OsgEarthNet.uav[71] utilizationCountOverdrawnAfterMission 0
scalar OsgEarthNet.uav[71] utilizationCountIdleState 56
scalar OsgEarthNet.uav[71] utilizationFail 0
scalar OsgEarthNet.uav[71] simulationTime 259200
scalar OsgEarthNet.uav[72] utilizationSecMission 38179.7531566
scalar OsgEarthNet.uav[72] utilizationSecMaintenance 17543.27712944
scalar OsgEarthNet.uav[72] utilizationSecCharge 197008.12055417
scalar OsgEarthNet.uav[72] utilizationSecIdle 6468.8481597938
scalar OsgEarthNet.uav[72] utilizationEnergyMission 189297.13840103
scalar OsgEarthNet.uav[72] utilizationEnergyMaintenance 80156.853046417
scalar OsgEarthNet.uav[72] utilizationEnergyCharge 264862.12695312
scalar OsgEarthNet.uav[72] utilizationEnergyOverdrawMission 0
scalar OsgEarthNet.uav[72] utilizationEnergyOverdrawMaintenance 0
scalar OsgEarthNet.uav[72] utilizationCountMissions 58
scalar OsgEarthNet.uav[72] utilizationCountManeuversMission 1260
scalar OsgEarthNet.uav[72] utilizationCountManeuversMaintenance 116
scalar OsgEarthNet.uav[72] utilizationCountChargeState 58
scalar OsgEarthNet.uav[72] utilizationCountOverdrawnAfterMission 0
scalar OsgEarthNet.uav[72] utilizationCountIdleState 27
scalar OsgEarthNet.uav[72] utilizationFail 0
scalar OsgEarthNet.uav[72] simulationTime 259200
scalar OsgEarthNet.uav[73] utilizationSecMission 26202.566126575
scalar OsgEarthNet.uav[73] utilizationSecMaintenance 16400.915593122
scalar OsgEarthNet.uav[73] utilizationSecCharge 155460
scalar OsgEarthNet.uav[73] utilizationSecIdle 61136.517280303
scalar OsgEarthNet.uav[73] utilizationEnergyMission 128384.54695129
scalar OsgEarthNet.uav[73] utilizationEnergyMaintenance 77957.38010473
scalar OsgEarthNet.uav[73] utilizationEnergyCharge 200609.3671875
scalar OsgEarthNet.uav[73] utilizationEnergyOverdrawMission 0
scalar OsgEarthNet.uav[73] utilizationEnergyOverdrawMaintenance 0
scalar OsgEarthNet.uav[73] utilizationCountMissions 45
scalar OsgEarthNet.uav[73] utilizationCountManeuversMission 848
scalar OsgEarthNet.uav[73] utilizationCountManeuversMaintenance 90
scalar OsgEarthNet.uav[73] utilizationCountChargeState 44
scalar OsgEarthNet.uav[73] utilizationCountOverdrawnAfterMission 0
scalar OsgEarthNet.uav[73] utilizationCountIdleState 45
scalar OsgEarthNet.uav[73] utilizationFail 0
scalar OsgEarthNet.uav[73] simulationTime 259200
scalar OsgEarthNet.uav[74] utilizationSecMission 27417.728807231
scalar OsgEarthNet.uav[74] utilizationSecMaintenance 18279.4460289
scalar OsgEarthNet.uav[74] utilizationSecCharge 177420
scalar OsgEarthNet.uav[74] utilizationSecIdle 36082.824163869
scalar OsgEarthNet.uav[74] utilizationEnergyMission 133150.93167877
scalar OsgEarthNet.uav[74] utilizationEnergyMaintenance 87025.986408234
scalar OsgEarthNet.uav[74] utilizationEnergyCharge 220747.03881836
scalar OsgEarthNet.uav[74] utilizationEnergyOverdrawMission 0
scalar OsgEarthNet.uav[74] utilizationEnergyOverdrawMaintenance 0
scalar OsgEarthNet.uav[74] utilizationCountMissions 55
scalar OsgEarthNet.uav[74] utilizationCountManeuversMission 884
scalar OsgEarthNet.uav[74] utilizationCountManeuversMaintenance 109
scalar OsgEarthNet.uav[74] utilizationCountChargeState 55
scalar OsgEarthNet.uav[74] utilizationCountOverdrawnAfterMission 0
scalar OsgEarthNet.uav[74] utilizationCountIdleState 56
scalar OsgEarthNet.uav[74] utilizationFail 0
scalar OsgEarthNet.uav[74] simulationTime 259200
scalar OsgEarthNet.uav[75] utilizationSecMission 39230.299468155
scalar OsgEarthNet.uav[75] utilizationSecMaintenance 17025.977499581
scalar OsgEarthNet.uav[75] utilizationSecCharge 197151.72203226
scalar OsgEarthNet.uav[75] utilizationSecIdle 5792
scalar OsgEarthNet.uav[75] utilizationEnergyMission 189415.99504852
scalar OsgEarthNet.uav[75] utilizationEnergyMaintenance 77849.468315125
scalar OsgEarthNet.uav[75] utilizationEnergyCharge 266117.34179688
scalar OsgEarthNet.uav[75] utilizationEnergyOverdrawMission 0
scalar OsgEarthNet.uav[75] utilizationEnergyOverdrawMaintenance 0
scalar OsgEarthNet.uav[75] utilizationCountMissions 58
scalar OsgEarthNet.uav[75] utilizationCountManeuversMission 1186
scalar OsgEarthNet.uav[75] utilizationCountManeuversMaintenance 116
scalar OsgEarthNet.uav[75] utilizationCountChargeState 58
scalar OsgEarthNet.uav[75] utilizationCountOverdrawnAfterMission 0
scalar OsgEarthNet.uav[75] utilizationCountIdleState 31
scalar OsgEarthNet.uav[75] utilizationFail 0
scalar OsgEarthNet.uav[75] simulationTime 259200
scalar OsgEarthNet.uav[76] utilizationSecMission 24229.09478782
scalar OsgEarthNet.uav[76] utilizationSecMaintenance 13678.89121218
scalar OsgEarthNet.uav[76] utilizationSecCharge 141110
scalar OsgEarthNet.uav[76] utilizationSecIdle 80182.013
scalar OsgEarthNet.uav[76] utilizationEnergyMission 116586.97584282
scalar OsgEarthNet.uav[76] utilizationEnergyMaintenance 65694.294677734
scalar OsgEarthNet.uav[76] utilizationEnergyCharge 182134.19189453
scalar OsgEarthNet.uav[76] utilizationEnergyOverdrawMission 0
scalar OsgEarthNet.uav[76] utilizationEnergyOverdrawMaintenance 0
scalar OsgEarthNet.uav[76] utilizationCountMissions 40
scalar OsgEarthNet.uav[76] utilizationCountManeuversMission 699
scalar OsgEarthNet.uav[76] utilizationCountManeuversMaintenance 81
scalar OsgEarthNet.uav[76] utilizationCountChargeState 40
scalar OsgEarthNet.uav[76] utilizationCountOverdrawnAfterMission 0
scalar OsgEarthNet.uav[76] utilizationCountIdleState 41
scalar OsgEarthNet.uav[76] utilizationFail 0
scalar OsgEarthNet.uav[76] simulationTime 259200
scalar OsgEarthNet.uav[77] utilizationSecMission 25852.05600511
scalar OsgEarthNet.uav[77] utilizationSecMaintenance 17845.155677489
scalar OsgEarthNet.uav[77] utilizationSecCharge 169730.78581068
scalar OsgEarthNet.uav[77] utilizationSecIdle 45772.001506722
scalar OsgEarthNet.uav[77] utilizationEnergyMission 126656.03978348
scalar OsgEarthNet.uav[77] utilizationEnergyMaintenance 84834.948596954
scalar OsgEarthNet.uav[77] utilizationEnergyCharge 209019.38720703
scalar OsgEarthNet.uav[77] utilizationEnergyOverdrawMission 0
scalar OsgEarthNet.uav[77] utilizationEnergyOverdrawMaintenance 0
scalar OsgEarthNet.uav[77] utilizationCountMissions 54
scalar OsgEarthNet.uav[77] utilizationCountManeuversMission 830
scalar OsgEarthNet.uav[77] utilizationCountManeuversMaintenance 108
scalar OsgEarthNet.uav[77] utilizationCountChargeState 54
scalar OsgEarthNet.uav[77] utilizationCountOverdrawnAfterMission 0
scalar OsgEarthNet.uav[77] utilizationCountIdleState 54
scalar OsgEarthNet.uav[77] utilizationFail 0
scalar OsgEarthNet.uav[77] simulationTime 259200
scalar OsgEarthNet.cs[0] usedPower 4034326.347102
scalar OsgEarthNet.cs[0] chargedPower 4034326.347102
scalar OsgEarthNet.cs[0] chargedMobileNodes 877
scalar OsgEarthNet.cs[0] reservations 890
scalar OsgEarthNet.cs[1] usedPower 4155057.6591138
scalar OsgEarthNet.cs[1] chargedPower 4155057.6591138
scalar OsgEarthNet.cs[1] chargedMobileNodes 1035
scalar OsgEarthNet.cs[1] reservations 1049
scalar OsgEarthNet.cs[2] usedPower 8699863.3787754
scalar OsgEarthNet.cs[2] chargedPower 8699863.3787754
scalar OsgEarthNet.cs[2] chargedMobileNodes 1012
scalar OsgEarthNet.cs[2] reservations 1893

