version 2
run Szenario_Hotel_Gabelbach-150-20180719-06:42:41-10408
attr configname Szenario_Hotel_Gabelbach
attr datetime 20180719-06:42:41
attr experiment Szenario_Hotel_Gabelbach
attr inifile omnetpp.ini
attr iterationvars "$replM=2, $biWeight=0.35, $replSearchM=1, $numUAVs=62"
attr iterationvarsf replM=2,biWeight=0.35,replSearchM=1,numUAVs=62-
attr measurement "$replM=2, $biWeight=0.35, $replSearchM=1, $numUAVs=62"
attr network OsgEarthNet
attr processid 10408
attr repetition 6
attr replication #6
attr resultdir results
attr runnumber 150
attr seedset 150
itervar biWeight 0.35
itervar numUAVs 62
itervar replM 2
itervar replSearchM 1
param *.osgEarthScene.scene "\"Szenario_Hotel_Gabelbach.earth\""
param *.playgroundLatitude 50.6830269
param *.playgroundLongitude 10.8538055
param *.playgroundWidth 3500m
param *.playgroundHeight 3500m
param *.cs[0].posX 3537m
param *.cs[0].posY 965m
param *.cs[0].posZ 538m
param *.cs[1].posX 312m
param *.cs[1].posY 1262m
param *.cs[1].posZ 539m
param *.cs[2].posX 2185m
param *.cs[2].posY 3026m
param *.cs[2].posZ 777m
param *.cs[3].posX 10m
param *.cs[3].posY 2200m
param *.cs[3].posZ 560m
param *.cs[4].posX 750m
param *.cs[4].posY 200m
param *.cs[4].posZ 540m
param *.cs[5].posX 2450m
param *.cs[5].posY 180m
param *.cs[5].posZ 524m
param *.cs[6].posX 3140m
param *.cs[6].posY 1790m
param *.cs[6].posZ 606m
param *.numCSs 3
param *.uav[*].replacementMethod 2
param *.uav[*].weightedSumWeight 0.35
param *.missionControl.replacementSearchMethod 1
param *.numUAVs 62
param *.*.timeStep 10s
param *.uav[*].commandPreviewCommandCount 20
param *.missionControl.missionFiles "\"missions\\\\Szenario_WB_Hotel_Gabelbach_Mission_Hotel.waypoints,missions\\\\Szenario_WB_Hotel_Gabelbach_Mission_Kickelhahn.waypoints,missions\\\\Szenario_WB_Hotel_Gabelbach_Mission_Ilmenau_Sportplatz.waypoints,missions\\\\Szenario_WB_Hotel_Gabelbach_Mission_Manebach_Mitte.waypoints,missions\\\\Szenario_WB_Hotel_Gabelbach_Mission_Manebach_Sued.waypoints,missions\\\\Szenario_WB_Hotel_Gabelbach_Hover_HoheSchlaufe.waypoints,missions\\\\Szenario_WB_Hotel_Gabelbach_Hover_Kickelhahn.waypoints,missions\\\\Szenario_WB_Hotel_Gabelbach_Hover_Gabelbachskopf.waypoints,missions\\\\Szenario_WB_Hotel_Gabelbach_Hover_Dachskopf.waypoints\""
param *.uav[0].startX 3537m
param *.uav[0].startY 965m
param *.uav[0].startZ 539m
param *.uav[1].startX 312m
param *.uav[1].startY 1262m
param *.uav[1].startZ 540m
param *.uav[2].startX 2185m
param *.uav[2].startY 3026m
param *.uav[2].startZ 778m
param *.uav[3].startX 3537m
param *.uav[3].startY 965m
param *.uav[3].startZ 539m
param *.uav[4].startX 312m
param *.uav[4].startY 1262m
param *.uav[4].startZ 540m
param *.uav[5].startX 2185m
param *.uav[5].startY 3026m
param *.uav[5].startZ 778m
param *.uav[6].startX 3537m
param *.uav[6].startY 965m
param *.uav[6].startZ 539m
param *.uav[7].startX 312m
param *.uav[7].startY 1262m
param *.uav[7].startZ 540m
param *.uav[8].startX 2185m
param *.uav[8].startY 3026m
param *.uav[8].startZ 778m
param *.uav[9].startX 3537m
param *.uav[9].startY 965m
param *.uav[9].startZ 539m
param *.uav[10].startX 3537m
param *.uav[10].startY 965m
param *.uav[10].startZ 539m
param *.uav[11].startX 312m
param *.uav[11].startY 1262m
param *.uav[11].startZ 540m
param *.uav[12].startX 2185m
param *.uav[12].startY 3026m
param *.uav[12].startZ 778m
param *.uav[13].startX 3537m
param *.uav[13].startY 965m
param *.uav[13].startZ 539m
param *.uav[14].startX 312m
param *.uav[14].startY 1262m
param *.uav[14].startZ 540m
param *.uav[15].startX 2185m
param *.uav[15].startY 3026m
param *.uav[15].startZ 778m
param *.uav[16].startX 3537m
param *.uav[16].startY 965m
param *.uav[16].startZ 539m
param *.uav[17].startX 312m
param *.uav[17].startY 1262m
param *.uav[17].startZ 540m
param *.uav[18].startX 2185m
param *.uav[18].startY 3026m
param *.uav[18].startZ 778m
param *.uav[19].startX 3537m
param *.uav[19].startY 965m
param *.uav[19].startZ 539m
param *.uav[20].startX 3537m
param *.uav[20].startY 965m
param *.uav[20].startZ 539m
param *.uav[21].startX 312m
param *.uav[21].startY 1262m
param *.uav[21].startZ 540m
param *.uav[22].startX 2185m
param *.uav[22].startY 3026m
param *.uav[22].startZ 778m
param *.uav[23].startX 3537m
param *.uav[23].startY 965m
param *.uav[23].startZ 539m
param *.uav[24].startX 312m
param *.uav[24].startY 1262m
param *.uav[24].startZ 540m
param *.uav[25].startX 2185m
param *.uav[25].startY 3026m
param *.uav[25].startZ 778m
param *.uav[26].startX 3537m
param *.uav[26].startY 965m
param *.uav[26].startZ 539m
param *.uav[27].startX 312m
param *.uav[27].startY 1262m
param *.uav[27].startZ 540m
param *.uav[28].startX 2185m
param *.uav[28].startY 3026m
param *.uav[28].startZ 778m
param *.uav[29].startX 3537m
param *.uav[29].startY 965m
param *.uav[29].startZ 539m
param *.uav[30].startX 3537m
param *.uav[30].startY 965m
param *.uav[30].startZ 539m
param *.uav[31].startX 312m
param *.uav[31].startY 1262m
param *.uav[31].startZ 540m
param *.uav[32].startX 2185m
param *.uav[32].startY 3026m
param *.uav[32].startZ 778m
param *.uav[33].startX 3537m
param *.uav[33].startY 965m
param *.uav[33].startZ 539m
param *.uav[34].startX 312m
param *.uav[34].startY 1262m
param *.uav[34].startZ 540m
param *.uav[35].startX 2185m
param *.uav[35].startY 3026m
param *.uav[35].startZ 778m
param *.uav[36].startX 3537m
param *.uav[36].startY 965m
param *.uav[36].startZ 539m
param *.uav[37].startX 312m
param *.uav[37].startY 1262m
param *.uav[37].startZ 540m
param *.uav[38].startX 2185m
param *.uav[38].startY 3026m
param *.uav[38].startZ 778m
param *.uav[39].startX 3537m
param *.uav[39].startY 965m
param *.uav[39].startZ 539m
param *.uav[40].startX 3537m
param *.uav[40].startY 965m
param *.uav[40].startZ 539m
param *.uav[41].startX 312m
param *.uav[41].startY 1262m
param *.uav[41].startZ 540m
param *.uav[42].startX 2185m
param *.uav[42].startY 3026m
param *.uav[42].startZ 778m
param *.uav[43].startX 3537m
param *.uav[43].startY 965m
param *.uav[43].startZ 539m
param *.uav[44].startX 312m
param *.uav[44].startY 1262m
param *.uav[44].startZ 540m
param *.uav[45].startX 2185m
param *.uav[45].startY 3026m
param *.uav[45].startZ 778m
param *.uav[46].startX 3537m
param *.uav[46].startY 965m
param *.uav[46].startZ 539m
param *.uav[47].startX 312m
param *.uav[47].startY 1262m
param *.uav[47].startZ 540m
param *.uav[48].startX 2185m
param *.uav[48].startY 3026m
param *.uav[48].startZ 778m
param *.uav[49].startX 3537m
param *.uav[49].startY 965m
param *.uav[49].startZ 539m
param *.uav[50].startX 3537m
param *.uav[50].startY 965m
param *.uav[50].startZ 539m
param *.uav[51].startX 312m
param *.uav[51].startY 1262m
param *.uav[51].startZ 540m
param *.uav[52].startX 2185m
param *.uav[52].startY 3026m
param *.uav[52].startZ 778m
param *.uav[53].startX 3537m
param *.uav[53].startY 965m
param *.uav[53].startZ 539m
param *.uav[54].startX 312m
param *.uav[54].startY 1262m
param *.uav[54].startZ 540m
param *.uav[55].startX 2185m
param *.uav[55].startY 3026m
param *.uav[55].startZ 778m
param *.uav[56].startX 3537m
param *.uav[56].startY 965m
param *.uav[56].startZ 539m
param *.uav[57].startX 312m
param *.uav[57].startY 1262m
param *.uav[57].startZ 540m
param *.uav[58].startX 2185m
param *.uav[58].startY 3026m
param *.uav[58].startZ 778m
param *.uav[59].startX 3537m
param *.uav[59].startY 965m
param *.uav[59].startZ 539m
param *.uav[60].startX 3537m
param *.uav[60].startY 965m
param *.uav[60].startZ 539m
param *.uav[61].startX 312m
param *.uav[61].startY 1262m
param *.uav[61].startZ 540m
param *.uav[62].startX 2185m
param *.uav[62].startY 3026m
param *.uav[62].startZ 778m
param *.uav[63].startX 3537m
param *.uav[63].startY 965m
param *.uav[63].startZ 539m
param *.uav[64].startX 312m
param *.uav[64].startY 1262m
param *.uav[64].startZ 540m
param *.uav[65].startX 2185m
param *.uav[65].startY 3026m
param *.uav[65].startZ 778m
param *.uav[66].startX 3537m
param *.uav[66].startY 965m
param *.uav[66].startZ 539m
param *.uav[67].startX 312m
param *.uav[67].startY 1262m
param *.uav[67].startZ 540m
param *.uav[68].startX 2185m
param *.uav[68].startY 3026m
param *.uav[68].startZ 778m
param *.uav[69].startX 3537m
param *.uav[69].startY 965m
param *.uav[69].startZ 539m
param *.uav[70].startX 3537m
param *.uav[70].startY 965m
param *.uav[70].startZ 539m
param *.uav[71].startX 312m
param *.uav[71].startY 1262m
param *.uav[71].startZ 540m
param *.uav[72].startX 2185m
param *.uav[72].startY 3026m
param *.uav[72].startZ 778m
param *.uav[73].startX 3537m
param *.uav[73].startY 965m
param *.uav[73].startZ 539m
param *.uav[74].startX 312m
param *.uav[74].startY 1262m
param *.uav[74].startZ 540m
param *.uav[75].startX 2185m
param *.uav[75].startY 3026m
param *.uav[75].startZ 778m
param *.uav[76].startX 3537m
param *.uav[76].startY 965m
param *.uav[76].startZ 539m
param *.uav[77].startX 312m
param *.uav[77].startY 1262m
param *.uav[77].startZ 540m
param *.uav[78].startX 2185m
param *.uav[78].startY 3026m
param *.uav[78].startZ 778m
param *.uav[79].startX 3537m
param *.uav[79].startY 965m
param *.uav[79].startZ 539m
param *.uav[80].startX 3537m
param *.uav[80].startY 965m
param *.uav[80].startZ 539m
param *.uav[81].startX 312m
param *.uav[81].startY 1262m
param *.uav[81].startZ 540m
param *.uav[82].startX 2185m
param *.uav[82].startY 3026m
param *.uav[82].startZ 778m
param *.uav[83].startX 3537m
param *.uav[83].startY 965m
param *.uav[83].startZ 539m
param *.uav[84].startX 312m
param *.uav[84].startY 1262m
param *.uav[84].startZ 540m
param *.uav[85].startX 2185m
param *.uav[85].startY 3026m
param *.uav[85].startZ 778m
param *.uav[86].startX 3537m
param *.uav[86].startY 965m
param *.uav[86].startZ 539m
param *.uav[87].startX 312m
param *.uav[87].startY 1262m
param *.uav[87].startZ 540m
param *.uav[88].startX 2185m
param *.uav[88].startY 3026m
param *.uav[88].startZ 778m
param *.uav[89].startX 3537m
param *.uav[89].startY 965m
param *.uav[89].startZ 539m
param *.uav[90].startX 3537m
param *.uav[90].startY 965m
param *.uav[90].startZ 539m
param *.uav[91].startX 312m
param *.uav[91].startY 1262m
param *.uav[91].startZ 540m
param *.uav[92].startX 2185m
param *.uav[92].startY 3026m
param *.uav[92].startZ 778m
param *.uav[93].startX 3537m
param *.uav[93].startY 965m
param *.uav[93].startZ 539m
param *.uav[94].startX 312m
param *.uav[94].startY 1262m
param *.uav[94].startZ 540m
param *.uav[95].startX 2185m
param *.uav[95].startY 3026m
param *.uav[95].startZ 778m
param *.uav[96].startX 3537m
param *.uav[96].startY 965m
param *.uav[96].startZ 539m
param *.uav[97].startX 312m
param *.uav[97].startY 1262m
param *.uav[97].startZ 540m
param *.uav[98].startX 2185m
param *.uav[98].startY 3026m
param *.uav[98].startZ 778m
param *.uav[99].startX 3537m
param *.uav[99].startY 965m
param *.uav[99].startZ 539m
param *.osgEarthScene.scene "\"boston.earth\""
param *.playgroundLatitude 42.3558
param *.playgroundLongitude -71.0677
param *.playgroundWidth 400m
param *.playgroundHeight 200m
param *.channelController.connectionColor "\"#0000FF40\""
param *.channelController.showConnections false
param *.uav[*].modelURL "\"quadrocopter.small.obj.15.scale.0,0,90.rot\""
param *.uav[*].labelColor "\"#FF7C00CC\""
param *.uav[*].label2Color "\"#FF7C00EE\""
param *.uav[*].batteryCapacity 5200mAh
param *.uav[*].batteryRemaining uav[index].batteryCapacity
param *.uav[*].predictionQuantile 0.95
param *.uav[*].replacementMethod 2
param *.uav[*].weightedSumWeight 0.5
param *.cs[*].modelURL "\"chargingstation_v1.osgt.2.scale.0,0,0.rot.0,0,-15e-1.trans\""
param *.cs[*].spotsWaiting 999
param *.cs[*].spotsCharging 999
param *.cs[*].chargeEffectivenessPercentage 100
param *.cs[*].nonLinearPhaseStartPercentage 85
param *.cs[*].chargeCurrent 6.0A
param *.cs[*].prioritizeFastCharge true
param *.missionControl.replacementSearchMethod 0
param *.*.timeStep 9s

scalar OsgEarthNet.uav[0] utilizationSecMission 35095.470260909
scalar OsgEarthNet.uav[0] utilizationSecMaintenance 20354.712625939
scalar OsgEarthNet.uav[0] utilizationSecCharge 198177.81011315
scalar OsgEarthNet.uav[0] utilizationSecIdle 5572.006
scalar OsgEarthNet.uav[0] utilizationEnergyMission 166444.81331253
scalar OsgEarthNet.uav[0] utilizationEnergyMaintenance 96533.932853699
scalar OsgEarthNet.uav[0] utilizationEnergyCharge 262611.71679688
scalar OsgEarthNet.uav[0] utilizationEnergyOverdrawMission 0
scalar OsgEarthNet.uav[0] utilizationEnergyOverdrawMaintenance 0
scalar OsgEarthNet.uav[0] utilizationCountMissions 66
scalar OsgEarthNet.uav[0] utilizationCountManeuversMission 966
scalar OsgEarthNet.uav[0] utilizationCountManeuversMaintenance 132
scalar OsgEarthNet.uav[0] utilizationCountChargeState 66
scalar OsgEarthNet.uav[0] utilizationCountOverdrawnAfterMission 0
scalar OsgEarthNet.uav[0] utilizationCountIdleState 19
scalar OsgEarthNet.uav[0] utilizationFail 0
scalar OsgEarthNet.uav[0] simulationTime 259200
scalar OsgEarthNet.uav[1] utilizationSecMission 34814.164985641
scalar OsgEarthNet.uav[1] utilizationSecMaintenance 21263.834014359
scalar OsgEarthNet.uav[1] utilizationSecCharge 201060
scalar OsgEarthNet.uav[1] utilizationSecIdle 2062
scalar OsgEarthNet.uav[1] utilizationEnergyMission 169944.33594131
scalar OsgEarthNet.uav[1] utilizationEnergyMaintenance 100535.96174953
scalar OsgEarthNet.uav[1] utilizationEnergyCharge 266220.54785156
scalar OsgEarthNet.uav[1] utilizationEnergyOverdrawMission 0
scalar OsgEarthNet.uav[1] utilizationEnergyOverdrawMaintenance 0
scalar OsgEarthNet.uav[1] utilizationCountMissions 67
scalar OsgEarthNet.uav[1] utilizationCountManeuversMission 1084
scalar OsgEarthNet.uav[1] utilizationCountManeuversMaintenance 134
scalar OsgEarthNet.uav[1] utilizationCountChargeState 66
scalar OsgEarthNet.uav[1] utilizationCountOverdrawnAfterMission 0
scalar OsgEarthNet.uav[1] utilizationCountIdleState 17
scalar OsgEarthNet.uav[1] utilizationFail 0
scalar OsgEarthNet.uav[1] simulationTime 259200
scalar OsgEarthNet.uav[2] utilizationSecMission 36534.378509347
scalar OsgEarthNet.uav[2] utilizationSecMaintenance 24117.179603438
scalar OsgEarthNet.uav[2] utilizationSecCharge 198326.44088722
scalar OsgEarthNet.uav[2] utilizationSecIdle 222
scalar OsgEarthNet.uav[2] utilizationEnergyMission 179917.3179245
scalar OsgEarthNet.uav[2] utilizationEnergyMaintenance 114931.34304047
scalar OsgEarthNet.uav[2] utilizationEnergyCharge 292931.64428711
scalar OsgEarthNet.uav[2] utilizationEnergyOverdrawMission 0
scalar OsgEarthNet.uav[2] utilizationEnergyOverdrawMaintenance 0
scalar OsgEarthNet.uav[2] utilizationCountMissions 66
scalar OsgEarthNet.uav[2] utilizationCountManeuversMission 1228
scalar OsgEarthNet.uav[2] utilizationCountManeuversMaintenance 132
scalar OsgEarthNet.uav[2] utilizationCountChargeState 66
scalar OsgEarthNet.uav[2] utilizationCountOverdrawnAfterMission 0
scalar OsgEarthNet.uav[2] utilizationCountIdleState 3
scalar OsgEarthNet.uav[2] utilizationFail 0
scalar OsgEarthNet.uav[2] simulationTime 259200
scalar OsgEarthNet.uav[3] utilizationSecMission 38706.242668948
scalar OsgEarthNet.uav[3] utilizationSecMaintenance 16860.165673751
scalar OsgEarthNet.uav[3] utilizationSecCharge 195970
scalar OsgEarthNet.uav[3] utilizationSecIdle 7663.5906573018
scalar OsgEarthNet.uav[3] utilizationEnergyMission 191239.30715561
scalar OsgEarthNet.uav[3] utilizationEnergyMaintenance 79088.459329343
scalar OsgEarthNet.uav[3] utilizationEnergyCharge 264404.18945312
scalar OsgEarthNet.uav[3] utilizationEnergyOverdrawMission 0
scalar OsgEarthNet.uav[3] utilizationEnergyOverdrawMaintenance 0
scalar OsgEarthNet.uav[3] utilizationCountMissions 57
scalar OsgEarthNet.uav[3] utilizationCountManeuversMission 1295
scalar OsgEarthNet.uav[3] utilizationCountManeuversMaintenance 115
scalar OsgEarthNet.uav[3] utilizationCountChargeState 57
scalar OsgEarthNet.uav[3] utilizationCountOverdrawnAfterMission 0
scalar OsgEarthNet.uav[3] utilizationCountIdleState 27
scalar OsgEarthNet.uav[3] utilizationFail 0
scalar OsgEarthNet.uav[3] simulationTime 259200
scalar OsgEarthNet.uav[4] utilizationSecMission 32622.203524132
scalar OsgEarthNet.uav[4] utilizationSecMaintenance 22099.47657463
scalar OsgEarthNet.uav[4] utilizationSecCharge 200361.00281941
scalar OsgEarthNet.uav[4] utilizationSecIdle 4117.3160818306
scalar OsgEarthNet.uav[4] utilizationEnergyMission 158282.01278687
scalar OsgEarthNet.uav[4] utilizationEnergyMaintenance 104706.52299881
scalar OsgEarthNet.uav[4] utilizationEnergyCharge 260677.89660645
scalar OsgEarthNet.uav[4] utilizationEnergyOverdrawMission 0
scalar OsgEarthNet.uav[4] utilizationEnergyOverdrawMaintenance 0
scalar OsgEarthNet.uav[4] utilizationCountMissions 70
scalar OsgEarthNet.uav[4] utilizationCountManeuversMission 1009
scalar OsgEarthNet.uav[4] utilizationCountManeuversMaintenance 140
scalar OsgEarthNet.uav[4] utilizationCountChargeState 70
scalar OsgEarthNet.uav[4] utilizationCountOverdrawnAfterMission 0
scalar OsgEarthNet.uav[4] utilizationCountIdleState 15
scalar OsgEarthNet.uav[4] utilizationFail 0
scalar OsgEarthNet.uav[4] simulationTime 259200
scalar OsgEarthNet.uav[5] utilizationSecMission 38945.080597888
scalar OsgEarthNet.uav[5] utilizationSecMaintenance 16139.462748709
scalar OsgEarthNet.uav[5] utilizationSecCharge 196880
scalar OsgEarthNet.uav[5] utilizationSecIdle 7235.4556534032
scalar OsgEarthNet.uav[5] utilizationEnergyMission 188065.59025192
scalar OsgEarthNet.uav[5] utilizationEnergyMaintenance 73875.52463429
scalar OsgEarthNet.uav[5] utilizationEnergyCharge 263635.48925781
scalar OsgEarthNet.uav[5] utilizationEnergyOverdrawMission 0
scalar OsgEarthNet.uav[5] utilizationEnergyOverdrawMaintenance 0
scalar OsgEarthNet.uav[5] utilizationCountMissions 57
scalar OsgEarthNet.uav[5] utilizationCountManeuversMission 1196
scalar OsgEarthNet.uav[5] utilizationCountManeuversMaintenance 115
scalar OsgEarthNet.uav[5] utilizationCountChargeState 57
scalar OsgEarthNet.uav[5] utilizationCountOverdrawnAfterMission 0
scalar OsgEarthNet.uav[5] utilizationCountIdleState 31
scalar OsgEarthNet.uav[5] utilizationFail 0
scalar OsgEarthNet.uav[5] simulationTime 259200
scalar OsgEarthNet.uav[6] utilizationSecMission 39640.17071288
scalar OsgEarthNet.uav[6] utilizationSecMaintenance 15548.880031455
scalar OsgEarthNet.uav[6] utilizationSecCharge 195370
scalar OsgEarthNet.uav[6] utilizationSecIdle 8640.9482556647
scalar OsgEarthNet.uav[6] utilizationEnergyMission 189601.36082513
scalar OsgEarthNet.uav[6] utilizationEnergyMaintenance 71593.701496124
scalar OsgEarthNet.uav[6] utilizationEnergyCharge 262006.24023438
scalar OsgEarthNet.uav[6] utilizationEnergyOverdrawMission 0
scalar OsgEarthNet.uav[6] utilizationEnergyOverdrawMaintenance 0
scalar OsgEarthNet.uav[6] utilizationCountMissions 57
scalar OsgEarthNet.uav[6] utilizationCountManeuversMission 1253
scalar OsgEarthNet.uav[6] utilizationCountManeuversMaintenance 115
scalar OsgEarthNet.uav[6] utilizationCountChargeState 57
scalar OsgEarthNet.uav[6] utilizationCountOverdrawnAfterMission 0
scalar OsgEarthNet.uav[6] utilizationCountIdleState 31
scalar OsgEarthNet.uav[6] utilizationFail 0
scalar OsgEarthNet.uav[6] simulationTime 259200
scalar OsgEarthNet.uav[7] utilizationSecMission 36214.981134779
scalar OsgEarthNet.uav[7] utilizationSecMaintenance 20133.011865221
scalar OsgEarthNet.uav[7] utilizationSecCharge 198440
scalar OsgEarthNet.uav[7] utilizationSecIdle 4412.006
scalar OsgEarthNet.uav[7] utilizationEnergyMission 175672.68973626
scalar OsgEarthNet.uav[7] utilizationEnergyMaintenance 95535.584327698
scalar OsgEarthNet.uav[7] utilizationEnergyCharge 268779.64282227
scalar OsgEarthNet.uav[7] utilizationEnergyOverdrawMission 0
scalar OsgEarthNet.uav[7] utilizationEnergyOverdrawMaintenance 0
scalar OsgEarthNet.uav[7] utilizationCountMissions 62
scalar OsgEarthNet.uav[7] utilizationCountManeuversMission 1168
scalar OsgEarthNet.uav[7] utilizationCountManeuversMaintenance 125
scalar OsgEarthNet.uav[7] utilizationCountChargeState 62
scalar OsgEarthNet.uav[7] utilizationCountOverdrawnAfterMission 0
scalar OsgEarthNet.uav[7] utilizationCountIdleState 15
scalar OsgEarthNet.uav[7] utilizationFail 0
scalar OsgEarthNet.uav[7] simulationTime 259200
scalar OsgEarthNet.uav[8] utilizationSecMission 36127.310371542
scalar OsgEarthNet.uav[8] utilizationSecMaintenance 23439.33718103
scalar OsgEarthNet.uav[8] utilizationSecCharge 196933.72036676
scalar OsgEarthNet.uav[8] utilizationSecIdle 2699.6310806652
scalar OsgEarthNet.uav[8] utilizationEnergyMission 177025.64702988
scalar OsgEarthNet.uav[8] utilizationEnergyMaintenance 111482.34828949
scalar OsgEarthNet.uav[8] utilizationEnergyCharge 285928.19970703
scalar OsgEarthNet.uav[8] utilizationEnergyOverdrawMission 0
scalar OsgEarthNet.uav[8] utilizationEnergyOverdrawMaintenance 0
scalar OsgEarthNet.uav[8] utilizationCountMissions 66
scalar OsgEarthNet.uav[8] utilizationCountManeuversMission 1140
scalar OsgEarthNet.uav[8] utilizationCountManeuversMaintenance 132
scalar OsgEarthNet.uav[8] utilizationCountChargeState 66
scalar OsgEarthNet.uav[8] utilizationCountOverdrawnAfterMission 0
scalar OsgEarthNet.uav[8] utilizationCountIdleState 12
scalar OsgEarthNet.uav[8] utilizationFail 0
scalar OsgEarthNet.uav[8] simulationTime 259200
scalar OsgEarthNet.uav[9] utilizationSecMission 36123.694745835
scalar OsgEarthNet.uav[9] utilizationSecMaintenance 19698.866689227
scalar OsgEarthNet.uav[9] utilizationSecCharge 200185.43756494
scalar OsgEarthNet.uav[9] utilizationSecIdle 3192
scalar OsgEarthNet.uav[9] utilizationEnergyMission 172446.50495529
scalar OsgEarthNet.uav[9] utilizationEnergyMaintenance 93464.056846619
scalar OsgEarthNet.uav[9] utilizationEnergyCharge 265418.02661133
scalar OsgEarthNet.uav[9] utilizationEnergyOverdrawMission 0
scalar OsgEarthNet.uav[9] utilizationEnergyOverdrawMaintenance 0
scalar OsgEarthNet.uav[9] utilizationCountMissions 66
scalar OsgEarthNet.uav[9] utilizationCountManeuversMission 958
scalar OsgEarthNet.uav[9] utilizationCountManeuversMaintenance 131
scalar OsgEarthNet.uav[9] utilizationCountChargeState 66
scalar OsgEarthNet.uav[9] utilizationCountOverdrawnAfterMission 0
scalar OsgEarthNet.uav[9] utilizationCountIdleState 22
scalar OsgEarthNet.uav[9] utilizationFail 0
scalar OsgEarthNet.uav[9] simulationTime 259200
scalar OsgEarthNet.uav[10] utilizationSecMission 36733.817902942
scalar OsgEarthNet.uav[10] utilizationSecMaintenance 19454.965319311
scalar OsgEarthNet.uav[10] utilizationSecCharge 196926.7807018
scalar OsgEarthNet.uav[10] utilizationSecIdle 6084.4350759465
scalar OsgEarthNet.uav[10] utilizationEnergyMission 175406.05231476
scalar OsgEarthNet.uav[10] utilizationEnergyMaintenance 92632.217571259
scalar OsgEarthNet.uav[10] utilizationEnergyCharge 263227.72595215
scalar OsgEarthNet.uav[10] utilizationEnergyOverdrawMission 0
scalar OsgEarthNet.uav[10] utilizationEnergyOverdrawMaintenance 0
scalar OsgEarthNet.uav[10] utilizationCountMissions 64
scalar OsgEarthNet.uav[10] utilizationCountManeuversMission 1001
scalar OsgEarthNet.uav[10] utilizationCountManeuversMaintenance 128
scalar OsgEarthNet.uav[10] utilizationCountChargeState 64
scalar OsgEarthNet.uav[10] utilizationCountOverdrawnAfterMission 0
scalar OsgEarthNet.uav[10] utilizationCountIdleState 16
scalar OsgEarthNet.uav[10] utilizationFail 0
scalar OsgEarthNet.uav[10] simulationTime 259200
scalar OsgEarthNet.uav[11] utilizationSecMission 38667.744121635
scalar OsgEarthNet.uav[11] utilizationSecMaintenance 17137.808909504
scalar OsgEarthNet.uav[11] utilizationSecCharge 195749.00288017
scalar OsgEarthNet.uav[11] utilizationSecIdle 7645.443088691
scalar OsgEarthNet.uav[11] utilizationEnergyMission 187073.71935272
scalar OsgEarthNet.uav[11] utilizationEnergyMaintenance 79484.804100037
scalar OsgEarthNet.uav[11] utilizationEnergyCharge 266555.67578125
scalar OsgEarthNet.uav[11] utilizationEnergyOverdrawMission 0
scalar OsgEarthNet.uav[11] utilizationEnergyOverdrawMaintenance 0
scalar OsgEarthNet.uav[11] utilizationCountMissions 58
scalar OsgEarthNet.uav[11] utilizationCountManeuversMission 1213
scalar OsgEarthNet.uav[11] utilizationCountManeuversMaintenance 116
scalar OsgEarthNet.uav[11] utilizationCountChargeState 58
scalar OsgEarthNet.uav[11] utilizationCountOverdrawnAfterMission 0
scalar OsgEarthNet.uav[11] utilizationCountIdleState 33
scalar OsgEarthNet.uav[11] utilizationFail 0
scalar OsgEarthNet.uav[11] simulationTime 259200
scalar OsgEarthNet.uav[12] utilizationSecMission 38627.059796008
scalar OsgEarthNet.uav[12] utilizationSecMaintenance 16084.981029563
scalar OsgEarthNet.uav[12] utilizationSecCharge 195886.28512505
scalar OsgEarthNet.uav[12] utilizationSecIdle 8601.673049383
scalar OsgEarthNet.uav[12] utilizationEnergyMission 187722.22595215
scalar OsgEarthNet.uav[12] utilizationEnergyMaintenance 74005.492637634
scalar OsgEarthNet.uav[12] utilizationEnergyCharge 263281.54785156
scalar OsgEarthNet.uav[12] utilizationEnergyOverdrawMission 0
scalar OsgEarthNet.uav[12] utilizationEnergyOverdrawMaintenance 0
scalar OsgEarthNet.uav[12] utilizationCountMissions 57
scalar OsgEarthNet.uav[12] utilizationCountManeuversMission 1292
scalar OsgEarthNet.uav[12] utilizationCountManeuversMaintenance 114
scalar OsgEarthNet.uav[12] utilizationCountChargeState 57
scalar OsgEarthNet.uav[12] utilizationCountOverdrawnAfterMission 0
scalar OsgEarthNet.uav[12] utilizationCountIdleState 34
scalar OsgEarthNet.uav[12] utilizationFail 0
scalar OsgEarthNet.uav[12] simulationTime 259200
scalar OsgEarthNet.uav[13] utilizationSecMission 36505.065445247
scalar OsgEarthNet.uav[13] utilizationSecMaintenance 22626.953296244
scalar OsgEarthNet.uav[13] utilizationSecCharge 196575.83551856
scalar OsgEarthNet.uav[13] utilizationSecIdle 3492.1447399488
scalar OsgEarthNet.uav[13] utilizationEnergyMission 179361.29102325
scalar OsgEarthNet.uav[13] utilizationEnergyMaintenance 106871.72932053
scalar OsgEarthNet.uav[13] utilizationEnergyCharge 280434.35998535
scalar OsgEarthNet.uav[13] utilizationEnergyOverdrawMission 0
scalar OsgEarthNet.uav[13] utilizationEnergyOverdrawMaintenance 0
scalar OsgEarthNet.uav[13] utilizationCountMissions 64
scalar OsgEarthNet.uav[13] utilizationCountManeuversMission 1203
scalar OsgEarthNet.uav[13] utilizationCountManeuversMaintenance 128
scalar OsgEarthNet.uav[13] utilizationCountChargeState 64
scalar OsgEarthNet.uav[13] utilizationCountOverdrawnAfterMission 0
scalar OsgEarthNet.uav[13] utilizationCountIdleState 10
scalar OsgEarthNet.uav[13] utilizationFail 0
scalar OsgEarthNet.uav[13] simulationTime 259200
scalar OsgEarthNet.uav[14] utilizationSecMission 37291.093676845
scalar OsgEarthNet.uav[14] utilizationSecMaintenance 17972.495680295
scalar OsgEarthNet.uav[14] utilizationSecCharge 197520.96755417
scalar OsgEarthNet.uav[14] utilizationSecIdle 6415.442088691
scalar OsgEarthNet.uav[14] utilizationEnergyMission 183501.86861038
scalar OsgEarthNet.uav[14] utilizationEnergyMaintenance 83144.948532105
scalar OsgEarthNet.uav[14] utilizationEnergyCharge 267144.90966797
scalar OsgEarthNet.uav[14] utilizationEnergyOverdrawMission 0
scalar OsgEarthNet.uav[14] utilizationEnergyOverdrawMaintenance 0
scalar OsgEarthNet.uav[14] utilizationCountMissions 59
scalar OsgEarthNet.uav[14] utilizationCountManeuversMission 1468
scalar OsgEarthNet.uav[14] utilizationCountManeuversMaintenance 118
scalar OsgEarthNet.uav[14] utilizationCountChargeState 59
scalar OsgEarthNet.uav[14] utilizationCountOverdrawnAfterMission 0
scalar OsgEarthNet.uav[14] utilizationCountIdleState 29
scalar OsgEarthNet.uav[14] utilizationFail 0
scalar OsgEarthNet.uav[14] simulationTime 259200
scalar OsgEarthNet.uav[15] utilizationSecMission 38945.456960177
scalar OsgEarthNet.uav[15] utilizationSecMaintenance 16591.031641618
scalar OsgEarthNet.uav[15] utilizationSecCharge 197781.50939821
scalar OsgEarthNet.uav[15] utilizationSecIdle 5882.001
scalar OsgEarthNet.uav[15] utilizationEnergyMission 189980.47919846
scalar OsgEarthNet.uav[15] utilizationEnergyMaintenance 76444.168067932
scalar OsgEarthNet.uav[15] utilizationEnergyCharge 267405.08398438
scalar OsgEarthNet.uav[15] utilizationEnergyOverdrawMission 0
scalar OsgEarthNet.uav[15] utilizationEnergyOverdrawMaintenance 0
scalar OsgEarthNet.uav[15] utilizationCountMissions 58
scalar OsgEarthNet.uav[15] utilizationCountManeuversMission 1310
scalar OsgEarthNet.uav[15] utilizationCountManeuversMaintenance 116
scalar OsgEarthNet.uav[15] utilizationCountChargeState 58
scalar OsgEarthNet.uav[15] utilizationCountOverdrawnAfterMission 0
scalar OsgEarthNet.uav[15] utilizationCountIdleState 26
scalar OsgEarthNet.uav[15] utilizationFail 0
scalar OsgEarthNet.uav[15] simulationTime 259200
scalar OsgEarthNet.uav[16] utilizationSecMission 34432.07827375
scalar OsgEarthNet.uav[16] utilizationSecMaintenance 20472.443220106
scalar OsgEarthNet.uav[16] utilizationSecCharge 199913.47550614
scalar OsgEarthNet.uav[16] utilizationSecIdle 4382.002
scalar OsgEarthNet.uav[16] utilizationEnergyMission 164070.26161957
scalar OsgEarthNet.uav[16] utilizationEnergyMaintenance 97234.608200073
scalar OsgEarthNet.uav[16] utilizationEnergyCharge 262025.25268555
scalar OsgEarthNet.uav[16] utilizationEnergyOverdrawMission 0
scalar OsgEarthNet.uav[16] utilizationEnergyOverdrawMaintenance 0
scalar OsgEarthNet.uav[16] utilizationCountMissions 68
scalar OsgEarthNet.uav[16] utilizationCountManeuversMission 907
scalar OsgEarthNet.uav[16] utilizationCountManeuversMaintenance 136
scalar OsgEarthNet.uav[16] utilizationCountChargeState 68
scalar OsgEarthNet.uav[16] utilizationCountOverdrawnAfterMission 0
scalar OsgEarthNet.uav[16] utilizationCountIdleState 19
scalar OsgEarthNet.uav[16] utilizationFail 0
scalar OsgEarthNet.uav[16] simulationTime 259200
scalar OsgEarthNet.uav[17] utilizationSecMission 38275.973064244
scalar OsgEarthNet.uav[17] utilizationSecMaintenance 17126.726361871
scalar OsgEarthNet.uav[17] utilizationSecCharge 196831.85848519
scalar OsgEarthNet.uav[17] utilizationSecIdle 6965.4410886909
scalar OsgEarthNet.uav[17] utilizationEnergyMission 187263.49657822
scalar OsgEarthNet.uav[17] utilizationEnergyMaintenance 79132.958610535
scalar OsgEarthNet.uav[17] utilizationEnergyCharge 266604.20410156
scalar OsgEarthNet.uav[17] utilizationEnergyOverdrawMission 0
scalar OsgEarthNet.uav[17] utilizationEnergyOverdrawMaintenance 0
scalar OsgEarthNet.uav[17] utilizationCountMissions 58
scalar OsgEarthNet.uav[17] utilizationCountManeuversMission 1316
scalar OsgEarthNet.uav[17] utilizationCountManeuversMaintenance 116
scalar OsgEarthNet.uav[17] utilizationCountChargeState 58
scalar OsgEarthNet.uav[17] utilizationCountOverdrawnAfterMission 0
scalar OsgEarthNet.uav[17] utilizationCountIdleState 27
scalar OsgEarthNet.uav[17] utilizationFail 0
scalar OsgEarthNet.uav[17] simulationTime 259200
scalar OsgEarthNet.uav[18] utilizationSecMission 40516.601980175
scalar OsgEarthNet.uav[18] utilizationSecMaintenance 15731.360338651
scalar OsgEarthNet.uav[18] utilizationSecCharge 197164.58641714
scalar OsgEarthNet.uav[18] utilizationSecIdle 5787.4502640309
scalar OsgEarthNet.uav[18] utilizationEnergyMission 195958.37423706
scalar OsgEarthNet.uav[18] utilizationEnergyMaintenance 72530.897953033
scalar OsgEarthNet.uav[18] utilizationEnergyCharge 265946.54443359
scalar OsgEarthNet.uav[18] utilizationEnergyOverdrawMission 0
scalar OsgEarthNet.uav[18] utilizationEnergyOverdrawMaintenance 0
scalar OsgEarthNet.uav[18] utilizationCountMissions 58
scalar OsgEarthNet.uav[18] utilizationCountManeuversMission 1193
scalar OsgEarthNet.uav[18] utilizationCountManeuversMaintenance 116
scalar OsgEarthNet.uav[18] utilizationCountChargeState 58
scalar OsgEarthNet.uav[18] utilizationCountOverdrawnAfterMission 0
scalar OsgEarthNet.uav[18] utilizationCountIdleState 31
scalar OsgEarthNet.uav[18] utilizationFail 0
scalar OsgEarthNet.uav[18] simulationTime 259200
scalar OsgEarthNet.uav[19] utilizationSecMission 39197.811713933
scalar OsgEarthNet.uav[19] utilizationSecMaintenance 15887.297651854
scalar OsgEarthNet.uav[19] utilizationSecCharge 194908.11335169
scalar OsgEarthNet.uav[19] utilizationSecIdle 9206.7762825208
scalar OsgEarthNet.uav[19] utilizationEnergyMission 190626.34539413
scalar OsgEarthNet.uav[19] utilizationEnergyMaintenance 74274.771965027
scalar OsgEarthNet.uav[19] utilizationEnergyCharge 264445.56005859
scalar OsgEarthNet.uav[19] utilizationEnergyOverdrawMission 0
scalar OsgEarthNet.uav[19] utilizationEnergyOverdrawMaintenance 0
scalar OsgEarthNet.uav[19] utilizationCountMissions 57
scalar OsgEarthNet.uav[19] utilizationCountManeuversMission 1210
scalar OsgEarthNet.uav[19] utilizationCountManeuversMaintenance 114
scalar OsgEarthNet.uav[19] utilizationCountChargeState 57
scalar OsgEarthNet.uav[19] utilizationCountOverdrawnAfterMission 0
scalar OsgEarthNet.uav[19] utilizationCountIdleState 30
scalar OsgEarthNet.uav[19] utilizationFail 0
scalar OsgEarthNet.uav[19] simulationTime 259200
scalar OsgEarthNet.uav[20] utilizationSecMission 36725.777778178
scalar OsgEarthNet.uav[20] utilizationSecMaintenance 23503.194992579
scalar OsgEarthNet.uav[20] utilizationSecCharge 196368.8864161
scalar OsgEarthNet.uav[20] utilizationSecIdle 2602.1398131443
scalar OsgEarthNet.uav[20] utilizationEnergyMission 177620.81578445
scalar OsgEarthNet.uav[20] utilizationEnergyMaintenance 111656.24718475
scalar OsgEarthNet.uav[20] utilizationEnergyCharge 288124.79125977
scalar OsgEarthNet.uav[20] utilizationEnergyOverdrawMission 0
scalar OsgEarthNet.uav[20] utilizationEnergyOverdrawMaintenance 0
scalar OsgEarthNet.uav[20] utilizationCountMissions 65
scalar OsgEarthNet.uav[20] utilizationCountManeuversMission 1198
scalar OsgEarthNet.uav[20] utilizationCountManeuversMaintenance 130
scalar OsgEarthNet.uav[20] utilizationCountChargeState 65
scalar OsgEarthNet.uav[20] utilizationCountOverdrawnAfterMission 0
scalar OsgEarthNet.uav[20] utilizationCountIdleState 7
scalar OsgEarthNet.uav[20] utilizationFail 0
scalar OsgEarthNet.uav[20] simulationTime 259200
scalar OsgEarthNet.uav[21] utilizationSecMission 35572.928120776
scalar OsgEarthNet.uav[21] utilizationSecMaintenance 20783.317722204
scalar OsgEarthNet.uav[21] utilizationSecCharge 200621.75315702
scalar OsgEarthNet.uav[21] utilizationSecIdle 2222
scalar OsgEarthNet.uav[21] utilizationEnergyMission 172131.60999298
scalar OsgEarthNet.uav[21] utilizationEnergyMaintenance 99434.447616577
scalar OsgEarthNet.uav[21] utilizationEnergyCharge 266901.19873047
scalar OsgEarthNet.uav[21] utilizationEnergyOverdrawMission 0
scalar OsgEarthNet.uav[21] utilizationEnergyOverdrawMaintenance 0
scalar OsgEarthNet.uav[21] utilizationCountMissions 68
scalar OsgEarthNet.uav[21] utilizationCountManeuversMission 989
scalar OsgEarthNet.uav[21] utilizationCountManeuversMaintenance 135
scalar OsgEarthNet.uav[21] utilizationCountChargeState 68
scalar OsgEarthNet.uav[21] utilizationCountOverdrawnAfterMission 0
scalar OsgEarthNet.uav[21] utilizationCountIdleState 15
scalar OsgEarthNet.uav[21] utilizationFail 0
scalar OsgEarthNet.uav[21] simulationTime 259200
scalar OsgEarthNet.uav[22] utilizationSecMission 40596.610764041
scalar OsgEarthNet.uav[22] utilizationSecMaintenance 14652.574099039
scalar OsgEarthNet.uav[22] utilizationSecCharge 195741.594523
scalar OsgEarthNet.uav[22] utilizationSecIdle 8209.2196139157
scalar OsgEarthNet.uav[22] utilizationEnergyMission 197954.73508835
scalar OsgEarthNet.uav[22] utilizationEnergyMaintenance 66342.57151413
scalar OsgEarthNet.uav[22] utilizationEnergyCharge 263389.02587891
scalar OsgEarthNet.uav[22] utilizationEnergyOverdrawMission 0
scalar OsgEarthNet.uav[22] utilizationEnergyOverdrawMaintenance 0
scalar OsgEarthNet.uav[22] utilizationCountMissions 57
scalar OsgEarthNet.uav[22] utilizationCountManeuversMission 1261
scalar OsgEarthNet.uav[22] utilizationCountManeuversMaintenance 114
scalar OsgEarthNet.uav[22] utilizationCountChargeState 57
scalar OsgEarthNet.uav[22] utilizationCountOverdrawnAfterMission 0
scalar OsgEarthNet.uav[22] utilizationCountIdleState 35
scalar OsgEarthNet.uav[22] utilizationFail 0
scalar OsgEarthNet.uav[22] simulationTime 259200
scalar OsgEarthNet.uav[23] utilizationSecMission 37728.028319471
scalar OsgEarthNet.uav[23] utilizationSecMaintenance 17887.48860123
scalar OsgEarthNet.uav[23] utilizationSecCharge 200822.96841835
scalar OsgEarthNet.uav[23] utilizationSecIdle 2761.5136609497
scalar OsgEarthNet.uav[23] utilizationEnergyMission 179169.05144119
scalar OsgEarthNet.uav[23] utilizationEnergyMaintenance 85915.062114716
scalar OsgEarthNet.uav[23] utilizationEnergyCharge 265944.56640625
scalar OsgEarthNet.uav[23] utilizationEnergyOverdrawMission 0
scalar OsgEarthNet.uav[23] utilizationEnergyOverdrawMaintenance 0
scalar OsgEarthNet.uav[23] utilizationCountMissions 64
scalar OsgEarthNet.uav[23] utilizationCountManeuversMission 888
scalar OsgEarthNet.uav[23] utilizationCountManeuversMaintenance 128
scalar OsgEarthNet.uav[23] utilizationCountChargeState 64
scalar OsgEarthNet.uav[23] utilizationCountOverdrawnAfterMission 0
scalar OsgEarthNet.uav[23] utilizationCountIdleState 16
scalar OsgEarthNet.uav[23] utilizationFail 0
scalar OsgEarthNet.uav[23] simulationTime 259200
scalar OsgEarthNet.uav[24] utilizationSecMission 37739.266089054
scalar OsgEarthNet.uav[24] utilizationSecMaintenance 18910.736701422
scalar OsgEarthNet.uav[24] utilizationSecCharge 199757.9947028
scalar OsgEarthNet.uav[24] utilizationSecIdle 2792.0015067221
scalar OsgEarthNet.uav[24] utilizationEnergyMission 180258.10960388
scalar OsgEarthNet.uav[24] utilizationEnergyMaintenance 88919.816833496
scalar OsgEarthNet.uav[24] utilizationEnergyCharge 269118.27954102
scalar OsgEarthNet.uav[24] utilizationEnergyOverdrawMission 0
scalar OsgEarthNet.uav[24] utilizationEnergyOverdrawMaintenance 0
scalar OsgEarthNet.uav[24] utilizationCountMissions 63
scalar OsgEarthNet.uav[24] utilizationCountManeuversMission 1039
scalar OsgEarthNet.uav[24] utilizationCountManeuversMaintenance 126
scalar OsgEarthNet.uav[24] utilizationCountChargeState 63
scalar OsgEarthNet.uav[24] utilizationCountOverdrawnAfterMission 0
scalar OsgEarthNet.uav[24] utilizationCountIdleState 15
scalar OsgEarthNet.uav[24] utilizationFail 0
scalar OsgEarthNet.uav[24] simulationTime 259200
scalar OsgEarthNet.uav[25] utilizationSecMission 38947.374709569
scalar OsgEarthNet.uav[25] utilizationSecMaintenance 17219.958265393
scalar OsgEarthNet.uav[25] utilizationSecCharge 197650.66602504
scalar OsgEarthNet.uav[25] utilizationSecIdle 5382
scalar OsgEarthNet.uav[25] utilizationEnergyMission 192002.34371185
scalar OsgEarthNet.uav[25] utilizationEnergyMaintenance 80056.886474609
scalar OsgEarthNet.uav[25] utilizationEnergyCharge 267278.79492188
scalar OsgEarthNet.uav[25] utilizationEnergyOverdrawMission 0
scalar OsgEarthNet.uav[25] utilizationEnergyOverdrawMaintenance 0
scalar OsgEarthNet.uav[25] utilizationCountMissions 59
scalar OsgEarthNet.uav[25] utilizationCountManeuversMission 1352
scalar OsgEarthNet.uav[25] utilizationCountManeuversMaintenance 118
scalar OsgEarthNet.uav[25] utilizationCountChargeState 59
scalar OsgEarthNet.uav[25] utilizationCountOverdrawnAfterMission 0
scalar OsgEarthNet.uav[25] utilizationCountIdleState 24
scalar OsgEarthNet.uav[25] utilizationFail 0
scalar OsgEarthNet.uav[25] simulationTime 259200
scalar OsgEarthNet.uav[26] utilizationSecMission 39241.652441568
scalar OsgEarthNet.uav[26] utilizationSecMaintenance 16495.522298168
scalar OsgEarthNet.uav[26] utilizationSecCharge 194011.8740046
scalar OsgEarthNet.uav[26] utilizationSecIdle 9450.9502556647
scalar OsgEarthNet.uav[26] utilizationEnergyMission 191723.55732727
scalar OsgEarthNet.uav[26] utilizationEnergyMaintenance 75534.100517273
scalar OsgEarthNet.uav[26] utilizationEnergyCharge 262414.70117188
scalar OsgEarthNet.uav[26] utilizationEnergyOverdrawMission 0
scalar OsgEarthNet.uav[26] utilizationEnergyOverdrawMaintenance 0
scalar OsgEarthNet.uav[26] utilizationCountMissions 58
scalar OsgEarthNet.uav[26] utilizationCountManeuversMission 1199
scalar OsgEarthNet.uav[26] utilizationCountManeuversMaintenance 116
scalar OsgEarthNet.uav[26] utilizationCountChargeState 58
scalar OsgEarthNet.uav[26] utilizationCountOverdrawnAfterMission 0
scalar OsgEarthNet.uav[26] utilizationCountIdleState 27
scalar OsgEarthNet.uav[26] utilizationFail 0
scalar OsgEarthNet.uav[26] simulationTime 259200
scalar OsgEarthNet.uav[27] utilizationSecMission 34811.538525779
scalar OsgEarthNet.uav[27] utilizationSecMaintenance 20937.208838251
scalar OsgEarthNet.uav[27] utilizationSecCharge 199189.24763597
scalar OsgEarthNet.uav[27] utilizationSecIdle 4262.004
scalar OsgEarthNet.uav[27] utilizationEnergyMission 169308.93513489
scalar OsgEarthNet.uav[27] utilizationEnergyMaintenance 100482.68159485
scalar OsgEarthNet.uav[27] utilizationEnergyCharge 267680.37207031
scalar OsgEarthNet.uav[27] utilizationEnergyOverdrawMission 0
scalar OsgEarthNet.uav[27] utilizationEnergyOverdrawMaintenance 0
scalar OsgEarthNet.uav[27] utilizationCountMissions 67
scalar OsgEarthNet.uav[27] utilizationCountManeuversMission 1005
scalar OsgEarthNet.uav[27] utilizationCountManeuversMaintenance 134
scalar OsgEarthNet.uav[27] utilizationCountChargeState 67
scalar OsgEarthNet.uav[27] utilizationCountOverdrawnAfterMission 0
scalar OsgEarthNet.uav[27] utilizationCountIdleState 15
scalar OsgEarthNet.uav[27] utilizationFail 0
scalar OsgEarthNet.uav[27] simulationTime 259200
scalar OsgEarthNet.uav[28] utilizationSecMission 40492.40287033
scalar OsgEarthNet.uav[28] utilizationSecMaintenance 15648.603984217
scalar OsgEarthNet.uav[28] utilizationSecCharge 198126.99214545
scalar OsgEarthNet.uav[28] utilizationSecIdle 4932
scalar OsgEarthNet.uav[28] utilizationEnergyMission 196474.8666024
scalar OsgEarthNet.uav[28] utilizationEnergyMaintenance 72033.91721344
scalar OsgEarthNet.uav[28] utilizationEnergyCharge 268089.04589844
scalar OsgEarthNet.uav[28] utilizationEnergyOverdrawMission 0
scalar OsgEarthNet.uav[28] utilizationEnergyOverdrawMaintenance 0
scalar OsgEarthNet.uav[28] utilizationCountMissions 58
scalar OsgEarthNet.uav[28] utilizationCountManeuversMission 1315
scalar OsgEarthNet.uav[28] utilizationCountManeuversMaintenance 115
scalar OsgEarthNet.uav[28] utilizationCountChargeState 58
scalar OsgEarthNet.uav[28] utilizationCountOverdrawnAfterMission 0
scalar OsgEarthNet.uav[28] utilizationCountIdleState 26
scalar OsgEarthNet.uav[28] utilizationFail 0
scalar OsgEarthNet.uav[28] simulationTime 259200
scalar OsgEarthNet.uav[29] utilizationSecMission 36665.261700677
scalar OsgEarthNet.uav[29] utilizationSecMaintenance 23656.714993522
scalar OsgEarthNet.uav[29] utilizationSecCharge 196096.0173058
scalar OsgEarthNet.uav[29] utilizationSecIdle 2782.005
scalar OsgEarthNet.uav[29] utilizationEnergyMission 176794.91090012
scalar OsgEarthNet.uav[29] utilizationEnergyMaintenance 111898.38655853
scalar OsgEarthNet.uav[29] utilizationEnergyCharge 288713.6105957
scalar OsgEarthNet.uav[29] utilizationEnergyOverdrawMission 0
scalar OsgEarthNet.uav[29] utilizationEnergyOverdrawMaintenance 0
scalar OsgEarthNet.uav[29] utilizationCountMissions 65
scalar OsgEarthNet.uav[29] utilizationCountManeuversMission 1204
scalar OsgEarthNet.uav[29] utilizationCountManeuversMaintenance 130
scalar OsgEarthNet.uav[29] utilizationCountChargeState 65
scalar OsgEarthNet.uav[29] utilizationCountOverdrawnAfterMission 0
scalar OsgEarthNet.uav[29] utilizationCountIdleState 4
scalar OsgEarthNet.uav[29] utilizationFail 0
scalar OsgEarthNet.uav[29] simulationTime 259200
scalar OsgEarthNet.uav[30] utilizationSecMission 38866.157729169
scalar OsgEarthNet.uav[30] utilizationSecMaintenance 17713.259157353
scalar OsgEarthNet.uav[30] utilizationSecCharge 198748.58211348
scalar OsgEarthNet.uav[30] utilizationSecIdle 3872
scalar OsgEarthNet.uav[30] utilizationEnergyMission 190415.61706924
scalar OsgEarthNet.uav[30] utilizationEnergyMaintenance 82185.597885132
scalar OsgEarthNet.uav[30] utilizationEnergyCharge 270977.61572266
scalar OsgEarthNet.uav[30] utilizationEnergyOverdrawMission 0
scalar OsgEarthNet.uav[30] utilizationEnergyOverdrawMaintenance 0
scalar OsgEarthNet.uav[30] utilizationCountMissions 60
scalar OsgEarthNet.uav[30] utilizationCountManeuversMission 1375
scalar OsgEarthNet.uav[30] utilizationCountManeuversMaintenance 119
scalar OsgEarthNet.uav[30] utilizationCountChargeState 60
scalar OsgEarthNet.uav[30] utilizationCountOverdrawnAfterMission 0
scalar OsgEarthNet.uav[30] utilizationCountIdleState 19
scalar OsgEarthNet.uav[30] utilizationFail 0
scalar OsgEarthNet.uav[30] simulationTime 259200
scalar OsgEarthNet.uav[31] utilizationSecMission 35243.745174905
scalar OsgEarthNet.uav[31] utilizationSecMaintenance 20484.250825095
scalar OsgEarthNet.uav[31] utilizationSecCharge 199110
scalar OsgEarthNet.uav[31] utilizationSecIdle 4362.003
scalar OsgEarthNet.uav[31] utilizationEnergyMission 170432.49719238
scalar OsgEarthNet.uav[31] utilizationEnergyMaintenance 97425.556941606
scalar OsgEarthNet.uav[31] utilizationEnergyCharge 262384.40209961
scalar OsgEarthNet.uav[31] utilizationEnergyOverdrawMission 0
scalar OsgEarthNet.uav[31] utilizationEnergyOverdrawMaintenance 0
scalar OsgEarthNet.uav[31] utilizationCountMissions 67
scalar OsgEarthNet.uav[31] utilizationCountManeuversMission 1014
scalar OsgEarthNet.uav[31] utilizationCountManeuversMaintenance 134
scalar OsgEarthNet.uav[31] utilizationCountChargeState 66
scalar OsgEarthNet.uav[31] utilizationCountOverdrawnAfterMission 0
scalar OsgEarthNet.uav[31] utilizationCountIdleState 19
scalar OsgEarthNet.uav[31] utilizationFail 0
scalar OsgEarthNet.uav[31] simulationTime 259200
scalar OsgEarthNet.uav[32] utilizationSecMission 40058.708139316
scalar OsgEarthNet.uav[32] utilizationSecMaintenance 15630.100922169
scalar OsgEarthNet.uav[32] utilizationSecCharge 195999.18793851
scalar OsgEarthNet.uav[32] utilizationSecIdle 7512.002
scalar OsgEarthNet.uav[32] utilizationEnergyMission 195640.5178833
scalar OsgEarthNet.uav[32] utilizationEnergyMaintenance 72183.50643158
scalar OsgEarthNet.uav[32] utilizationEnergyCharge 263527.84381104
scalar OsgEarthNet.uav[32] utilizationEnergyOverdrawMission 0
scalar OsgEarthNet.uav[32] utilizationEnergyOverdrawMaintenance 0
scalar OsgEarthNet.uav[32] utilizationCountMissions 58
scalar OsgEarthNet.uav[32] utilizationCountManeuversMission 1252
scalar OsgEarthNet.uav[32] utilizationCountManeuversMaintenance 116
scalar OsgEarthNet.uav[32] utilizationCountChargeState 58
scalar OsgEarthNet.uav[32] utilizationCountOverdrawnAfterMission 0
scalar OsgEarthNet.uav[32] utilizationCountIdleState 33
scalar OsgEarthNet.uav[32] utilizationFail 0
scalar OsgEarthNet.uav[32] simulationTime 259200
scalar OsgEarthNet.uav[33] utilizationSecMission 36804.745623176
scalar OsgEarthNet.uav[33] utilizationSecMaintenance 23928.260074522
scalar OsgEarthNet.uav[33] utilizationSecCharge 195824.22733696
scalar OsgEarthNet.uav[33] utilizationSecIdle 2642.765965339
scalar OsgEarthNet.uav[33] utilizationEnergyMission 180063.0626564
scalar OsgEarthNet.uav[33] utilizationEnergyMaintenance 114023.4764061
scalar OsgEarthNet.uav[33] utilizationEnergyCharge 288490.31677246
scalar OsgEarthNet.uav[33] utilizationEnergyOverdrawMission 0
scalar OsgEarthNet.uav[33] utilizationEnergyOverdrawMaintenance 0
scalar OsgEarthNet.uav[33] utilizationCountMissions 66
scalar OsgEarthNet.uav[33] utilizationCountManeuversMission 1220
scalar OsgEarthNet.uav[33] utilizationCountManeuversMaintenance 132
scalar OsgEarthNet.uav[33] utilizationCountChargeState 66
scalar OsgEarthNet.uav[33] utilizationCountOverdrawnAfterMission 0
scalar OsgEarthNet.uav[33] utilizationCountIdleState 4
scalar OsgEarthNet.uav[33] utilizationFail 0
scalar OsgEarthNet.uav[33] simulationTime 259200
scalar OsgEarthNet.uav[34] utilizationSecMission 37159.288027093
scalar OsgEarthNet.uav[34] utilizationSecMaintenance 19438.708427696
scalar OsgEarthNet.uav[34] utilizationSecCharge 198560
scalar OsgEarthNet.uav[34] utilizationSecIdle 4042.0025452107
scalar OsgEarthNet.uav[34] utilizationEnergyMission 177771.94675232
scalar OsgEarthNet.uav[34] utilizationEnergyMaintenance 92247.138061523
scalar OsgEarthNet.uav[34] utilizationEnergyCharge 269410.84375
scalar OsgEarthNet.uav[34] utilizationEnergyOverdrawMission 0
scalar OsgEarthNet.uav[34] utilizationEnergyOverdrawMaintenance 0
scalar OsgEarthNet.uav[34] utilizationCountMissions 63
scalar OsgEarthNet.uav[34] utilizationCountManeuversMission 1042
scalar OsgEarthNet.uav[34] utilizationCountManeuversMaintenance 127
scalar OsgEarthNet.uav[34] utilizationCountChargeState 63
scalar OsgEarthNet.uav[34] utilizationCountOverdrawnAfterMission 0
scalar OsgEarthNet.uav[34] utilizationCountIdleState 15
scalar OsgEarthNet.uav[34] utilizationFail 0
scalar OsgEarthNet.uav[34] simulationTime 259200
scalar OsgEarthNet.uav[35] utilizationSecMission 38784.179260447
scalar OsgEarthNet.uav[35] utilizationSecMaintenance 17419.399265762
scalar OsgEarthNet.uav[35] utilizationSecCharge 197414.41847379
scalar OsgEarthNet.uav[35] utilizationSecIdle 5582.002
scalar OsgEarthNet.uav[35] utilizationEnergyMission 188427.54497147
scalar OsgEarthNet.uav[35] utilizationEnergyMaintenance 80255.379901886
scalar OsgEarthNet.uav[35] utilizationEnergyCharge 266877.4331665
scalar OsgEarthNet.uav[35] utilizationEnergyOverdrawMission 0
scalar OsgEarthNet.uav[35] utilizationEnergyOverdrawMaintenance 0
scalar OsgEarthNet.uav[35] utilizationCountMissions 59
scalar OsgEarthNet.uav[35] utilizationCountManeuversMission 1267
scalar OsgEarthNet.uav[35] utilizationCountManeuversMaintenance 118
scalar OsgEarthNet.uav[35] utilizationCountChargeState 59
scalar OsgEarthNet.uav[35] utilizationCountOverdrawnAfterMission 0
scalar OsgEarthNet.uav[35] utilizationCountIdleState 23
scalar OsgEarthNet.uav[35] utilizationFail 0
scalar OsgEarthNet.uav[35] simulationTime 259200
scalar OsgEarthNet.uav[36] utilizationSecMission 36013.128204186
scalar OsgEarthNet.uav[36] utilizationSecMaintenance 24463.138660424
scalar OsgEarthNet.uav[36] utilizationSecCharge 197961.73113539
scalar OsgEarthNet.uav[36] utilizationSecIdle 762.001
scalar OsgEarthNet.uav[36] utilizationEnergyMission 176694.72146988
scalar OsgEarthNet.uav[36] utilizationEnergyMaintenance 116334.64154434
scalar OsgEarthNet.uav[36] utilizationEnergyCharge 290535.48144531
scalar OsgEarthNet.uav[36] utilizationEnergyOverdrawMission 0
scalar OsgEarthNet.uav[36] utilizationEnergyOverdrawMaintenance 0
scalar OsgEarthNet.uav[36] utilizationCountMissions 66
scalar OsgEarthNet.uav[36] utilizationCountManeuversMission 1254
scalar OsgEarthNet.uav[36] utilizationCountManeuversMaintenance 132
scalar OsgEarthNet.uav[36] utilizationCountChargeState 66
scalar OsgEarthNet.uav[36] utilizationCountOverdrawnAfterMission 0
scalar OsgEarthNet.uav[36] utilizationCountIdleState 6
scalar OsgEarthNet.uav[36] utilizationFail 0
scalar OsgEarthNet.uav[36] simulationTime 259200
scalar OsgEarthNet.uav[37] utilizationSecMission 36418.074078264
scalar OsgEarthNet.uav[37] utilizationSecMaintenance 23929.922921736
scalar OsgEarthNet.uav[37] utilizationSecCharge 197360
scalar OsgEarthNet.uav[37] utilizationSecIdle 1492.002
scalar OsgEarthNet.uav[37] utilizationEnergyMission 177190.23515701
scalar OsgEarthNet.uav[37] utilizationEnergyMaintenance 113503.17326687
scalar OsgEarthNet.uav[37] utilizationEnergyCharge 288282.82958984
scalar OsgEarthNet.uav[37] utilizationEnergyOverdrawMission 0
scalar OsgEarthNet.uav[37] utilizationEnergyOverdrawMaintenance 0
scalar OsgEarthNet.uav[37] utilizationCountMissions 66
scalar OsgEarthNet.uav[37] utilizationCountManeuversMission 1213
scalar OsgEarthNet.uav[37] utilizationCountManeuversMaintenance 132
scalar OsgEarthNet.uav[37] utilizationCountChargeState 65
scalar OsgEarthNet.uav[37] utilizationCountOverdrawnAfterMission 0
scalar OsgEarthNet.uav[37] utilizationCountIdleState 5
scalar OsgEarthNet.uav[37] utilizationFail 0
scalar OsgEarthNet.uav[37] simulationTime 259200
scalar OsgEarthNet.uav[38] utilizationSecMission 39827.561125401
scalar OsgEarthNet.uav[38] utilizationSecMaintenance 16141.720907663
scalar OsgEarthNet.uav[38] utilizationSecCharge 197438.71696694
scalar OsgEarthNet.uav[38] utilizationSecIdle 5792
scalar OsgEarthNet.uav[38] utilizationEnergyMission 192905.0427886
scalar OsgEarthNet.uav[38] utilizationEnergyMaintenance 73661.071495056
scalar OsgEarthNet.uav[38] utilizationEnergyCharge 266703.89672852
scalar OsgEarthNet.uav[38] utilizationEnergyOverdrawMission 0
scalar OsgEarthNet.uav[38] utilizationEnergyOverdrawMaintenance 0
scalar OsgEarthNet.uav[38] utilizationCountMissions 58
scalar OsgEarthNet.uav[38] utilizationCountManeuversMission 1249
scalar OsgEarthNet.uav[38] utilizationCountManeuversMaintenance 115
scalar OsgEarthNet.uav[38] utilizationCountChargeState 58
scalar OsgEarthNet.uav[38] utilizationCountOverdrawnAfterMission 0
scalar OsgEarthNet.uav[38] utilizationCountIdleState 29
scalar OsgEarthNet.uav[38] utilizationFail 0
scalar OsgEarthNet.uav[38] simulationTime 259200
scalar OsgEarthNet.uav[39] utilizationSecMission 39379.047884447
scalar OsgEarthNet.uav[39] utilizationSecMaintenance 15650.989726191
scalar OsgEarthNet.uav[39] utilizationSecCharge 194515.79761645
scalar OsgEarthNet.uav[39] utilizationSecIdle 9654.1637729077
scalar OsgEarthNet.uav[39] utilizationEnergyMission 190135.52818298
scalar OsgEarthNet.uav[39] utilizationEnergyMaintenance 71976.692237854
scalar OsgEarthNet.uav[39] utilizationEnergyCharge 262194.73999023
scalar OsgEarthNet.uav[39] utilizationEnergyOverdrawMission 0
scalar OsgEarthNet.uav[39] utilizationEnergyOverdrawMaintenance 0
scalar OsgEarthNet.uav[39] utilizationCountMissions 57
scalar OsgEarthNet.uav[39] utilizationCountManeuversMission 1214
scalar OsgEarthNet.uav[39] utilizationCountManeuversMaintenance 114
scalar OsgEarthNet.uav[39] utilizationCountChargeState 57
scalar OsgEarthNet.uav[39] utilizationCountOverdrawnAfterMission 0
scalar OsgEarthNet.uav[39] utilizationCountIdleState 33
scalar OsgEarthNet.uav[39] utilizationFail 0
scalar OsgEarthNet.uav[39] simulationTime 259200
scalar OsgEarthNet.uav[40] utilizationSecMission 37237.28612209
scalar OsgEarthNet.uav[40] utilizationSecMaintenance 23136.346603333
scalar OsgEarthNet.uav[40] utilizationSecCharge 194232.34800485
scalar OsgEarthNet.uav[40] utilizationSecIdle 4594.0182697282
scalar OsgEarthNet.uav[40] utilizationEnergyMission 180283.25876617
scalar OsgEarthNet.uav[40] utilizationEnergyMaintenance 109865.47530365
scalar OsgEarthNet.uav[40] utilizationEnergyCharge 286475.69384766
scalar OsgEarthNet.uav[40] utilizationEnergyOverdrawMission 0
scalar OsgEarthNet.uav[40] utilizationEnergyOverdrawMaintenance 0
scalar OsgEarthNet.uav[40] utilizationCountMissions 65
scalar OsgEarthNet.uav[40] utilizationCountManeuversMission 1167
scalar OsgEarthNet.uav[40] utilizationCountManeuversMaintenance 130
scalar OsgEarthNet.uav[40] utilizationCountChargeState 65
scalar OsgEarthNet.uav[40] utilizationCountOverdrawnAfterMission 0
scalar OsgEarthNet.uav[40] utilizationCountIdleState 6
scalar OsgEarthNet.uav[40] utilizationFail 0
scalar OsgEarthNet.uav[40] simulationTime 259200
scalar OsgEarthNet.uav[41] utilizationSecMission 36289.859430221
scalar OsgEarthNet.uav[41] utilizationSecMaintenance 18938.138569779
scalar OsgEarthNet.uav[41] utilizationSecCharge 199130
scalar OsgEarthNet.uav[41] utilizationSecIdle 4842.001
scalar OsgEarthNet.uav[41] utilizationEnergyMission 174015.97820282
scalar OsgEarthNet.uav[41] utilizationEnergyMaintenance 89877.744620971
scalar OsgEarthNet.uav[41] utilizationEnergyCharge 265895.21679688
scalar OsgEarthNet.uav[41] utilizationEnergyOverdrawMission 0
scalar OsgEarthNet.uav[41] utilizationEnergyOverdrawMaintenance 0
scalar OsgEarthNet.uav[41] utilizationCountMissions 63
scalar OsgEarthNet.uav[41] utilizationCountManeuversMission 1077
scalar OsgEarthNet.uav[41] utilizationCountManeuversMaintenance 127
scalar OsgEarthNet.uav[41] utilizationCountChargeState 63
scalar OsgEarthNet.uav[41] utilizationCountOverdrawnAfterMission 0
scalar OsgEarthNet.uav[41] utilizationCountIdleState 20
scalar OsgEarthNet.uav[41] utilizationFail 0
scalar OsgEarthNet.uav[41] simulationTime 259200
scalar OsgEarthNet.uav[42] utilizationSecMission 32534.09749244
scalar OsgEarthNet.uav[42] utilizationSecMaintenance 22137.688645193
scalar OsgEarthNet.uav[42] utilizationSecCharge 201226.20986237
scalar OsgEarthNet.uav[42] utilizationSecIdle 3302.003
scalar OsgEarthNet.uav[42] utilizationEnergyMission 155765.63413239
scalar OsgEarthNet.uav[42] utilizationEnergyMaintenance 105408.08094025
scalar OsgEarthNet.uav[42] utilizationEnergyCharge 261723.00244141
scalar OsgEarthNet.uav[42] utilizationEnergyOverdrawMission 0
scalar OsgEarthNet.uav[42] utilizationEnergyOverdrawMaintenance 0
scalar OsgEarthNet.uav[42] utilizationCountMissions 70
scalar OsgEarthNet.uav[42] utilizationCountManeuversMission 982
scalar OsgEarthNet.uav[42] utilizationCountManeuversMaintenance 140
scalar OsgEarthNet.uav[42] utilizationCountChargeState 70
scalar OsgEarthNet.uav[42] utilizationCountOverdrawnAfterMission 0
scalar OsgEarthNet.uav[42] utilizationCountIdleState 13
scalar OsgEarthNet.uav[42] utilizationFail 0
scalar OsgEarthNet.uav[42] simulationTime 259200
scalar OsgEarthNet.uav[43] utilizationSecMission 38199.375462261
scalar OsgEarthNet.uav[43] utilizationSecMaintenance 17073.034733874
scalar OsgEarthNet.uav[43] utilizationSecCharge 196699.00814699
scalar OsgEarthNet.uav[43] utilizationSecIdle 7228.5806568717
scalar OsgEarthNet.uav[43] utilizationEnergyMission 187215.45715332
scalar OsgEarthNet.uav[43] utilizationEnergyMaintenance 79294.59103775
scalar OsgEarthNet.uav[43] utilizationEnergyCharge 264870.296875
scalar OsgEarthNet.uav[43] utilizationEnergyOverdrawMission 0
scalar OsgEarthNet.uav[43] utilizationEnergyOverdrawMaintenance 0
scalar OsgEarthNet.uav[43] utilizationCountMissions 58
scalar OsgEarthNet.uav[43] utilizationCountManeuversMission 1222
scalar OsgEarthNet.uav[43] utilizationCountManeuversMaintenance 116
scalar OsgEarthNet.uav[43] utilizationCountChargeState 58
scalar OsgEarthNet.uav[43] utilizationCountOverdrawnAfterMission 0
scalar OsgEarthNet.uav[43] utilizationCountIdleState 29
scalar OsgEarthNet.uav[43] utilizationFail 0
scalar OsgEarthNet.uav[43] simulationTime 259200
scalar OsgEarthNet.uav[44] utilizationSecMission 36307.594613468
scalar OsgEarthNet.uav[44] utilizationSecMaintenance 19253.165376179
scalar OsgEarthNet.uav[44] utilizationSecCharge 199338.27502468
scalar OsgEarthNet.uav[44] utilizationSecIdle 4300.9639856735
scalar OsgEarthNet.uav[44] utilizationEnergyMission 173859.16060638
scalar OsgEarthNet.uav[44] utilizationEnergyMaintenance 92128.321964264
scalar OsgEarthNet.uav[44] utilizationEnergyCharge 266984.47680664
scalar OsgEarthNet.uav[44] utilizationEnergyOverdrawMission 0
scalar OsgEarthNet.uav[44] utilizationEnergyOverdrawMaintenance 0
scalar OsgEarthNet.uav[44] utilizationCountMissions 65
scalar OsgEarthNet.uav[44] utilizationCountManeuversMission 945
scalar OsgEarthNet.uav[44] utilizationCountManeuversMaintenance 130
scalar OsgEarthNet.uav[44] utilizationCountChargeState 65
scalar OsgEarthNet.uav[44] utilizationCountOverdrawnAfterMission 0
scalar OsgEarthNet.uav[44] utilizationCountIdleState 21
scalar OsgEarthNet.uav[44] utilizationFail 0
scalar OsgEarthNet.uav[44] simulationTime 259200
scalar OsgEarthNet.uav[45] utilizationSecMission 38795.505455786
scalar OsgEarthNet.uav[45] utilizationSecMaintenance 17552.961469629
scalar OsgEarthNet.uav[45] utilizationSecCharge 197929.53107458
scalar OsgEarthNet.uav[45] utilizationSecIdle 4922.001
scalar OsgEarthNet.uav[45] utilizationEnergyMission 190997.80754089
scalar OsgEarthNet.uav[45] utilizationEnergyMaintenance 79864.712524414
scalar OsgEarthNet.uav[45] utilizationEnergyCharge 268137.31298828
scalar OsgEarthNet.uav[45] utilizationEnergyOverdrawMission 0
scalar OsgEarthNet.uav[45] utilizationEnergyOverdrawMaintenance 0
scalar OsgEarthNet.uav[45] utilizationCountMissions 59
scalar OsgEarthNet.uav[45] utilizationCountManeuversMission 1305
scalar OsgEarthNet.uav[45] utilizationCountManeuversMaintenance 118
scalar OsgEarthNet.uav[45] utilizationCountChargeState 59
scalar OsgEarthNet.uav[45] utilizationCountOverdrawnAfterMission 0
scalar OsgEarthNet.uav[45] utilizationCountIdleState 30
scalar OsgEarthNet.uav[45] utilizationFail 0
scalar OsgEarthNet.uav[45] simulationTime 259200
scalar OsgEarthNet.uav[46] utilizationSecMission 34864.477622645
scalar OsgEarthNet.uav[46] utilizationSecMaintenance 20267.551041417
scalar OsgEarthNet.uav[46] utilizationSecCharge 199295.96633594
scalar OsgEarthNet.uav[46] utilizationSecIdle 4772.004
scalar OsgEarthNet.uav[46] utilizationEnergyMission 166087.5974617
scalar OsgEarthNet.uav[46] utilizationEnergyMaintenance 96533.576324463
scalar OsgEarthNet.uav[46] utilizationEnergyCharge 264535.75488281
scalar OsgEarthNet.uav[46] utilizationEnergyOverdrawMission 0
scalar OsgEarthNet.uav[46] utilizationEnergyOverdrawMaintenance 0
scalar OsgEarthNet.uav[46] utilizationCountMissions 64
scalar OsgEarthNet.uav[46] utilizationCountManeuversMission 1054
scalar OsgEarthNet.uav[46] utilizationCountManeuversMaintenance 128
scalar OsgEarthNet.uav[46] utilizationCountChargeState 64
scalar OsgEarthNet.uav[46] utilizationCountOverdrawnAfterMission 0
scalar OsgEarthNet.uav[46] utilizationCountIdleState 22
scalar OsgEarthNet.uav[46] utilizationFail 0
scalar OsgEarthNet.uav[46] simulationTime 259200
scalar OsgEarthNet.uav[47] utilizationSecMission 35310.10148404
scalar OsgEarthNet.uav[47] utilizationSecMaintenance 20613.850784591
scalar OsgEarthNet.uav[47] utilizationSecCharge 196691.34103233
scalar OsgEarthNet.uav[47] utilizationSecIdle 6584.7056990363
scalar OsgEarthNet.uav[47] utilizationEnergyMission 171081.4772377
scalar OsgEarthNet.uav[47] utilizationEnergyMaintenance 97762.876842499
scalar OsgEarthNet.uav[47] utilizationEnergyCharge 264169.72854614
scalar OsgEarthNet.uav[47] utilizationEnergyOverdrawMission 0
scalar OsgEarthNet.uav[47] utilizationEnergyOverdrawMaintenance 0
scalar OsgEarthNet.uav[47] utilizationCountMissions 64
scalar OsgEarthNet.uav[47] utilizationCountManeuversMission 1125
scalar OsgEarthNet.uav[47] utilizationCountManeuversMaintenance 128
scalar OsgEarthNet.uav[47] utilizationCountChargeState 64
scalar OsgEarthNet.uav[47] utilizationCountOverdrawnAfterMission 0
scalar OsgEarthNet.uav[47] utilizationCountIdleState 20
scalar OsgEarthNet.uav[47] utilizationFail 0
scalar OsgEarthNet.uav[47] simulationTime 259200
scalar OsgEarthNet.uav[48] utilizationSecMission 39423.601699229
scalar OsgEarthNet.uav[48] utilizationSecMaintenance 16394.394300772
scalar OsgEarthNet.uav[48] utilizationSecCharge 197470
scalar OsgEarthNet.uav[48] utilizationSecIdle 5912.003
scalar OsgEarthNet.uav[48] utilizationEnergyMission 188872.93053364
scalar OsgEarthNet.uav[48] utilizationEnergyMaintenance 76715.918754578
scalar OsgEarthNet.uav[48] utilizationEnergyCharge 265384.31396484
scalar OsgEarthNet.uav[48] utilizationEnergyOverdrawMission 0
scalar OsgEarthNet.uav[48] utilizationEnergyOverdrawMaintenance 0
scalar OsgEarthNet.uav[48] utilizationCountMissions 58
scalar OsgEarthNet.uav[48] utilizationCountManeuversMission 1199
scalar OsgEarthNet.uav[48] utilizationCountManeuversMaintenance 117
scalar OsgEarthNet.uav[48] utilizationCountChargeState 58
scalar OsgEarthNet.uav[48] utilizationCountOverdrawnAfterMission 0
scalar OsgEarthNet.uav[48] utilizationCountIdleState 26
scalar OsgEarthNet.uav[48] utilizationFail 0
scalar OsgEarthNet.uav[48] simulationTime 259200
scalar OsgEarthNet.uav[49] utilizationSecMission 38456.878462543
scalar OsgEarthNet.uav[49] utilizationSecMaintenance 16842.075371387
scalar OsgEarthNet.uav[49] utilizationSecCharge 196530.09591041
scalar OsgEarthNet.uav[49] utilizationSecIdle 7370.9492556647
scalar OsgEarthNet.uav[49] utilizationEnergyMission 189882.47439194
scalar OsgEarthNet.uav[49] utilizationEnergyMaintenance 77878.033500671
scalar OsgEarthNet.uav[49] utilizationEnergyCharge 265519.82202148
scalar OsgEarthNet.uav[49] utilizationEnergyOverdrawMission 0
scalar OsgEarthNet.uav[49] utilizationEnergyOverdrawMaintenance 0
scalar OsgEarthNet.uav[49] utilizationCountMissions 58
scalar OsgEarthNet.uav[49] utilizationCountManeuversMission 1315
scalar OsgEarthNet.uav[49] utilizationCountManeuversMaintenance 116
scalar OsgEarthNet.uav[49] utilizationCountChargeState 58
scalar OsgEarthNet.uav[49] utilizationCountOverdrawnAfterMission 0
scalar OsgEarthNet.uav[49] utilizationCountIdleState 29
scalar OsgEarthNet.uav[49] utilizationFail 0
scalar OsgEarthNet.uav[49] simulationTime 259200
scalar OsgEarthNet.uav[50] utilizationSecMission 34908.56501418
scalar OsgEarthNet.uav[50] utilizationSecMaintenance 20299.42698582
scalar OsgEarthNet.uav[50] utilizationSecCharge 198340
scalar OsgEarthNet.uav[50] utilizationSecIdle 5652.007
scalar OsgEarthNet.uav[50] utilizationEnergyMission 167311.90888732
scalar OsgEarthNet.uav[50] utilizationEnergyMaintenance 96790.171714783
scalar OsgEarthNet.uav[50] utilizationEnergyCharge 261817.59545898
scalar OsgEarthNet.uav[50] utilizationEnergyOverdrawMission 0
scalar OsgEarthNet.uav[50] utilizationEnergyOverdrawMaintenance 0
scalar OsgEarthNet.uav[50] utilizationCountMissions 66
scalar OsgEarthNet.uav[50] utilizationCountManeuversMission 961
scalar OsgEarthNet.uav[50] utilizationCountManeuversMaintenance 133
scalar OsgEarthNet.uav[50] utilizationCountChargeState 66
scalar OsgEarthNet.uav[50] utilizationCountOverdrawnAfterMission 0
scalar OsgEarthNet.uav[50] utilizationCountIdleState 20
scalar OsgEarthNet.uav[50] utilizationFail 0
scalar OsgEarthNet.uav[50] simulationTime 259200
scalar OsgEarthNet.uav[51] utilizationSecMission 37200.86600394
scalar OsgEarthNet.uav[51] utilizationSecMaintenance 23230.779393181
scalar OsgEarthNet.uav[51] utilizationSecCharge 196610
scalar OsgEarthNet.uav[51] utilizationSecIdle 2158.3536028792
scalar OsgEarthNet.uav[51] utilizationEnergyMission 179803.57285556
scalar OsgEarthNet.uav[51] utilizationEnergyMaintenance 110156.22484589
scalar OsgEarthNet.uav[51] utilizationEnergyCharge 287981.20043945
scalar OsgEarthNet.uav[51] utilizationEnergyOverdrawMission 0
scalar OsgEarthNet.uav[51] utilizationEnergyOverdrawMaintenance 0
scalar OsgEarthNet.uav[51] utilizationCountMissions 65
scalar OsgEarthNet.uav[51] utilizationCountManeuversMission 1200
scalar OsgEarthNet.uav[51] utilizationCountManeuversMaintenance 131
scalar OsgEarthNet.uav[51] utilizationCountChargeState 65
scalar OsgEarthNet.uav[51] utilizationCountOverdrawnAfterMission 0
scalar OsgEarthNet.uav[51] utilizationCountIdleState 6
scalar OsgEarthNet.uav[51] utilizationFail 0
scalar OsgEarthNet.uav[51] simulationTime 259200
scalar OsgEarthNet.uav[52] utilizationSecMission 40383.571865693
scalar OsgEarthNet.uav[52] utilizationSecMaintenance 15911.402801797
scalar OsgEarthNet.uav[52] utilizationSecCharge 194420.52639133
scalar OsgEarthNet.uav[52] utilizationSecIdle 8484.4979411756
scalar OsgEarthNet.uav[52] utilizationEnergyMission 191732.49910355
scalar OsgEarthNet.uav[52] utilizationEnergyMaintenance 73554.238651276
scalar OsgEarthNet.uav[52] utilizationEnergyCharge 262434.7253418
scalar OsgEarthNet.uav[52] utilizationEnergyOverdrawMission 0
scalar OsgEarthNet.uav[52] utilizationEnergyOverdrawMaintenance 0
scalar OsgEarthNet.uav[52] utilizationCountMissions 58
scalar OsgEarthNet.uav[52] utilizationCountManeuversMission 1238
scalar OsgEarthNet.uav[52] utilizationCountManeuversMaintenance 116
scalar OsgEarthNet.uav[52] utilizationCountChargeState 58
scalar OsgEarthNet.uav[52] utilizationCountOverdrawnAfterMission 0
scalar OsgEarthNet.uav[52] utilizationCountIdleState 30
scalar OsgEarthNet.uav[52] utilizationFail 0
scalar OsgEarthNet.uav[52] simulationTime 259200
scalar OsgEarthNet.uav[53] utilizationSecMission 35858.145132625
scalar OsgEarthNet.uav[53] utilizationSecMaintenance 23839.845867375
scalar OsgEarthNet.uav[53] utilizationSecCharge 195370
scalar OsgEarthNet.uav[53] utilizationSecIdle 4132.008
scalar OsgEarthNet.uav[53] utilizationEnergyMission 176497.41982622
scalar OsgEarthNet.uav[53] utilizationEnergyMaintenance 113355.90070724
scalar OsgEarthNet.uav[53] utilizationEnergyCharge 286887.42993164
scalar OsgEarthNet.uav[53] utilizationEnergyOverdrawMission 0
scalar OsgEarthNet.uav[53] utilizationEnergyOverdrawMaintenance 0
scalar OsgEarthNet.uav[53] utilizationCountMissions 65
scalar OsgEarthNet.uav[53] utilizationCountManeuversMission 1198
scalar OsgEarthNet.uav[53] utilizationCountManeuversMaintenance 131
scalar OsgEarthNet.uav[53] utilizationCountChargeState 65
scalar OsgEarthNet.uav[53] utilizationCountOverdrawnAfterMission 0
scalar OsgEarthNet.uav[53] utilizationCountIdleState 6
scalar OsgEarthNet.uav[53] utilizationFail 0
scalar OsgEarthNet.uav[53] simulationTime 259200
scalar OsgEarthNet.uav[54] utilizationSecMission 35699.249142056
scalar OsgEarthNet.uav[54] utilizationSecMaintenance 20650.341244872
scalar OsgEarthNet.uav[54] utilizationSecCharge 198538.40361307
scalar OsgEarthNet.uav[54] utilizationSecIdle 4312.005
scalar OsgEarthNet.uav[54] utilizationEnergyMission 174917.14414978
scalar OsgEarthNet.uav[54] utilizationEnergyMaintenance 97477.525470734
scalar OsgEarthNet.uav[54] utilizationEnergyCharge 271028.81103516
scalar OsgEarthNet.uav[54] utilizationEnergyOverdrawMission 0
scalar OsgEarthNet.uav[54] utilizationEnergyOverdrawMaintenance 0
scalar OsgEarthNet.uav[54] utilizationCountMissions 63
scalar OsgEarthNet.uav[54] utilizationCountManeuversMission 1154
scalar OsgEarthNet.uav[54] utilizationCountManeuversMaintenance 126
scalar OsgEarthNet.uav[54] utilizationCountChargeState 63
scalar OsgEarthNet.uav[54] utilizationCountOverdrawnAfterMission 0
scalar OsgEarthNet.uav[54] utilizationCountIdleState 13
scalar OsgEarthNet.uav[54] utilizationFail 0
scalar OsgEarthNet.uav[54] simulationTime 259200
scalar OsgEarthNet.uav[55] utilizationSecMission 39367.226001799
scalar OsgEarthNet.uav[55] utilizationSecMaintenance 16513.347650911
scalar OsgEarthNet.uav[55] utilizationSecCharge 195990
scalar OsgEarthNet.uav[55] utilizationSecIdle 7329.4253472904
scalar OsgEarthNet.uav[55] utilizationEnergyMission 190767.46249051
scalar OsgEarthNet.uav[55] utilizationEnergyMaintenance 75724.609149933
scalar OsgEarthNet.uav[55] utilizationEnergyCharge 266569.90527344
scalar OsgEarthNet.uav[55] utilizationEnergyOverdrawMission 0
scalar OsgEarthNet.uav[55] utilizationEnergyOverdrawMaintenance 0
scalar OsgEarthNet.uav[55] utilizationCountMissions 58
scalar OsgEarthNet.uav[55] utilizationCountManeuversMission 1278
scalar OsgEarthNet.uav[55] utilizationCountManeuversMaintenance 117
scalar OsgEarthNet.uav[55] utilizationCountChargeState 58
scalar OsgEarthNet.uav[55] utilizationCountOverdrawnAfterMission 0
scalar OsgEarthNet.uav[55] utilizationCountIdleState 26
scalar OsgEarthNet.uav[55] utilizationFail 0
scalar OsgEarthNet.uav[55] simulationTime 259200
scalar OsgEarthNet.uav[56] utilizationSecMission 37065.995928337
scalar OsgEarthNet.uav[56] utilizationSecMaintenance 22952.337314246
scalar OsgEarthNet.uav[56] utilizationSecCharge 195598.27363988
scalar OsgEarthNet.uav[56] utilizationSecIdle 3583.3921175336
scalar OsgEarthNet.uav[56] utilizationEnergyMission 178934.03792572
scalar OsgEarthNet.uav[56] utilizationEnergyMaintenance 109066.4123764
scalar OsgEarthNet.uav[56] utilizationEnergyCharge 288042.36376953
scalar OsgEarthNet.uav[56] utilizationEnergyOverdrawMission 0
scalar OsgEarthNet.uav[56] utilizationEnergyOverdrawMaintenance 0
scalar OsgEarthNet.uav[56] utilizationCountMissions 65
scalar OsgEarthNet.uav[56] utilizationCountManeuversMission 1181
scalar OsgEarthNet.uav[56] utilizationCountManeuversMaintenance 130
scalar OsgEarthNet.uav[56] utilizationCountChargeState 65
scalar OsgEarthNet.uav[56] utilizationCountOverdrawnAfterMission 0
scalar OsgEarthNet.uav[56] utilizationCountIdleState 5
scalar OsgEarthNet.uav[56] utilizationFail 0
scalar OsgEarthNet.uav[56] simulationTime 259200
scalar OsgEarthNet.uav[57] utilizationSecMission 34567.975573337
scalar OsgEarthNet.uav[57] utilizationSecMaintenance 20869.495943029
scalar OsgEarthNet.uav[57] utilizationSecCharge 197898.85930565
scalar OsgEarthNet.uav[57] utilizationSecIdle 5863.6681779877
scalar OsgEarthNet.uav[57] utilizationEnergyMission 169575.32132339
scalar OsgEarthNet.uav[57] utilizationEnergyMaintenance 98886.924442291
scalar OsgEarthNet.uav[57] utilizationEnergyCharge 263820.3918457
scalar OsgEarthNet.uav[57] utilizationEnergyOverdrawMission 0
scalar OsgEarthNet.uav[57] utilizationEnergyOverdrawMaintenance 0
scalar OsgEarthNet.uav[57] utilizationCountMissions 66
scalar OsgEarthNet.uav[57] utilizationCountManeuversMission 1051
scalar OsgEarthNet.uav[57] utilizationCountManeuversMaintenance 132
scalar OsgEarthNet.uav[57] utilizationCountChargeState 66
scalar OsgEarthNet.uav[57] utilizationCountOverdrawnAfterMission 0
scalar OsgEarthNet.uav[57] utilizationCountIdleState 17
scalar OsgEarthNet.uav[57] utilizationFail 0
scalar OsgEarthNet.uav[57] simulationTime 259200
scalar OsgEarthNet.uav[58] utilizationSecMission 39485.578342784
scalar OsgEarthNet.uav[58] utilizationSecMaintenance 16241.04167222
scalar OsgEarthNet.uav[58] utilizationSecCharge 195971.92602628
scalar OsgEarthNet.uav[58] utilizationSecIdle 7501.4529587171
scalar OsgEarthNet.uav[58] utilizationEnergyMission 190821.85106277
scalar OsgEarthNet.uav[58] utilizationEnergyMaintenance 74697.751010895
scalar OsgEarthNet.uav[58] utilizationEnergyCharge 263503.71777344
scalar OsgEarthNet.uav[58] utilizationEnergyOverdrawMission 0
scalar OsgEarthNet.uav[58] utilizationEnergyOverdrawMaintenance 0
scalar OsgEarthNet.uav[58] utilizationCountMissions 58
scalar OsgEarthNet.uav[58] utilizationCountManeuversMission 1274
scalar OsgEarthNet.uav[58] utilizationCountManeuversMaintenance 116
scalar OsgEarthNet.uav[58] utilizationCountChargeState 58
scalar OsgEarthNet.uav[58] utilizationCountOverdrawnAfterMission 0
scalar OsgEarthNet.uav[58] utilizationCountIdleState 28
scalar OsgEarthNet.uav[58] utilizationFail 0
scalar OsgEarthNet.uav[58] simulationTime 259200
scalar OsgEarthNet.uav[59] utilizationSecMission 36444.120470596
scalar OsgEarthNet.uav[59] utilizationSecMaintenance 24239.841592662
scalar OsgEarthNet.uav[59] utilizationSecCharge 197184.03393674
scalar OsgEarthNet.uav[59] utilizationSecIdle 1332.003
scalar OsgEarthNet.uav[59] utilizationEnergyMission 177936.49973297
scalar OsgEarthNet.uav[59] utilizationEnergyMaintenance 115598.60549164
scalar OsgEarthNet.uav[59] utilizationEnergyCharge 291670.09667969
scalar OsgEarthNet.uav[59] utilizationEnergyOverdrawMission 0
scalar OsgEarthNet.uav[59] utilizationEnergyOverdrawMaintenance 0
scalar OsgEarthNet.uav[59] utilizationCountMissions 66
scalar OsgEarthNet.uav[59] utilizationCountManeuversMission 1228
scalar OsgEarthNet.uav[59] utilizationCountManeuversMaintenance 132
scalar OsgEarthNet.uav[59] utilizationCountChargeState 66
scalar OsgEarthNet.uav[59] utilizationCountOverdrawnAfterMission 0
scalar OsgEarthNet.uav[59] utilizationCountIdleState 4
scalar OsgEarthNet.uav[59] utilizationFail 0
scalar OsgEarthNet.uav[59] simulationTime 259200
scalar OsgEarthNet.uav[60] utilizationSecMission 37094.378509346
scalar OsgEarthNet.uav[60] utilizationSecMaintenance 24237.344709909
scalar OsgEarthNet.uav[60] utilizationSecCharge 197546.27578074
scalar OsgEarthNet.uav[60] utilizationSecIdle 322
scalar OsgEarthNet.uav[60] utilizationEnergyMission 182793.80102921
scalar OsgEarthNet.uav[60] utilizationEnergyMaintenance 115288.59545517
scalar OsgEarthNet.uav[60] utilizationEnergyCharge 292649.84796143
scalar OsgEarthNet.uav[60] utilizationEnergyOverdrawMission 0
scalar OsgEarthNet.uav[60] utilizationEnergyOverdrawMaintenance 0
scalar OsgEarthNet.uav[60] utilizationCountMissions 67
scalar OsgEarthNet.uav[60] utilizationCountManeuversMission 1256
scalar OsgEarthNet.uav[60] utilizationCountManeuversMaintenance 134
scalar OsgEarthNet.uav[60] utilizationCountChargeState 67
scalar OsgEarthNet.uav[60] utilizationCountOverdrawnAfterMission 0
scalar OsgEarthNet.uav[60] utilizationCountIdleState 5
scalar OsgEarthNet.uav[60] utilizationFail 0
scalar OsgEarthNet.uav[60] simulationTime 259200
scalar OsgEarthNet.uav[61] utilizationSecMission 36341.929213285
scalar OsgEarthNet.uav[61] utilizationSecMaintenance 20181.445301072
scalar OsgEarthNet.uav[61] utilizationSecCharge 201102.01259613
scalar OsgEarthNet.uav[61] utilizationSecIdle 1574.6118895164
scalar OsgEarthNet.uav[61] utilizationEnergyMission 173890.63554764
scalar OsgEarthNet.uav[61] utilizationEnergyMaintenance 95115.993099213
scalar OsgEarthNet.uav[61] utilizationEnergyCharge 266622.84057617
scalar OsgEarthNet.uav[61] utilizationEnergyOverdrawMission 0
scalar OsgEarthNet.uav[61] utilizationEnergyOverdrawMaintenance 0
scalar OsgEarthNet.uav[61] utilizationCountMissions 68
scalar OsgEarthNet.uav[61] utilizationCountManeuversMission 971
scalar OsgEarthNet.uav[61] utilizationCountManeuversMaintenance 136
scalar OsgEarthNet.uav[61] utilizationCountChargeState 68
scalar OsgEarthNet.uav[61] utilizationCountOverdrawnAfterMission 0
scalar OsgEarthNet.uav[61] utilizationCountIdleState 15
scalar OsgEarthNet.uav[61] utilizationFail 0
scalar OsgEarthNet.uav[61] simulationTime 259200
scalar OsgEarthNet.cs[0] usedPower 4048487.6180625
scalar OsgEarthNet.cs[0] chargedPower 4048487.6180625
scalar OsgEarthNet.cs[0] chargedMobileNodes 69
scalar OsgEarthNet.cs[0] reservations 918
scalar OsgEarthNet.cs[1] usedPower 5730070.5378161
scalar OsgEarthNet.cs[1] chargedPower 5730070.5378161
scalar OsgEarthNet.cs[1] chargedMobileNodes 371
scalar OsgEarthNet.cs[1] reservations 1422
scalar OsgEarthNet.cs[2] usedPower 6995306.0236636
scalar OsgEarthNet.cs[2] chargedPower 6995306.0236636
scalar OsgEarthNet.cs[2] chargedMobileNodes 745
scalar OsgEarthNet.cs[2] reservations 1528

