version 2
run Szenario_Hotel_Gabelbach-135-20180719-06:10:27-20584
attr configname Szenario_Hotel_Gabelbach
attr datetime 20180719-06:10:27
attr experiment Szenario_Hotel_Gabelbach
attr inifile omnetpp.ini
attr iterationvars "$replM=2, $biWeight=0.35, $replSearchM=1, $numUAVs=60"
attr iterationvarsf replM=2,biWeight=0.35,replSearchM=1,numUAVs=60-
attr measurement "$replM=2, $biWeight=0.35, $replSearchM=1, $numUAVs=60"
attr network OsgEarthNet
attr processid 20584
attr repetition 15
attr replication #15
attr resultdir results
attr runnumber 135
attr seedset 135
itervar biWeight 0.35
itervar numUAVs 60
itervar replM 2
itervar replSearchM 1
param *.osgEarthScene.scene "\"Szenario_Hotel_Gabelbach.earth\""
param *.playgroundLatitude 50.6830269
param *.playgroundLongitude 10.8538055
param *.playgroundWidth 3500m
param *.playgroundHeight 3500m
param *.cs[0].posX 3537m
param *.cs[0].posY 965m
param *.cs[0].posZ 538m
param *.cs[1].posX 312m
param *.cs[1].posY 1262m
param *.cs[1].posZ 539m
param *.cs[2].posX 2185m
param *.cs[2].posY 3026m
param *.cs[2].posZ 777m
param *.cs[3].posX 10m
param *.cs[3].posY 2200m
param *.cs[3].posZ 560m
param *.cs[4].posX 750m
param *.cs[4].posY 200m
param *.cs[4].posZ 540m
param *.cs[5].posX 2450m
param *.cs[5].posY 180m
param *.cs[5].posZ 524m
param *.cs[6].posX 3140m
param *.cs[6].posY 1790m
param *.cs[6].posZ 606m
param *.numCSs 3
param *.uav[*].replacementMethod 2
param *.uav[*].weightedSumWeight 0.35
param *.missionControl.replacementSearchMethod 1
param *.numUAVs 60
param *.*.timeStep 10s
param *.uav[*].commandPreviewCommandCount 20
param *.missionControl.missionFiles "\"missions\\\\Szenario_WB_Hotel_Gabelbach_Mission_Hotel.waypoints,missions\\\\Szenario_WB_Hotel_Gabelbach_Mission_Kickelhahn.waypoints,missions\\\\Szenario_WB_Hotel_Gabelbach_Mission_Ilmenau_Sportplatz.waypoints,missions\\\\Szenario_WB_Hotel_Gabelbach_Mission_Manebach_Mitte.waypoints,missions\\\\Szenario_WB_Hotel_Gabelbach_Mission_Manebach_Sued.waypoints,missions\\\\Szenario_WB_Hotel_Gabelbach_Hover_HoheSchlaufe.waypoints,missions\\\\Szenario_WB_Hotel_Gabelbach_Hover_Kickelhahn.waypoints,missions\\\\Szenario_WB_Hotel_Gabelbach_Hover_Gabelbachskopf.waypoints,missions\\\\Szenario_WB_Hotel_Gabelbach_Hover_Dachskopf.waypoints\""
param *.uav[0].startX 3537m
param *.uav[0].startY 965m
param *.uav[0].startZ 539m
param *.uav[1].startX 312m
param *.uav[1].startY 1262m
param *.uav[1].startZ 540m
param *.uav[2].startX 2185m
param *.uav[2].startY 3026m
param *.uav[2].startZ 778m
param *.uav[3].startX 3537m
param *.uav[3].startY 965m
param *.uav[3].startZ 539m
param *.uav[4].startX 312m
param *.uav[4].startY 1262m
param *.uav[4].startZ 540m
param *.uav[5].startX 2185m
param *.uav[5].startY 3026m
param *.uav[5].startZ 778m
param *.uav[6].startX 3537m
param *.uav[6].startY 965m
param *.uav[6].startZ 539m
param *.uav[7].startX 312m
param *.uav[7].startY 1262m
param *.uav[7].startZ 540m
param *.uav[8].startX 2185m
param *.uav[8].startY 3026m
param *.uav[8].startZ 778m
param *.uav[9].startX 3537m
param *.uav[9].startY 965m
param *.uav[9].startZ 539m
param *.uav[10].startX 3537m
param *.uav[10].startY 965m
param *.uav[10].startZ 539m
param *.uav[11].startX 312m
param *.uav[11].startY 1262m
param *.uav[11].startZ 540m
param *.uav[12].startX 2185m
param *.uav[12].startY 3026m
param *.uav[12].startZ 778m
param *.uav[13].startX 3537m
param *.uav[13].startY 965m
param *.uav[13].startZ 539m
param *.uav[14].startX 312m
param *.uav[14].startY 1262m
param *.uav[14].startZ 540m
param *.uav[15].startX 2185m
param *.uav[15].startY 3026m
param *.uav[15].startZ 778m
param *.uav[16].startX 3537m
param *.uav[16].startY 965m
param *.uav[16].startZ 539m
param *.uav[17].startX 312m
param *.uav[17].startY 1262m
param *.uav[17].startZ 540m
param *.uav[18].startX 2185m
param *.uav[18].startY 3026m
param *.uav[18].startZ 778m
param *.uav[19].startX 3537m
param *.uav[19].startY 965m
param *.uav[19].startZ 539m
param *.uav[20].startX 3537m
param *.uav[20].startY 965m
param *.uav[20].startZ 539m
param *.uav[21].startX 312m
param *.uav[21].startY 1262m
param *.uav[21].startZ 540m
param *.uav[22].startX 2185m
param *.uav[22].startY 3026m
param *.uav[22].startZ 778m
param *.uav[23].startX 3537m
param *.uav[23].startY 965m
param *.uav[23].startZ 539m
param *.uav[24].startX 312m
param *.uav[24].startY 1262m
param *.uav[24].startZ 540m
param *.uav[25].startX 2185m
param *.uav[25].startY 3026m
param *.uav[25].startZ 778m
param *.uav[26].startX 3537m
param *.uav[26].startY 965m
param *.uav[26].startZ 539m
param *.uav[27].startX 312m
param *.uav[27].startY 1262m
param *.uav[27].startZ 540m
param *.uav[28].startX 2185m
param *.uav[28].startY 3026m
param *.uav[28].startZ 778m
param *.uav[29].startX 3537m
param *.uav[29].startY 965m
param *.uav[29].startZ 539m
param *.uav[30].startX 3537m
param *.uav[30].startY 965m
param *.uav[30].startZ 539m
param *.uav[31].startX 312m
param *.uav[31].startY 1262m
param *.uav[31].startZ 540m
param *.uav[32].startX 2185m
param *.uav[32].startY 3026m
param *.uav[32].startZ 778m
param *.uav[33].startX 3537m
param *.uav[33].startY 965m
param *.uav[33].startZ 539m
param *.uav[34].startX 312m
param *.uav[34].startY 1262m
param *.uav[34].startZ 540m
param *.uav[35].startX 2185m
param *.uav[35].startY 3026m
param *.uav[35].startZ 778m
param *.uav[36].startX 3537m
param *.uav[36].startY 965m
param *.uav[36].startZ 539m
param *.uav[37].startX 312m
param *.uav[37].startY 1262m
param *.uav[37].startZ 540m
param *.uav[38].startX 2185m
param *.uav[38].startY 3026m
param *.uav[38].startZ 778m
param *.uav[39].startX 3537m
param *.uav[39].startY 965m
param *.uav[39].startZ 539m
param *.uav[40].startX 3537m
param *.uav[40].startY 965m
param *.uav[40].startZ 539m
param *.uav[41].startX 312m
param *.uav[41].startY 1262m
param *.uav[41].startZ 540m
param *.uav[42].startX 2185m
param *.uav[42].startY 3026m
param *.uav[42].startZ 778m
param *.uav[43].startX 3537m
param *.uav[43].startY 965m
param *.uav[43].startZ 539m
param *.uav[44].startX 312m
param *.uav[44].startY 1262m
param *.uav[44].startZ 540m
param *.uav[45].startX 2185m
param *.uav[45].startY 3026m
param *.uav[45].startZ 778m
param *.uav[46].startX 3537m
param *.uav[46].startY 965m
param *.uav[46].startZ 539m
param *.uav[47].startX 312m
param *.uav[47].startY 1262m
param *.uav[47].startZ 540m
param *.uav[48].startX 2185m
param *.uav[48].startY 3026m
param *.uav[48].startZ 778m
param *.uav[49].startX 3537m
param *.uav[49].startY 965m
param *.uav[49].startZ 539m
param *.uav[50].startX 3537m
param *.uav[50].startY 965m
param *.uav[50].startZ 539m
param *.uav[51].startX 312m
param *.uav[51].startY 1262m
param *.uav[51].startZ 540m
param *.uav[52].startX 2185m
param *.uav[52].startY 3026m
param *.uav[52].startZ 778m
param *.uav[53].startX 3537m
param *.uav[53].startY 965m
param *.uav[53].startZ 539m
param *.uav[54].startX 312m
param *.uav[54].startY 1262m
param *.uav[54].startZ 540m
param *.uav[55].startX 2185m
param *.uav[55].startY 3026m
param *.uav[55].startZ 778m
param *.uav[56].startX 3537m
param *.uav[56].startY 965m
param *.uav[56].startZ 539m
param *.uav[57].startX 312m
param *.uav[57].startY 1262m
param *.uav[57].startZ 540m
param *.uav[58].startX 2185m
param *.uav[58].startY 3026m
param *.uav[58].startZ 778m
param *.uav[59].startX 3537m
param *.uav[59].startY 965m
param *.uav[59].startZ 539m
param *.uav[60].startX 3537m
param *.uav[60].startY 965m
param *.uav[60].startZ 539m
param *.uav[61].startX 312m
param *.uav[61].startY 1262m
param *.uav[61].startZ 540m
param *.uav[62].startX 2185m
param *.uav[62].startY 3026m
param *.uav[62].startZ 778m
param *.uav[63].startX 3537m
param *.uav[63].startY 965m
param *.uav[63].startZ 539m
param *.uav[64].startX 312m
param *.uav[64].startY 1262m
param *.uav[64].startZ 540m
param *.uav[65].startX 2185m
param *.uav[65].startY 3026m
param *.uav[65].startZ 778m
param *.uav[66].startX 3537m
param *.uav[66].startY 965m
param *.uav[66].startZ 539m
param *.uav[67].startX 312m
param *.uav[67].startY 1262m
param *.uav[67].startZ 540m
param *.uav[68].startX 2185m
param *.uav[68].startY 3026m
param *.uav[68].startZ 778m
param *.uav[69].startX 3537m
param *.uav[69].startY 965m
param *.uav[69].startZ 539m
param *.uav[70].startX 3537m
param *.uav[70].startY 965m
param *.uav[70].startZ 539m
param *.uav[71].startX 312m
param *.uav[71].startY 1262m
param *.uav[71].startZ 540m
param *.uav[72].startX 2185m
param *.uav[72].startY 3026m
param *.uav[72].startZ 778m
param *.uav[73].startX 3537m
param *.uav[73].startY 965m
param *.uav[73].startZ 539m
param *.uav[74].startX 312m
param *.uav[74].startY 1262m
param *.uav[74].startZ 540m
param *.uav[75].startX 2185m
param *.uav[75].startY 3026m
param *.uav[75].startZ 778m
param *.uav[76].startX 3537m
param *.uav[76].startY 965m
param *.uav[76].startZ 539m
param *.uav[77].startX 312m
param *.uav[77].startY 1262m
param *.uav[77].startZ 540m
param *.uav[78].startX 2185m
param *.uav[78].startY 3026m
param *.uav[78].startZ 778m
param *.uav[79].startX 3537m
param *.uav[79].startY 965m
param *.uav[79].startZ 539m
param *.uav[80].startX 3537m
param *.uav[80].startY 965m
param *.uav[80].startZ 539m
param *.uav[81].startX 312m
param *.uav[81].startY 1262m
param *.uav[81].startZ 540m
param *.uav[82].startX 2185m
param *.uav[82].startY 3026m
param *.uav[82].startZ 778m
param *.uav[83].startX 3537m
param *.uav[83].startY 965m
param *.uav[83].startZ 539m
param *.uav[84].startX 312m
param *.uav[84].startY 1262m
param *.uav[84].startZ 540m
param *.uav[85].startX 2185m
param *.uav[85].startY 3026m
param *.uav[85].startZ 778m
param *.uav[86].startX 3537m
param *.uav[86].startY 965m
param *.uav[86].startZ 539m
param *.uav[87].startX 312m
param *.uav[87].startY 1262m
param *.uav[87].startZ 540m
param *.uav[88].startX 2185m
param *.uav[88].startY 3026m
param *.uav[88].startZ 778m
param *.uav[89].startX 3537m
param *.uav[89].startY 965m
param *.uav[89].startZ 539m
param *.uav[90].startX 3537m
param *.uav[90].startY 965m
param *.uav[90].startZ 539m
param *.uav[91].startX 312m
param *.uav[91].startY 1262m
param *.uav[91].startZ 540m
param *.uav[92].startX 2185m
param *.uav[92].startY 3026m
param *.uav[92].startZ 778m
param *.uav[93].startX 3537m
param *.uav[93].startY 965m
param *.uav[93].startZ 539m
param *.uav[94].startX 312m
param *.uav[94].startY 1262m
param *.uav[94].startZ 540m
param *.uav[95].startX 2185m
param *.uav[95].startY 3026m
param *.uav[95].startZ 778m
param *.uav[96].startX 3537m
param *.uav[96].startY 965m
param *.uav[96].startZ 539m
param *.uav[97].startX 312m
param *.uav[97].startY 1262m
param *.uav[97].startZ 540m
param *.uav[98].startX 2185m
param *.uav[98].startY 3026m
param *.uav[98].startZ 778m
param *.uav[99].startX 3537m
param *.uav[99].startY 965m
param *.uav[99].startZ 539m
param *.osgEarthScene.scene "\"boston.earth\""
param *.playgroundLatitude 42.3558
param *.playgroundLongitude -71.0677
param *.playgroundWidth 400m
param *.playgroundHeight 200m
param *.channelController.connectionColor "\"#0000FF40\""
param *.channelController.showConnections false
param *.uav[*].modelURL "\"quadrocopter.small.obj.15.scale.0,0,90.rot\""
param *.uav[*].labelColor "\"#FF7C00CC\""
param *.uav[*].label2Color "\"#FF7C00EE\""
param *.uav[*].batteryCapacity 5200mAh
param *.uav[*].batteryRemaining uav[index].batteryCapacity
param *.uav[*].predictionQuantile 0.95
param *.uav[*].replacementMethod 2
param *.uav[*].weightedSumWeight 0.5
param *.cs[*].modelURL "\"chargingstation_v1.osgt.2.scale.0,0,0.rot.0,0,-15e-1.trans\""
param *.cs[*].spotsWaiting 999
param *.cs[*].spotsCharging 999
param *.cs[*].chargeEffectivenessPercentage 100
param *.cs[*].nonLinearPhaseStartPercentage 85
param *.cs[*].chargeCurrent 6.0A
param *.cs[*].prioritizeFastCharge true
param *.missionControl.replacementSearchMethod 0
param *.*.timeStep 9s

scalar OsgEarthNet.uav[0] utilizationSecMission 35502.245012855
scalar OsgEarthNet.uav[0] utilizationSecMaintenance 24740.496239103
scalar OsgEarthNet.uav[0] utilizationSecCharge 195316.68731499
scalar OsgEarthNet.uav[0] utilizationSecIdle 3640.5704330564
scalar OsgEarthNet.uav[0] utilizationEnergyMission 175563.58426666
scalar OsgEarthNet.uav[0] utilizationEnergyMaintenance 117688.04650116
scalar OsgEarthNet.uav[0] utilizationEnergyCharge 290670.79101562
scalar OsgEarthNet.uav[0] utilizationEnergyOverdrawMission 0
scalar OsgEarthNet.uav[0] utilizationEnergyOverdrawMaintenance 0
scalar OsgEarthNet.uav[0] utilizationCountMissions 66
scalar OsgEarthNet.uav[0] utilizationCountManeuversMission 1259
scalar OsgEarthNet.uav[0] utilizationCountManeuversMaintenance 132
scalar OsgEarthNet.uav[0] utilizationCountChargeState 66
scalar OsgEarthNet.uav[0] utilizationCountOverdrawnAfterMission 0
scalar OsgEarthNet.uav[0] utilizationCountIdleState 3
scalar OsgEarthNet.uav[0] utilizationFail 0
scalar OsgEarthNet.uav[0] simulationTime 259200
scalar OsgEarthNet.uav[1] utilizationSecMission 42188.553375068
scalar OsgEarthNet.uav[1] utilizationSecMaintenance 18106.002536241
scalar OsgEarthNet.uav[1] utilizationSecCharge 195820
scalar OsgEarthNet.uav[1] utilizationSecIdle 3085.443088691
scalar OsgEarthNet.uav[1] utilizationEnergyMission 203344.43069077
scalar OsgEarthNet.uav[1] utilizationEnergyMaintenance 82619.802081657
scalar OsgEarthNet.uav[1] utilizationEnergyCharge 279480.27001953
scalar OsgEarthNet.uav[1] utilizationEnergyOverdrawMission 0
scalar OsgEarthNet.uav[1] utilizationEnergyOverdrawMaintenance 0
scalar OsgEarthNet.uav[1] utilizationCountMissions 62
scalar OsgEarthNet.uav[1] utilizationCountManeuversMission 1117
scalar OsgEarthNet.uav[1] utilizationCountManeuversMaintenance 124
scalar OsgEarthNet.uav[1] utilizationCountChargeState 61
scalar OsgEarthNet.uav[1] utilizationCountOverdrawnAfterMission 0
scalar OsgEarthNet.uav[1] utilizationCountIdleState 6
scalar OsgEarthNet.uav[1] utilizationFail 0
scalar OsgEarthNet.uav[1] simulationTime 259200
scalar OsgEarthNet.uav[2] utilizationSecMission 42067.365681256
scalar OsgEarthNet.uav[2] utilizationSecMaintenance 18750.633318744
scalar OsgEarthNet.uav[2] utilizationSecCharge 198000
scalar OsgEarthNet.uav[2] utilizationSecIdle 382
scalar OsgEarthNet.uav[2] utilizationEnergyMission 202950.76672099
scalar OsgEarthNet.uav[2] utilizationEnergyMaintenance 86419.446811676
scalar OsgEarthNet.uav[2] utilizationEnergyCharge 288335.59277344
scalar OsgEarthNet.uav[2] utilizationEnergyOverdrawMission 0
scalar OsgEarthNet.uav[2] utilizationEnergyOverdrawMaintenance 0
scalar OsgEarthNet.uav[2] utilizationCountMissions 63
scalar OsgEarthNet.uav[2] utilizationCountManeuversMission 1219
scalar OsgEarthNet.uav[2] utilizationCountManeuversMaintenance 126
scalar OsgEarthNet.uav[2] utilizationCountChargeState 63
scalar OsgEarthNet.uav[2] utilizationCountOverdrawnAfterMission 0
scalar OsgEarthNet.uav[2] utilizationCountIdleState 7
scalar OsgEarthNet.uav[2] utilizationFail 0
scalar OsgEarthNet.uav[2] simulationTime 259200
scalar OsgEarthNet.uav[3] utilizationSecMission 37235.003661927
scalar OsgEarthNet.uav[3] utilizationSecMaintenance 23712.993338073
scalar OsgEarthNet.uav[3] utilizationSecCharge 196980
scalar OsgEarthNet.uav[3] utilizationSecIdle 1272.002
scalar OsgEarthNet.uav[3] utilizationEnergyMission 182164.64786911
scalar OsgEarthNet.uav[3] utilizationEnergyMaintenance 111858.723554
scalar OsgEarthNet.uav[3] utilizationEnergyCharge 289421.19482422
scalar OsgEarthNet.uav[3] utilizationEnergyOverdrawMission 0
scalar OsgEarthNet.uav[3] utilizationEnergyOverdrawMaintenance 0
scalar OsgEarthNet.uav[3] utilizationCountMissions 66
scalar OsgEarthNet.uav[3] utilizationCountManeuversMission 1237
scalar OsgEarthNet.uav[3] utilizationCountManeuversMaintenance 132
scalar OsgEarthNet.uav[3] utilizationCountChargeState 65
scalar OsgEarthNet.uav[3] utilizationCountOverdrawnAfterMission 0
scalar OsgEarthNet.uav[3] utilizationCountIdleState 5
scalar OsgEarthNet.uav[3] utilizationFail 0
scalar OsgEarthNet.uav[3] simulationTime 259200
scalar OsgEarthNet.uav[4] utilizationSecMission 33167.80335053
scalar OsgEarthNet.uav[4] utilizationSecMaintenance 23154.195798946
scalar OsgEarthNet.uav[4] utilizationSecCharge 200000
scalar OsgEarthNet.uav[4] utilizationSecIdle 2877.9998505245
scalar OsgEarthNet.uav[4] utilizationEnergyMission 161977.00125857
scalar OsgEarthNet.uav[4] utilizationEnergyMaintenance 109714.51871109
scalar OsgEarthNet.uav[4] utilizationEnergyCharge 269733.32495117
scalar OsgEarthNet.uav[4] utilizationEnergyOverdrawMission 0
scalar OsgEarthNet.uav[4] utilizationEnergyOverdrawMaintenance 0
scalar OsgEarthNet.uav[4] utilizationCountMissions 66
scalar OsgEarthNet.uav[4] utilizationCountManeuversMission 1196
scalar OsgEarthNet.uav[4] utilizationCountManeuversMaintenance 133
scalar OsgEarthNet.uav[4] utilizationCountChargeState 66
scalar OsgEarthNet.uav[4] utilizationCountOverdrawnAfterMission 0
scalar OsgEarthNet.uav[4] utilizationCountIdleState 11
scalar OsgEarthNet.uav[4] utilizationFail 0
scalar OsgEarthNet.uav[4] simulationTime 259200
scalar OsgEarthNet.uav[5] utilizationSecMission 42514.706541328
scalar OsgEarthNet.uav[5] utilizationSecMaintenance 17934.718767935
scalar OsgEarthNet.uav[5] utilizationSecCharge 197981.35407682
scalar OsgEarthNet.uav[5] utilizationSecIdle 769.21961391566
scalar OsgEarthNet.uav[5] utilizationEnergyMission 206125.76303101
scalar OsgEarthNet.uav[5] utilizationEnergyMaintenance 82426.007572174
scalar OsgEarthNet.uav[5] utilizationEnergyCharge 286818.77807617
scalar OsgEarthNet.uav[5] utilizationEnergyOverdrawMission 0
scalar OsgEarthNet.uav[5] utilizationEnergyOverdrawMaintenance 0
scalar OsgEarthNet.uav[5] utilizationCountMissions 63
scalar OsgEarthNet.uav[5] utilizationCountManeuversMission 1410
scalar OsgEarthNet.uav[5] utilizationCountManeuversMaintenance 126
scalar OsgEarthNet.uav[5] utilizationCountChargeState 63
scalar OsgEarthNet.uav[5] utilizationCountOverdrawnAfterMission 0
scalar OsgEarthNet.uav[5] utilizationCountIdleState 3
scalar OsgEarthNet.uav[5] utilizationFail 0
scalar OsgEarthNet.uav[5] simulationTime 259200
scalar OsgEarthNet.uav[6] utilizationSecMission 37447.246233497
scalar OsgEarthNet.uav[6] utilizationSecMaintenance 22259.080316339
scalar OsgEarthNet.uav[6] utilizationSecCharge 195841.66645016
scalar OsgEarthNet.uav[6] utilizationSecIdle 3652.006
scalar OsgEarthNet.uav[6] utilizationEnergyMission 184369.02809143
scalar OsgEarthNet.uav[6] utilizationEnergyMaintenance 105965.42826462
scalar OsgEarthNet.uav[6] utilizationEnergyCharge 284959.77294922
scalar OsgEarthNet.uav[6] utilizationEnergyOverdrawMission 0
scalar OsgEarthNet.uav[6] utilizationEnergyOverdrawMaintenance 0
scalar OsgEarthNet.uav[6] utilizationCountMissions 65
scalar OsgEarthNet.uav[6] utilizationCountManeuversMission 1148
scalar OsgEarthNet.uav[6] utilizationCountManeuversMaintenance 130
scalar OsgEarthNet.uav[6] utilizationCountChargeState 65
scalar OsgEarthNet.uav[6] utilizationCountOverdrawnAfterMission 0
scalar OsgEarthNet.uav[6] utilizationCountIdleState 10
scalar OsgEarthNet.uav[6] utilizationFail 0
scalar OsgEarthNet.uav[6] simulationTime 259200
scalar OsgEarthNet.uav[7] utilizationSecMission 34334.89591567
scalar OsgEarthNet.uav[7] utilizationSecMaintenance 22505.682044357
scalar OsgEarthNet.uav[7] utilizationSecCharge 199047.41803997
scalar OsgEarthNet.uav[7] utilizationSecIdle 3312.003
scalar OsgEarthNet.uav[7] utilizationEnergyMission 168215.09860229
scalar OsgEarthNet.uav[7] utilizationEnergyMaintenance 106514.79907608
scalar OsgEarthNet.uav[7] utilizationEnergyCharge 273708.36181641
scalar OsgEarthNet.uav[7] utilizationEnergyOverdrawMission 0
scalar OsgEarthNet.uav[7] utilizationEnergyOverdrawMaintenance 0
scalar OsgEarthNet.uav[7] utilizationCountMissions 65
scalar OsgEarthNet.uav[7] utilizationCountManeuversMission 1199
scalar OsgEarthNet.uav[7] utilizationCountManeuversMaintenance 130
scalar OsgEarthNet.uav[7] utilizationCountChargeState 65
scalar OsgEarthNet.uav[7] utilizationCountOverdrawnAfterMission 0
scalar OsgEarthNet.uav[7] utilizationCountIdleState 12
scalar OsgEarthNet.uav[7] utilizationFail 0
scalar OsgEarthNet.uav[7] simulationTime 259200
scalar OsgEarthNet.uav[8] utilizationSecMission 42678.452487672
scalar OsgEarthNet.uav[8] utilizationSecMaintenance 17475.764378897
scalar OsgEarthNet.uav[8] utilizationSecCharge 196524.38364905
scalar OsgEarthNet.uav[8] utilizationSecIdle 2521.3984843856
scalar OsgEarthNet.uav[8] utilizationEnergyMission 203966.66822815
scalar OsgEarthNet.uav[8] utilizationEnergyMaintenance 81187.232578278
scalar OsgEarthNet.uav[8] utilizationEnergyCharge 283761.01391602
scalar OsgEarthNet.uav[8] utilizationEnergyOverdrawMission 0
scalar OsgEarthNet.uav[8] utilizationEnergyOverdrawMaintenance 0
scalar OsgEarthNet.uav[8] utilizationCountMissions 62
scalar OsgEarthNet.uav[8] utilizationCountManeuversMission 1187
scalar OsgEarthNet.uav[8] utilizationCountManeuversMaintenance 124
scalar OsgEarthNet.uav[8] utilizationCountChargeState 62
scalar OsgEarthNet.uav[8] utilizationCountOverdrawnAfterMission 0
scalar OsgEarthNet.uav[8] utilizationCountIdleState 8
scalar OsgEarthNet.uav[8] utilizationFail 0
scalar OsgEarthNet.uav[8] simulationTime 259200
scalar OsgEarthNet.uav[9] utilizationSecMission 41963.174703224
scalar OsgEarthNet.uav[9] utilizationSecMaintenance 17557.377467137
scalar OsgEarthNet.uav[9] utilizationSecCharge 196427.30208969
scalar OsgEarthNet.uav[9] utilizationSecIdle 3252.1447399488
scalar OsgEarthNet.uav[9] utilizationEnergyMission 203758.4763298
scalar OsgEarthNet.uav[9] utilizationEnergyMaintenance 81904.027679443
scalar OsgEarthNet.uav[9] utilizationEnergyCharge 283490.44213867
scalar OsgEarthNet.uav[9] utilizationEnergyOverdrawMission 0
scalar OsgEarthNet.uav[9] utilizationEnergyOverdrawMaintenance 0
scalar OsgEarthNet.uav[9] utilizationCountMissions 62
scalar OsgEarthNet.uav[9] utilizationCountManeuversMission 1275
scalar OsgEarthNet.uav[9] utilizationCountManeuversMaintenance 124
scalar OsgEarthNet.uav[9] utilizationCountChargeState 62
scalar OsgEarthNet.uav[9] utilizationCountOverdrawnAfterMission 0
scalar OsgEarthNet.uav[9] utilizationCountIdleState 6
scalar OsgEarthNet.uav[9] utilizationFail 0
scalar OsgEarthNet.uav[9] simulationTime 259200
scalar OsgEarthNet.uav[10] utilizationSecMission 36965.261700677
scalar OsgEarthNet.uav[10] utilizationSecMaintenance 24082.732299323
scalar OsgEarthNet.uav[10] utilizationSecCharge 195530
scalar OsgEarthNet.uav[10] utilizationSecIdle 2622.005
scalar OsgEarthNet.uav[10] utilizationEnergyMission 179013.23666
scalar OsgEarthNet.uav[10] utilizationEnergyMaintenance 114616.579969
scalar OsgEarthNet.uav[10] utilizationEnergyCharge 288258.0949707
scalar OsgEarthNet.uav[10] utilizationEnergyOverdrawMission 0
scalar OsgEarthNet.uav[10] utilizationEnergyOverdrawMaintenance 0
scalar OsgEarthNet.uav[10] utilizationCountMissions 66
scalar OsgEarthNet.uav[10] utilizationCountManeuversMission 1219
scalar OsgEarthNet.uav[10] utilizationCountManeuversMaintenance 132
scalar OsgEarthNet.uav[10] utilizationCountChargeState 65
scalar OsgEarthNet.uav[10] utilizationCountOverdrawnAfterMission 0
scalar OsgEarthNet.uav[10] utilizationCountIdleState 4
scalar OsgEarthNet.uav[10] utilizationFail 0
scalar OsgEarthNet.uav[10] simulationTime 259200
scalar OsgEarthNet.uav[11] utilizationSecMission 34550.099966329
scalar OsgEarthNet.uav[11] utilizationSecMaintenance 22395.475827483
scalar OsgEarthNet.uav[11] utilizationSecCharge 198764.62298758
scalar OsgEarthNet.uav[11] utilizationSecIdle 3489.8002186065
scalar OsgEarthNet.uav[11] utilizationEnergyMission 171511.38301086
scalar OsgEarthNet.uav[11] utilizationEnergyMaintenance 106012.19521332
scalar OsgEarthNet.uav[11] utilizationEnergyCharge 273699.97338867
scalar OsgEarthNet.uav[11] utilizationEnergyOverdrawMission 0
scalar OsgEarthNet.uav[11] utilizationEnergyOverdrawMaintenance 0
scalar OsgEarthNet.uav[11] utilizationCountMissions 65
scalar OsgEarthNet.uav[11] utilizationCountManeuversMission 1167
scalar OsgEarthNet.uav[11] utilizationCountManeuversMaintenance 130
scalar OsgEarthNet.uav[11] utilizationCountChargeState 65
scalar OsgEarthNet.uav[11] utilizationCountOverdrawnAfterMission 0
scalar OsgEarthNet.uav[11] utilizationCountIdleState 12
scalar OsgEarthNet.uav[11] utilizationFail 0
scalar OsgEarthNet.uav[11] simulationTime 259200
scalar OsgEarthNet.uav[12] utilizationSecMission 40809.828667423
scalar OsgEarthNet.uav[12] utilizationSecMaintenance 19487.545936221
scalar OsgEarthNet.uav[12] utilizationSecCharge 197860.62339636
scalar OsgEarthNet.uav[12] utilizationSecIdle 1042.001
scalar OsgEarthNet.uav[12] utilizationEnergyMission 198056.35186768
scalar OsgEarthNet.uav[12] utilizationEnergyMaintenance 90548.755695343
scalar OsgEarthNet.uav[12] utilizationEnergyCharge 287559.17333984
scalar OsgEarthNet.uav[12] utilizationEnergyOverdrawMission 0
scalar OsgEarthNet.uav[12] utilizationEnergyOverdrawMaintenance 0
scalar OsgEarthNet.uav[12] utilizationCountMissions 63
scalar OsgEarthNet.uav[12] utilizationCountManeuversMission 1361
scalar OsgEarthNet.uav[12] utilizationCountManeuversMaintenance 126
scalar OsgEarthNet.uav[12] utilizationCountChargeState 63
scalar OsgEarthNet.uav[12] utilizationCountOverdrawnAfterMission 0
scalar OsgEarthNet.uav[12] utilizationCountIdleState 4
scalar OsgEarthNet.uav[12] utilizationFail 0
scalar OsgEarthNet.uav[12] simulationTime 259200
scalar OsgEarthNet.uav[13] utilizationSecMission 41021.999701912
scalar OsgEarthNet.uav[13] utilizationSecMaintenance 18994.477650485
scalar OsgEarthNet.uav[13] utilizationSecCharge 196224.03891667
scalar OsgEarthNet.uav[13] utilizationSecIdle 2959.4827309343
scalar OsgEarthNet.uav[13] utilizationEnergyMission 200236.40379715
scalar OsgEarthNet.uav[13] utilizationEnergyMaintenance 87822.190002441
scalar OsgEarthNet.uav[13] utilizationEnergyCharge 282913.8338623
scalar OsgEarthNet.uav[13] utilizationEnergyOverdrawMission 0
scalar OsgEarthNet.uav[13] utilizationEnergyOverdrawMaintenance 0
scalar OsgEarthNet.uav[13] utilizationCountMissions 63
scalar OsgEarthNet.uav[13] utilizationCountManeuversMission 1336
scalar OsgEarthNet.uav[13] utilizationCountManeuversMaintenance 126
scalar OsgEarthNet.uav[13] utilizationCountChargeState 63
scalar OsgEarthNet.uav[13] utilizationCountOverdrawnAfterMission 0
scalar OsgEarthNet.uav[13] utilizationCountIdleState 4
scalar OsgEarthNet.uav[13] utilizationFail 0
scalar OsgEarthNet.uav[13] simulationTime 259200
scalar OsgEarthNet.uav[14] utilizationSecMission 35155.391186179
scalar OsgEarthNet.uav[14] utilizationSecMaintenance 22798.45595831
scalar OsgEarthNet.uav[14] utilizationSecCharge 198674.14785551
scalar OsgEarthNet.uav[14] utilizationSecIdle 2572.004
scalar OsgEarthNet.uav[14] utilizationEnergyMission 172961.6986618
scalar OsgEarthNet.uav[14] utilizationEnergyMaintenance 107611.878685
scalar OsgEarthNet.uav[14] utilizationEnergyCharge 276174.12365723
scalar OsgEarthNet.uav[14] utilizationEnergyOverdrawMission 0
scalar OsgEarthNet.uav[14] utilizationEnergyOverdrawMaintenance 0
scalar OsgEarthNet.uav[14] utilizationCountMissions 64
scalar OsgEarthNet.uav[14] utilizationCountManeuversMission 1315
scalar OsgEarthNet.uav[14] utilizationCountManeuversMaintenance 128
scalar OsgEarthNet.uav[14] utilizationCountChargeState 64
scalar OsgEarthNet.uav[14] utilizationCountOverdrawnAfterMission 0
scalar OsgEarthNet.uav[14] utilizationCountIdleState 4
scalar OsgEarthNet.uav[14] utilizationFail 0
scalar OsgEarthNet.uav[14] simulationTime 259200
scalar OsgEarthNet.uav[15] utilizationSecMission 41258.581831914
scalar OsgEarthNet.uav[15] utilizationSecMaintenance 18919.08042771
scalar OsgEarthNet.uav[15] utilizationSecCharge 196412.70565971
scalar OsgEarthNet.uav[15] utilizationSecIdle 2609.6310806652
scalar OsgEarthNet.uav[15] utilizationEnergyMission 200798.81797409
scalar OsgEarthNet.uav[15] utilizationEnergyMaintenance 87659.367511749
scalar OsgEarthNet.uav[15] utilizationEnergyCharge 287378.80029297
scalar OsgEarthNet.uav[15] utilizationEnergyOverdrawMission 0
scalar OsgEarthNet.uav[15] utilizationEnergyOverdrawMaintenance 0
scalar OsgEarthNet.uav[15] utilizationCountMissions 63
scalar OsgEarthNet.uav[15] utilizationCountManeuversMission 1366
scalar OsgEarthNet.uav[15] utilizationCountManeuversMaintenance 126
scalar OsgEarthNet.uav[15] utilizationCountChargeState 63
scalar OsgEarthNet.uav[15] utilizationCountOverdrawnAfterMission 0
scalar OsgEarthNet.uav[15] utilizationCountIdleState 6
scalar OsgEarthNet.uav[15] utilizationFail 0
scalar OsgEarthNet.uav[15] simulationTime 259200
scalar OsgEarthNet.uav[16] utilizationSecMission 43204.050057416
scalar OsgEarthNet.uav[16] utilizationSecMaintenance 16705.458560117
scalar OsgEarthNet.uav[16] utilizationSecCharge 197664.46877127
scalar OsgEarthNet.uav[16] utilizationSecIdle 1626.0216111988
scalar OsgEarthNet.uav[16] utilizationEnergyMission 207801.85293961
scalar OsgEarthNet.uav[16] utilizationEnergyMaintenance 78628.026706696
scalar OsgEarthNet.uav[16] utilizationEnergyCharge 282427.03234863
scalar OsgEarthNet.uav[16] utilizationEnergyOverdrawMission 0
scalar OsgEarthNet.uav[16] utilizationEnergyOverdrawMaintenance 0
scalar OsgEarthNet.uav[16] utilizationCountMissions 62
scalar OsgEarthNet.uav[16] utilizationCountManeuversMission 1259
scalar OsgEarthNet.uav[16] utilizationCountManeuversMaintenance 124
scalar OsgEarthNet.uav[16] utilizationCountChargeState 62
scalar OsgEarthNet.uav[16] utilizationCountOverdrawnAfterMission 0
scalar OsgEarthNet.uav[16] utilizationCountIdleState 4
scalar OsgEarthNet.uav[16] utilizationFail 0
scalar OsgEarthNet.uav[16] simulationTime 259200
scalar OsgEarthNet.uav[17] utilizationSecMission 31070.348972783
scalar OsgEarthNet.uav[17] utilizationSecMaintenance 24267.648027217
scalar OsgEarthNet.uav[17] utilizationSecCharge 201600
scalar OsgEarthNet.uav[17] utilizationSecIdle 2262.002
scalar OsgEarthNet.uav[17] utilizationEnergyMission 150653.90309143
scalar OsgEarthNet.uav[17] utilizationEnergyMaintenance 115808.93179953
scalar OsgEarthNet.uav[17] utilizationEnergyCharge 259908.05834961
scalar OsgEarthNet.uav[17] utilizationEnergyOverdrawMission 0
scalar OsgEarthNet.uav[17] utilizationEnergyOverdrawMaintenance 0
scalar OsgEarthNet.uav[17] utilizationCountMissions 75
scalar OsgEarthNet.uav[17] utilizationCountManeuversMission 975
scalar OsgEarthNet.uav[17] utilizationCountManeuversMaintenance 150
scalar OsgEarthNet.uav[17] utilizationCountChargeState 74
scalar OsgEarthNet.uav[17] utilizationCountOverdrawnAfterMission 0
scalar OsgEarthNet.uav[17] utilizationCountIdleState 8
scalar OsgEarthNet.uav[17] utilizationFail 0
scalar OsgEarthNet.uav[17] simulationTime 259200
scalar OsgEarthNet.uav[18] utilizationSecMission 42911.980702673
scalar OsgEarthNet.uav[18] utilizationSecMaintenance 17518.20719471
scalar OsgEarthNet.uav[18] utilizationSecCharge 197957.81010262
scalar OsgEarthNet.uav[18] utilizationSecIdle 812.001
scalar OsgEarthNet.uav[18] utilizationEnergyMission 204130.11060333
scalar OsgEarthNet.uav[18] utilizationEnergyMaintenance 81218.093818665
scalar OsgEarthNet.uav[18] utilizationEnergyCharge 286151.10302734
scalar OsgEarthNet.uav[18] utilizationEnergyOverdrawMission 0
scalar OsgEarthNet.uav[18] utilizationEnergyOverdrawMaintenance 0
scalar OsgEarthNet.uav[18] utilizationCountMissions 62
scalar OsgEarthNet.uav[18] utilizationCountManeuversMission 1173
scalar OsgEarthNet.uav[18] utilizationCountManeuversMaintenance 124
scalar OsgEarthNet.uav[18] utilizationCountChargeState 62
scalar OsgEarthNet.uav[18] utilizationCountOverdrawnAfterMission 0
scalar OsgEarthNet.uav[18] utilizationCountIdleState 5
scalar OsgEarthNet.uav[18] utilizationFail 0
scalar OsgEarthNet.uav[18] simulationTime 259200
scalar OsgEarthNet.uav[19] utilizationSecMission 36230.473758282
scalar OsgEarthNet.uav[19] utilizationSecMaintenance 24130.500937816
scalar OsgEarthNet.uav[19] utilizationSecCharge 197947.0233039
scalar OsgEarthNet.uav[19] utilizationSecIdle 892.001
scalar OsgEarthNet.uav[19] utilizationEnergyMission 175818.74852371
scalar OsgEarthNet.uav[19] utilizationEnergyMaintenance 115240.03038025
scalar OsgEarthNet.uav[19] utilizationEnergyCharge 290036.44580078
scalar OsgEarthNet.uav[19] utilizationEnergyOverdrawMission 0
scalar OsgEarthNet.uav[19] utilizationEnergyOverdrawMaintenance 0
scalar OsgEarthNet.uav[19] utilizationCountMissions 66
scalar OsgEarthNet.uav[19] utilizationCountManeuversMission 1213
scalar OsgEarthNet.uav[19] utilizationCountManeuversMaintenance 132
scalar OsgEarthNet.uav[19] utilizationCountChargeState 66
scalar OsgEarthNet.uav[19] utilizationCountOverdrawnAfterMission 0
scalar OsgEarthNet.uav[19] utilizationCountIdleState 6
scalar OsgEarthNet.uav[19] utilizationFail 0
scalar OsgEarthNet.uav[19] simulationTime 259200
scalar OsgEarthNet.uav[20] utilizationSecMission 41908.72701973
scalar OsgEarthNet.uav[20] utilizationSecMaintenance 18105.231484941
scalar OsgEarthNet.uav[20] utilizationSecCharge 198444.04049533
scalar OsgEarthNet.uav[20] utilizationSecIdle 742
scalar OsgEarthNet.uav[20] utilizationEnergyMission 204009.80648422
scalar OsgEarthNet.uav[20] utilizationEnergyMaintenance 83210.374847412
scalar OsgEarthNet.uav[20] utilizationEnergyCharge 288145.46289062
scalar OsgEarthNet.uav[20] utilizationEnergyOverdrawMission 0
scalar OsgEarthNet.uav[20] utilizationEnergyOverdrawMaintenance 0
scalar OsgEarthNet.uav[20] utilizationCountMissions 63
scalar OsgEarthNet.uav[20] utilizationCountManeuversMission 1323
scalar OsgEarthNet.uav[20] utilizationCountManeuversMaintenance 125
scalar OsgEarthNet.uav[20] utilizationCountChargeState 63
scalar OsgEarthNet.uav[20] utilizationCountOverdrawnAfterMission 0
scalar OsgEarthNet.uav[20] utilizationCountIdleState 9
scalar OsgEarthNet.uav[20] utilizationFail 0
scalar OsgEarthNet.uav[20] simulationTime 259200
scalar OsgEarthNet.uav[21] utilizationSecMission 32952.591946716
scalar OsgEarthNet.uav[21] utilizationSecMaintenance 23127.95980784
scalar OsgEarthNet.uav[21] utilizationSecCharge 200191.09364257
scalar OsgEarthNet.uav[21] utilizationSecIdle 2928.3536028792
scalar OsgEarthNet.uav[21] utilizationEnergyMission 159922.7595787
scalar OsgEarthNet.uav[21] utilizationEnergyMaintenance 110688.78968048
scalar OsgEarthNet.uav[21] utilizationEnergyCharge 267136.67626953
scalar OsgEarthNet.uav[21] utilizationEnergyOverdrawMission 0
scalar OsgEarthNet.uav[21] utilizationEnergyOverdrawMaintenance 0
scalar OsgEarthNet.uav[21] utilizationCountMissions 69
scalar OsgEarthNet.uav[21] utilizationCountManeuversMission 1086
scalar OsgEarthNet.uav[21] utilizationCountManeuversMaintenance 138
scalar OsgEarthNet.uav[21] utilizationCountChargeState 69
scalar OsgEarthNet.uav[21] utilizationCountOverdrawnAfterMission 0
scalar OsgEarthNet.uav[21] utilizationCountIdleState 9
scalar OsgEarthNet.uav[21] utilizationFail 0
scalar OsgEarthNet.uav[21] simulationTime 259200
scalar OsgEarthNet.uav[22] utilizationSecMission 43227.4665573
scalar OsgEarthNet.uav[22] utilizationSecMaintenance 17445.418566679
scalar OsgEarthNet.uav[22] utilizationSecCharge 196525.11087602
scalar OsgEarthNet.uav[22] utilizationSecIdle 2002.003
scalar OsgEarthNet.uav[22] utilizationEnergyMission 207445.68488312
scalar OsgEarthNet.uav[22] utilizationEnergyMaintenance 80687.208305359
scalar OsgEarthNet.uav[22] utilizationEnergyCharge 281641.90576172
scalar OsgEarthNet.uav[22] utilizationEnergyOverdrawMission 0
scalar OsgEarthNet.uav[22] utilizationEnergyOverdrawMaintenance 0
scalar OsgEarthNet.uav[22] utilizationCountMissions 62
scalar OsgEarthNet.uav[22] utilizationCountManeuversMission 1112
scalar OsgEarthNet.uav[22] utilizationCountManeuversMaintenance 124
scalar OsgEarthNet.uav[22] utilizationCountChargeState 62
scalar OsgEarthNet.uav[22] utilizationCountOverdrawnAfterMission 0
scalar OsgEarthNet.uav[22] utilizationCountIdleState 8
scalar OsgEarthNet.uav[22] utilizationFail 0
scalar OsgEarthNet.uav[22] simulationTime 259200
scalar OsgEarthNet.uav[23] utilizationSecMission 36504.636548097
scalar OsgEarthNet.uav[23] utilizationSecMaintenance 23726.225866297
scalar OsgEarthNet.uav[23] utilizationSecCharge 194877.12858561
scalar OsgEarthNet.uav[23] utilizationSecIdle 4092.008
scalar OsgEarthNet.uav[23] utilizationEnergyMission 178015.56609344
scalar OsgEarthNet.uav[23] utilizationEnergyMaintenance 112902.92438889
scalar OsgEarthNet.uav[23] utilizationEnergyCharge 284179.83886719
scalar OsgEarthNet.uav[23] utilizationEnergyOverdrawMission 0
scalar OsgEarthNet.uav[23] utilizationEnergyOverdrawMaintenance 0
scalar OsgEarthNet.uav[23] utilizationCountMissions 65
scalar OsgEarthNet.uav[23] utilizationCountManeuversMission 1222
scalar OsgEarthNet.uav[23] utilizationCountManeuversMaintenance 130
scalar OsgEarthNet.uav[23] utilizationCountChargeState 65
scalar OsgEarthNet.uav[23] utilizationCountOverdrawnAfterMission 0
scalar OsgEarthNet.uav[23] utilizationCountIdleState 5
scalar OsgEarthNet.uav[23] utilizationFail 0
scalar OsgEarthNet.uav[23] simulationTime 259200
scalar OsgEarthNet.uav[24] utilizationSecMission 41785.172886729
scalar OsgEarthNet.uav[24] utilizationSecMaintenance 17919.079665174
scalar OsgEarthNet.uav[24] utilizationSecCharge 196465.12940875
scalar OsgEarthNet.uav[24] utilizationSecIdle 3030.6170393477
scalar OsgEarthNet.uav[24] utilizationEnergyMission 200640.01220322
scalar OsgEarthNet.uav[24] utilizationEnergyMaintenance 82591.654457092
scalar OsgEarthNet.uav[24] utilizationEnergyCharge 283523.22851562
scalar OsgEarthNet.uav[24] utilizationEnergyOverdrawMission 0
scalar OsgEarthNet.uav[24] utilizationEnergyOverdrawMaintenance 0
scalar OsgEarthNet.uav[24] utilizationCountMissions 62
scalar OsgEarthNet.uav[24] utilizationCountManeuversMission 1251
scalar OsgEarthNet.uav[24] utilizationCountManeuversMaintenance 124
scalar OsgEarthNet.uav[24] utilizationCountChargeState 62
scalar OsgEarthNet.uav[24] utilizationCountOverdrawnAfterMission 0
scalar OsgEarthNet.uav[24] utilizationCountIdleState 11
scalar OsgEarthNet.uav[24] utilizationFail 0
scalar OsgEarthNet.uav[24] simulationTime 259200
scalar OsgEarthNet.uav[25] utilizationSecMission 43165.871242825
scalar OsgEarthNet.uav[25] utilizationSecMaintenance 18132.127757175
scalar OsgEarthNet.uav[25] utilizationSecCharge 197650
scalar OsgEarthNet.uav[25] utilizationSecIdle 252
scalar OsgEarthNet.uav[25] utilizationEnergyMission 205024.80239487
scalar OsgEarthNet.uav[25] utilizationEnergyMaintenance 84256.860863575
scalar OsgEarthNet.uav[25] utilizationEnergyCharge 284759.02929688
scalar OsgEarthNet.uav[25] utilizationEnergyOverdrawMission 0
scalar OsgEarthNet.uav[25] utilizationEnergyOverdrawMaintenance 0
scalar OsgEarthNet.uav[25] utilizationCountMissions 63
scalar OsgEarthNet.uav[25] utilizationCountManeuversMission 1158
scalar OsgEarthNet.uav[25] utilizationCountManeuversMaintenance 126
scalar OsgEarthNet.uav[25] utilizationCountChargeState 62
scalar OsgEarthNet.uav[25] utilizationCountOverdrawnAfterMission 0
scalar OsgEarthNet.uav[25] utilizationCountIdleState 5
scalar OsgEarthNet.uav[25] utilizationFail 0
scalar OsgEarthNet.uav[25] simulationTime 259200
scalar OsgEarthNet.uav[26] utilizationSecMission 35623.386242936
scalar OsgEarthNet.uav[26] utilizationSecMaintenance 24430.046660666
scalar OsgEarthNet.uav[26] utilizationSecCharge 197324.5630964
scalar OsgEarthNet.uav[26] utilizationSecIdle 1822.003
scalar OsgEarthNet.uav[26] utilizationEnergyMission 173151.58377457
scalar OsgEarthNet.uav[26] utilizationEnergyMaintenance 115639.18252945
scalar OsgEarthNet.uav[26] utilizationEnergyCharge 290916.6953125
scalar OsgEarthNet.uav[26] utilizationEnergyOverdrawMission 0
scalar OsgEarthNet.uav[26] utilizationEnergyOverdrawMaintenance 0
scalar OsgEarthNet.uav[26] utilizationCountMissions 66
scalar OsgEarthNet.uav[26] utilizationCountManeuversMission 1230
scalar OsgEarthNet.uav[26] utilizationCountManeuversMaintenance 132
scalar OsgEarthNet.uav[26] utilizationCountChargeState 66
scalar OsgEarthNet.uav[26] utilizationCountOverdrawnAfterMission 0
scalar OsgEarthNet.uav[26] utilizationCountIdleState 7
scalar OsgEarthNet.uav[26] utilizationFail 0
scalar OsgEarthNet.uav[26] simulationTime 259200
scalar OsgEarthNet.uav[27] utilizationSecMission 34152.188736551
scalar OsgEarthNet.uav[27] utilizationSecMaintenance 22665.810263449
scalar OsgEarthNet.uav[27] utilizationSecCharge 200040
scalar OsgEarthNet.uav[27] utilizationSecIdle 2342
scalar OsgEarthNet.uav[27] utilizationEnergyMission 168570.83594384
scalar OsgEarthNet.uav[27] utilizationEnergyMaintenance 107040.89373016
scalar OsgEarthNet.uav[27] utilizationEnergyCharge 272989.09008789
scalar OsgEarthNet.uav[27] utilizationEnergyOverdrawMission 0
scalar OsgEarthNet.uav[27] utilizationEnergyOverdrawMaintenance 0
scalar OsgEarthNet.uav[27] utilizationCountMissions 66
scalar OsgEarthNet.uav[27] utilizationCountManeuversMission 1155
scalar OsgEarthNet.uav[27] utilizationCountManeuversMaintenance 132
scalar OsgEarthNet.uav[27] utilizationCountChargeState 66
scalar OsgEarthNet.uav[27] utilizationCountOverdrawnAfterMission 0
scalar OsgEarthNet.uav[27] utilizationCountIdleState 14
scalar OsgEarthNet.uav[27] utilizationFail 0
scalar OsgEarthNet.uav[27] simulationTime 259200
scalar OsgEarthNet.uav[28] utilizationSecMission 41075.337834341
scalar OsgEarthNet.uav[28] utilizationSecMaintenance 18874.99778335
scalar OsgEarthNet.uav[28] utilizationSecCharge 196840.23803502
scalar OsgEarthNet.uav[28] utilizationSecIdle 2409.4253472904
scalar OsgEarthNet.uav[28] utilizationEnergyMission 198013.03748703
scalar OsgEarthNet.uav[28] utilizationEnergyMaintenance 88033.84041214
scalar OsgEarthNet.uav[28] utilizationEnergyCharge 283424.30200195
scalar OsgEarthNet.uav[28] utilizationEnergyOverdrawMission 0
scalar OsgEarthNet.uav[28] utilizationEnergyOverdrawMaintenance 0
scalar OsgEarthNet.uav[28] utilizationCountMissions 63
scalar OsgEarthNet.uav[28] utilizationCountManeuversMission 1267
scalar OsgEarthNet.uav[28] utilizationCountManeuversMaintenance 126
scalar OsgEarthNet.uav[28] utilizationCountChargeState 63
scalar OsgEarthNet.uav[28] utilizationCountOverdrawnAfterMission 0
scalar OsgEarthNet.uav[28] utilizationCountIdleState 10
scalar OsgEarthNet.uav[28] utilizationFail 0
scalar OsgEarthNet.uav[28] simulationTime 259200
scalar OsgEarthNet.uav[29] utilizationSecMission 42048.773604459
scalar OsgEarthNet.uav[29] utilizationSecMaintenance 17920.275139877
scalar OsgEarthNet.uav[29] utilizationSecCharge 195090
scalar OsgEarthNet.uav[29] utilizationSecIdle 4140.9502556647
scalar OsgEarthNet.uav[29] utilizationEnergyMission 202454.96128542
scalar OsgEarthNet.uav[29] utilizationEnergyMaintenance 82292.479961395
scalar OsgEarthNet.uav[29] utilizationEnergyCharge 280803.81835938
scalar OsgEarthNet.uav[29] utilizationEnergyOverdrawMission 0
scalar OsgEarthNet.uav[29] utilizationEnergyOverdrawMaintenance 0
scalar OsgEarthNet.uav[29] utilizationCountMissions 61
scalar OsgEarthNet.uav[29] utilizationCountManeuversMission 1215
scalar OsgEarthNet.uav[29] utilizationCountManeuversMaintenance 123
scalar OsgEarthNet.uav[29] utilizationCountChargeState 61
scalar OsgEarthNet.uav[29] utilizationCountOverdrawnAfterMission 0
scalar OsgEarthNet.uav[29] utilizationCountIdleState 8
scalar OsgEarthNet.uav[29] utilizationFail 0
scalar OsgEarthNet.uav[29] simulationTime 259200
scalar OsgEarthNet.uav[30] utilizationSecMission 38760.452962862
scalar OsgEarthNet.uav[30] utilizationSecMaintenance 18635.486153095
scalar OsgEarthNet.uav[30] utilizationSecCharge 197355.97690425
scalar OsgEarthNet.uav[30] utilizationSecIdle 4448.0829797894
scalar OsgEarthNet.uav[30] utilizationEnergyMission 185650.4437294
scalar OsgEarthNet.uav[30] utilizationEnergyMaintenance 86369.531784058
scalar OsgEarthNet.uav[30] utilizationEnergyCharge 269174.55053711
scalar OsgEarthNet.uav[30] utilizationEnergyOverdrawMission 0
scalar OsgEarthNet.uav[30] utilizationEnergyOverdrawMaintenance 0
scalar OsgEarthNet.uav[30] utilizationCountMissions 63
scalar OsgEarthNet.uav[30] utilizationCountManeuversMission 1040
scalar OsgEarthNet.uav[30] utilizationCountManeuversMaintenance 126
scalar OsgEarthNet.uav[30] utilizationCountChargeState 63
scalar OsgEarthNet.uav[30] utilizationCountOverdrawnAfterMission 0
scalar OsgEarthNet.uav[30] utilizationCountIdleState 12
scalar OsgEarthNet.uav[30] utilizationFail 0
scalar OsgEarthNet.uav[30] simulationTime 259200
scalar OsgEarthNet.uav[31] utilizationSecMission 34386.894041547
scalar OsgEarthNet.uav[31] utilizationSecMaintenance 22115.435760164
scalar OsgEarthNet.uav[31] utilizationSecCharge 197875.66419829
scalar OsgEarthNet.uav[31] utilizationSecIdle 4822.005
scalar OsgEarthNet.uav[31] utilizationEnergyMission 165791.77650452
scalar OsgEarthNet.uav[31] utilizationEnergyMaintenance 104609.20189667
scalar OsgEarthNet.uav[31] utilizationEnergyCharge 270288.38647461
scalar OsgEarthNet.uav[31] utilizationEnergyOverdrawMission 0
scalar OsgEarthNet.uav[31] utilizationEnergyOverdrawMaintenance 0
scalar OsgEarthNet.uav[31] utilizationCountMissions 66
scalar OsgEarthNet.uav[31] utilizationCountManeuversMission 1090
scalar OsgEarthNet.uav[31] utilizationCountManeuversMaintenance 132
scalar OsgEarthNet.uav[31] utilizationCountChargeState 66
scalar OsgEarthNet.uav[31] utilizationCountOverdrawnAfterMission 0
scalar OsgEarthNet.uav[31] utilizationCountIdleState 17
scalar OsgEarthNet.uav[31] utilizationFail 0
scalar OsgEarthNet.uav[31] simulationTime 259200
scalar OsgEarthNet.uav[32] utilizationSecMission 42067.185441584
scalar OsgEarthNet.uav[32] utilizationSecMaintenance 17553.63180394
scalar OsgEarthNet.uav[32] utilizationSecCharge 197457.17875448
scalar OsgEarthNet.uav[32] utilizationSecIdle 2122.003
scalar OsgEarthNet.uav[32] utilizationEnergyMission 202325.17549515
scalar OsgEarthNet.uav[32] utilizationEnergyMaintenance 81378.627449036
scalar OsgEarthNet.uav[32] utilizationEnergyCharge 284378.68017578
scalar OsgEarthNet.uav[32] utilizationEnergyOverdrawMission 0
scalar OsgEarthNet.uav[32] utilizationEnergyOverdrawMaintenance 0
scalar OsgEarthNet.uav[32] utilizationCountMissions 62
scalar OsgEarthNet.uav[32] utilizationCountManeuversMission 1229
scalar OsgEarthNet.uav[32] utilizationCountManeuversMaintenance 124
scalar OsgEarthNet.uav[32] utilizationCountChargeState 62
scalar OsgEarthNet.uav[32] utilizationCountOverdrawnAfterMission 0
scalar OsgEarthNet.uav[32] utilizationCountIdleState 5
scalar OsgEarthNet.uav[32] utilizationFail 0
scalar OsgEarthNet.uav[32] simulationTime 259200
scalar OsgEarthNet.uav[33] utilizationSecMission 37632.596469628
scalar OsgEarthNet.uav[33] utilizationSecMaintenance 22076.205942104
scalar OsgEarthNet.uav[33] utilizationSecCharge 194670
scalar OsgEarthNet.uav[33] utilizationSecIdle 4821.196588268
scalar OsgEarthNet.uav[33] utilizationEnergyMission 181154.24624025
scalar OsgEarthNet.uav[33] utilizationEnergyMaintenance 105128.06643677
scalar OsgEarthNet.uav[33] utilizationEnergyCharge 284674.31005859
scalar OsgEarthNet.uav[33] utilizationEnergyOverdrawMission 0
scalar OsgEarthNet.uav[33] utilizationEnergyOverdrawMaintenance 0
scalar OsgEarthNet.uav[33] utilizationCountMissions 64
scalar OsgEarthNet.uav[33] utilizationCountManeuversMission 1141
scalar OsgEarthNet.uav[33] utilizationCountManeuversMaintenance 129
scalar OsgEarthNet.uav[33] utilizationCountChargeState 64
scalar OsgEarthNet.uav[33] utilizationCountOverdrawnAfterMission 0
scalar OsgEarthNet.uav[33] utilizationCountIdleState 8
scalar OsgEarthNet.uav[33] utilizationFail 0
scalar OsgEarthNet.uav[33] simulationTime 259200
scalar OsgEarthNet.uav[34] utilizationSecMission 31422.452232404
scalar OsgEarthNet.uav[34] utilizationSecMaintenance 23970.731417862
scalar OsgEarthNet.uav[34] utilizationSecCharge 202364.81384301
scalar OsgEarthNet.uav[34] utilizationSecIdle 1442.0015067221
scalar OsgEarthNet.uav[34] utilizationEnergyMission 154027.17088318
scalar OsgEarthNet.uav[34] utilizationEnergyMaintenance 113589.51314545
scalar OsgEarthNet.uav[34] utilizationEnergyCharge 265942.97827148
scalar OsgEarthNet.uav[34] utilizationEnergyOverdrawMission 0
scalar OsgEarthNet.uav[34] utilizationEnergyOverdrawMaintenance 0
scalar OsgEarthNet.uav[34] utilizationCountMissions 73
scalar OsgEarthNet.uav[34] utilizationCountManeuversMission 1005
scalar OsgEarthNet.uav[34] utilizationCountManeuversMaintenance 146
scalar OsgEarthNet.uav[34] utilizationCountChargeState 73
scalar OsgEarthNet.uav[34] utilizationCountOverdrawnAfterMission 0
scalar OsgEarthNet.uav[34] utilizationCountIdleState 11
scalar OsgEarthNet.uav[34] utilizationFail 0
scalar OsgEarthNet.uav[34] simulationTime 259200
scalar OsgEarthNet.uav[35] utilizationSecMission 36445.781066713
scalar OsgEarthNet.uav[35] utilizationSecMaintenance 24421.510661517
scalar OsgEarthNet.uav[35] utilizationSecCharge 196079.33142993
scalar OsgEarthNet.uav[35] utilizationSecIdle 2253.3758418378
scalar OsgEarthNet.uav[35] utilizationEnergyMission 176221.14957428
scalar OsgEarthNet.uav[35] utilizationEnergyMaintenance 116432.43957901
scalar OsgEarthNet.uav[35] utilizationEnergyCharge 289881.609375
scalar OsgEarthNet.uav[35] utilizationEnergyOverdrawMission 0
scalar OsgEarthNet.uav[35] utilizationEnergyOverdrawMaintenance 0
scalar OsgEarthNet.uav[35] utilizationCountMissions 66
scalar OsgEarthNet.uav[35] utilizationCountManeuversMission 1233
scalar OsgEarthNet.uav[35] utilizationCountManeuversMaintenance 132
scalar OsgEarthNet.uav[35] utilizationCountChargeState 66
scalar OsgEarthNet.uav[35] utilizationCountOverdrawnAfterMission 0
scalar OsgEarthNet.uav[35] utilizationCountIdleState 6
scalar OsgEarthNet.uav[35] utilizationFail 0
scalar OsgEarthNet.uav[35] simulationTime 259200
scalar OsgEarthNet.uav[36] utilizationSecMission 40802.22914673
scalar OsgEarthNet.uav[36] utilizationSecMaintenance 18767.716218292
scalar OsgEarthNet.uav[36] utilizationSecCharge 196299.10537931
scalar OsgEarthNet.uav[36] utilizationSecIdle 3330.9482556647
scalar OsgEarthNet.uav[36] utilizationEnergyMission 196795.30372238
scalar OsgEarthNet.uav[36] utilizationEnergyMaintenance 85663.912647247
scalar OsgEarthNet.uav[36] utilizationEnergyCharge 281503.8737793
scalar OsgEarthNet.uav[36] utilizationEnergyOverdrawMission 0
scalar OsgEarthNet.uav[36] utilizationEnergyOverdrawMaintenance 0
scalar OsgEarthNet.uav[36] utilizationCountMissions 62
scalar OsgEarthNet.uav[36] utilizationCountManeuversMission 1248
scalar OsgEarthNet.uav[36] utilizationCountManeuversMaintenance 124
scalar OsgEarthNet.uav[36] utilizationCountChargeState 62
scalar OsgEarthNet.uav[36] utilizationCountOverdrawnAfterMission 0
scalar OsgEarthNet.uav[36] utilizationCountIdleState 11
scalar OsgEarthNet.uav[36] utilizationFail 0
scalar OsgEarthNet.uav[36] simulationTime 259200
scalar OsgEarthNet.uav[37] utilizationSecMission 33783.640531262
scalar OsgEarthNet.uav[37] utilizationSecMaintenance 22888.394576446
scalar OsgEarthNet.uav[37] utilizationSecCharge 201255.96389229
scalar OsgEarthNet.uav[37] utilizationSecIdle 1272
scalar OsgEarthNet.uav[37] utilizationEnergyMission 165979.94168472
scalar OsgEarthNet.uav[37] utilizationEnergyMaintenance 108143.65356827
scalar OsgEarthNet.uav[37] utilizationEnergyCharge 274684.49658203
scalar OsgEarthNet.uav[37] utilizationEnergyOverdrawMission 0
scalar OsgEarthNet.uav[37] utilizationEnergyOverdrawMaintenance 0
scalar OsgEarthNet.uav[37] utilizationCountMissions 67
scalar OsgEarthNet.uav[37] utilizationCountManeuversMission 1161
scalar OsgEarthNet.uav[37] utilizationCountManeuversMaintenance 134
scalar OsgEarthNet.uav[37] utilizationCountChargeState 67
scalar OsgEarthNet.uav[37] utilizationCountOverdrawnAfterMission 0
scalar OsgEarthNet.uav[37] utilizationCountIdleState 11
scalar OsgEarthNet.uav[37] utilizationFail 0
scalar OsgEarthNet.uav[37] simulationTime 259200
scalar OsgEarthNet.uav[38] utilizationSecMission 43355.019384511
scalar OsgEarthNet.uav[38] utilizationSecMaintenance 16965.806766745
scalar OsgEarthNet.uav[38] utilizationSecCharge 197651.72258471
scalar OsgEarthNet.uav[38] utilizationSecIdle 1227.4502640309
scalar OsgEarthNet.uav[38] utilizationEnergyMission 208801.91423416
scalar OsgEarthNet.uav[38] utilizationEnergyMaintenance 77958.568317413
scalar OsgEarthNet.uav[38] utilizationEnergyCharge 286398.99023438
scalar OsgEarthNet.uav[38] utilizationEnergyOverdrawMission 0
scalar OsgEarthNet.uav[38] utilizationEnergyOverdrawMaintenance 0
scalar OsgEarthNet.uav[38] utilizationCountMissions 62
scalar OsgEarthNet.uav[38] utilizationCountManeuversMission 1187
scalar OsgEarthNet.uav[38] utilizationCountManeuversMaintenance 124
scalar OsgEarthNet.uav[38] utilizationCountChargeState 62
scalar OsgEarthNet.uav[38] utilizationCountOverdrawnAfterMission 0
scalar OsgEarthNet.uav[38] utilizationCountIdleState 4
scalar OsgEarthNet.uav[38] utilizationFail 0
scalar OsgEarthNet.uav[38] simulationTime 259200
scalar OsgEarthNet.uav[39] utilizationSecMission 41915.935942662
scalar OsgEarthNet.uav[39] utilizationSecMaintenance 18393.653914298
scalar OsgEarthNet.uav[39] utilizationSecCharge 195801.82848617
scalar OsgEarthNet.uav[39] utilizationSecIdle 3088.5806568717
scalar OsgEarthNet.uav[39] utilizationEnergyMission 202580.85663986
scalar OsgEarthNet.uav[39] utilizationEnergyMaintenance 85328.076286316
scalar OsgEarthNet.uav[39] utilizationEnergyCharge 283017.7510376
scalar OsgEarthNet.uav[39] utilizationEnergyOverdrawMission 0
scalar OsgEarthNet.uav[39] utilizationEnergyOverdrawMaintenance 0
scalar OsgEarthNet.uav[39] utilizationCountMissions 63
scalar OsgEarthNet.uav[39] utilizationCountManeuversMission 1227
scalar OsgEarthNet.uav[39] utilizationCountManeuversMaintenance 126
scalar OsgEarthNet.uav[39] utilizationCountChargeState 63
scalar OsgEarthNet.uav[39] utilizationCountOverdrawnAfterMission 0
scalar OsgEarthNet.uav[39] utilizationCountIdleState 3
scalar OsgEarthNet.uav[39] utilizationFail 0
scalar OsgEarthNet.uav[39] simulationTime 259200
scalar OsgEarthNet.uav[40] utilizationSecMission 36645.854272565
scalar OsgEarthNet.uav[40] utilizationSecMaintenance 23424.20044959
scalar OsgEarthNet.uav[40] utilizationSecCharge 196410
scalar OsgEarthNet.uav[40] utilizationSecIdle 2719.9442778449
scalar OsgEarthNet.uav[40] utilizationEnergyMission 176354.15485343
scalar OsgEarthNet.uav[40] utilizationEnergyMaintenance 111188.71970749
scalar OsgEarthNet.uav[40] utilizationEnergyCharge 289619.40258789
scalar OsgEarthNet.uav[40] utilizationEnergyOverdrawMission 0
scalar OsgEarthNet.uav[40] utilizationEnergyOverdrawMaintenance 0
scalar OsgEarthNet.uav[40] utilizationCountMissions 65
scalar OsgEarthNet.uav[40] utilizationCountManeuversMission 1156
scalar OsgEarthNet.uav[40] utilizationCountManeuversMaintenance 131
scalar OsgEarthNet.uav[40] utilizationCountChargeState 65
scalar OsgEarthNet.uav[40] utilizationCountOverdrawnAfterMission 0
scalar OsgEarthNet.uav[40] utilizationCountIdleState 4
scalar OsgEarthNet.uav[40] utilizationFail 0
scalar OsgEarthNet.uav[40] simulationTime 259200
scalar OsgEarthNet.uav[41] utilizationSecMission 37327.587732079
scalar OsgEarthNet.uav[41] utilizationSecMaintenance 24234.018386132
scalar OsgEarthNet.uav[41] utilizationSecCharge 196786.39188179
scalar OsgEarthNet.uav[41] utilizationSecIdle 852.001
scalar OsgEarthNet.uav[41] utilizationEnergyMission 181738.10471344
scalar OsgEarthNet.uav[41] utilizationEnergyMaintenance 114498.85452652
scalar OsgEarthNet.uav[41] utilizationEnergyCharge 293015.21386719
scalar OsgEarthNet.uav[41] utilizationEnergyOverdrawMission 0
scalar OsgEarthNet.uav[41] utilizationEnergyOverdrawMaintenance 0
scalar OsgEarthNet.uav[41] utilizationCountMissions 67
scalar OsgEarthNet.uav[41] utilizationCountManeuversMission 1237
scalar OsgEarthNet.uav[41] utilizationCountManeuversMaintenance 134
scalar OsgEarthNet.uav[41] utilizationCountChargeState 67
scalar OsgEarthNet.uav[41] utilizationCountOverdrawnAfterMission 0
scalar OsgEarthNet.uav[41] utilizationCountIdleState 3
scalar OsgEarthNet.uav[41] utilizationFail 0
scalar OsgEarthNet.uav[41] simulationTime 259200
scalar OsgEarthNet.uav[42] utilizationSecMission 43420.370891561
scalar OsgEarthNet.uav[42] utilizationSecMaintenance 16607.058454321
scalar OsgEarthNet.uav[42] utilizationSecCharge 198760.56965412
scalar OsgEarthNet.uav[42] utilizationSecIdle 412
scalar OsgEarthNet.uav[42] utilizationEnergyMission 208525.23243831
scalar OsgEarthNet.uav[42] utilizationEnergyMaintenance 75880.444526672
scalar OsgEarthNet.uav[42] utilizationEnergyCharge 283580.2956543
scalar OsgEarthNet.uav[42] utilizationEnergyOverdrawMission 0
scalar OsgEarthNet.uav[42] utilizationEnergyOverdrawMaintenance 0
scalar OsgEarthNet.uav[42] utilizationCountMissions 62
scalar OsgEarthNet.uav[42] utilizationCountManeuversMission 1179
scalar OsgEarthNet.uav[42] utilizationCountManeuversMaintenance 123
scalar OsgEarthNet.uav[42] utilizationCountChargeState 62
scalar OsgEarthNet.uav[42] utilizationCountOverdrawnAfterMission 0
scalar OsgEarthNet.uav[42] utilizationCountIdleState 6
scalar OsgEarthNet.uav[42] utilizationFail 0
scalar OsgEarthNet.uav[42] simulationTime 259200
scalar OsgEarthNet.uav[43] utilizationSecMission 42019.250184768
scalar OsgEarthNet.uav[43] utilizationSecMaintenance 17722.120392299
scalar OsgEarthNet.uav[43] utilizationSecCharge 195544.46465002
scalar OsgEarthNet.uav[43] utilizationSecIdle 3914.1637729077
scalar OsgEarthNet.uav[43] utilizationEnergyMission 201988.31703949
scalar OsgEarthNet.uav[43] utilizationEnergyMaintenance 82366.013626099
scalar OsgEarthNet.uav[43] utilizationEnergyCharge 283929.63623047
scalar OsgEarthNet.uav[43] utilizationEnergyOverdrawMission 0
scalar OsgEarthNet.uav[43] utilizationEnergyOverdrawMaintenance 0
scalar OsgEarthNet.uav[43] utilizationCountMissions 62
scalar OsgEarthNet.uav[43] utilizationCountManeuversMission 1222
scalar OsgEarthNet.uav[43] utilizationCountManeuversMaintenance 124
scalar OsgEarthNet.uav[43] utilizationCountChargeState 62
scalar OsgEarthNet.uav[43] utilizationCountOverdrawnAfterMission 0
scalar OsgEarthNet.uav[43] utilizationCountIdleState 5
scalar OsgEarthNet.uav[43] utilizationFail 0
scalar OsgEarthNet.uav[43] simulationTime 259200
scalar OsgEarthNet.uav[44] utilizationSecMission 31226.492271045
scalar OsgEarthNet.uav[44] utilizationSecMaintenance 23949.066298892
scalar OsgEarthNet.uav[44] utilizationSecCharge 202419.82854055
scalar OsgEarthNet.uav[44] utilizationSecIdle 1604.6118895164
scalar OsgEarthNet.uav[44] utilizationEnergyMission 149884.12825394
scalar OsgEarthNet.uav[44] utilizationEnergyMaintenance 114128.65820694
scalar OsgEarthNet.uav[44] utilizationEnergyCharge 262932.13720703
scalar OsgEarthNet.uav[44] utilizationEnergyOverdrawMission 0
scalar OsgEarthNet.uav[44] utilizationEnergyOverdrawMaintenance 0
scalar OsgEarthNet.uav[44] utilizationCountMissions 74
scalar OsgEarthNet.uav[44] utilizationCountManeuversMission 976
scalar OsgEarthNet.uav[44] utilizationCountManeuversMaintenance 148
scalar OsgEarthNet.uav[44] utilizationCountChargeState 74
scalar OsgEarthNet.uav[44] utilizationCountOverdrawnAfterMission 0
scalar OsgEarthNet.uav[44] utilizationCountIdleState 9
scalar OsgEarthNet.uav[44] utilizationFail 0
scalar OsgEarthNet.uav[44] simulationTime 259200
scalar OsgEarthNet.uav[45] utilizationSecMission 41614.883117037
scalar OsgEarthNet.uav[45] utilizationSecMaintenance 18090.617941788
scalar OsgEarthNet.uav[45] utilizationSecCharge 197970
scalar OsgEarthNet.uav[45] utilizationSecIdle 1524.4979411756
scalar OsgEarthNet.uav[45] utilizationEnergyMission 203906.49380296
scalar OsgEarthNet.uav[45] utilizationEnergyMaintenance 83586.986968994
scalar OsgEarthNet.uav[45] utilizationEnergyCharge 285012.55810547
scalar OsgEarthNet.uav[45] utilizationEnergyOverdrawMission 0
scalar OsgEarthNet.uav[45] utilizationEnergyOverdrawMaintenance 0
scalar OsgEarthNet.uav[45] utilizationCountMissions 62
scalar OsgEarthNet.uav[45] utilizationCountManeuversMission 1325
scalar OsgEarthNet.uav[45] utilizationCountManeuversMaintenance 125
scalar OsgEarthNet.uav[45] utilizationCountChargeState 62
scalar OsgEarthNet.uav[45] utilizationCountOverdrawnAfterMission 0
scalar OsgEarthNet.uav[45] utilizationCountIdleState 9
scalar OsgEarthNet.uav[45] utilizationFail 0
scalar OsgEarthNet.uav[45] simulationTime 259200
scalar OsgEarthNet.uav[46] utilizationSecMission 32234.810685072
scalar OsgEarthNet.uav[46] utilizationSecMaintenance 23153.188314928
scalar OsgEarthNet.uav[46] utilizationSecCharge 202930
scalar OsgEarthNet.uav[46] utilizationSecIdle 882
scalar OsgEarthNet.uav[46] utilizationEnergyMission 158591.63975143
scalar OsgEarthNet.uav[46] utilizationEnergyMaintenance 110728.09651282
scalar OsgEarthNet.uav[46] utilizationEnergyCharge 269541.20458984
scalar OsgEarthNet.uav[46] utilizationEnergyOverdrawMission 0
scalar OsgEarthNet.uav[46] utilizationEnergyOverdrawMaintenance 0
scalar OsgEarthNet.uav[46] utilizationCountMissions 69
scalar OsgEarthNet.uav[46] utilizationCountManeuversMission 1058
scalar OsgEarthNet.uav[46] utilizationCountManeuversMaintenance 139
scalar OsgEarthNet.uav[46] utilizationCountChargeState 69
scalar OsgEarthNet.uav[46] utilizationCountOverdrawnAfterMission 0
scalar OsgEarthNet.uav[46] utilizationCountIdleState 9
scalar OsgEarthNet.uav[46] utilizationFail 0
scalar OsgEarthNet.uav[46] simulationTime 259200
scalar OsgEarthNet.uav[47] utilizationSecMission 39100.425738209
scalar OsgEarthNet.uav[47] utilizationSecMaintenance 21054.1321731
scalar OsgEarthNet.uav[47] utilizationSecCharge 196810
scalar OsgEarthNet.uav[47] utilizationSecIdle 2235.4410886909
scalar OsgEarthNet.uav[47] utilizationEnergyMission 193145.99750445
scalar OsgEarthNet.uav[47] utilizationEnergyMaintenance 97814.408153534
scalar OsgEarthNet.uav[47] utilizationEnergyCharge 289213.6953125
scalar OsgEarthNet.uav[47] utilizationEnergyOverdrawMission 0
scalar OsgEarthNet.uav[47] utilizationEnergyOverdrawMaintenance 0
scalar OsgEarthNet.uav[47] utilizationCountMissions 64
scalar OsgEarthNet.uav[47] utilizationCountManeuversMission 1459
scalar OsgEarthNet.uav[47] utilizationCountManeuversMaintenance 129
scalar OsgEarthNet.uav[47] utilizationCountChargeState 64
scalar OsgEarthNet.uav[47] utilizationCountOverdrawnAfterMission 0
scalar OsgEarthNet.uav[47] utilizationCountIdleState 4
scalar OsgEarthNet.uav[47] utilizationFail 0
scalar OsgEarthNet.uav[47] simulationTime 259200
scalar OsgEarthNet.uav[48] utilizationSecMission 41217.391748481
scalar OsgEarthNet.uav[48] utilizationSecMaintenance 19269.23451735
scalar OsgEarthNet.uav[48] utilizationSecCharge 196941.37073417
scalar OsgEarthNet.uav[48] utilizationSecIdle 1772.002
scalar OsgEarthNet.uav[48] utilizationEnergyMission 200688.86767197
scalar OsgEarthNet.uav[48] utilizationEnergyMaintenance 88067.097400665
scalar OsgEarthNet.uav[48] utilizationEnergyCharge 286471.68359375
scalar OsgEarthNet.uav[48] utilizationEnergyOverdrawMission 0
scalar OsgEarthNet.uav[48] utilizationEnergyOverdrawMaintenance 0
scalar OsgEarthNet.uav[48] utilizationCountMissions 63
scalar OsgEarthNet.uav[48] utilizationCountManeuversMission 1351
scalar OsgEarthNet.uav[48] utilizationCountManeuversMaintenance 126
scalar OsgEarthNet.uav[48] utilizationCountChargeState 63
scalar OsgEarthNet.uav[48] utilizationCountOverdrawnAfterMission 0
scalar OsgEarthNet.uav[48] utilizationCountIdleState 8
scalar OsgEarthNet.uav[48] utilizationFail 0
scalar OsgEarthNet.uav[48] simulationTime 259200
scalar OsgEarthNet.uav[49] utilizationSecMission 36695.519739428
scalar OsgEarthNet.uav[49] utilizationSecMaintenance 23613.622993764
scalar OsgEarthNet.uav[49] utilizationSecCharge 196488.85226681
scalar OsgEarthNet.uav[49] utilizationSecIdle 2402.004
scalar OsgEarthNet.uav[49] utilizationEnergyMission 179752.51884842
scalar OsgEarthNet.uav[49] utilizationEnergyMaintenance 111050.41273117
scalar OsgEarthNet.uav[49] utilizationEnergyCharge 290171.79492188
scalar OsgEarthNet.uav[49] utilizationEnergyOverdrawMission 0
scalar OsgEarthNet.uav[49] utilizationEnergyOverdrawMaintenance 0
scalar OsgEarthNet.uav[49] utilizationCountMissions 65
scalar OsgEarthNet.uav[49] utilizationCountManeuversMission 1201
scalar OsgEarthNet.uav[49] utilizationCountManeuversMaintenance 130
scalar OsgEarthNet.uav[49] utilizationCountChargeState 65
scalar OsgEarthNet.uav[49] utilizationCountOverdrawnAfterMission 0
scalar OsgEarthNet.uav[49] utilizationCountIdleState 7
scalar OsgEarthNet.uav[49] utilizationFail 0
scalar OsgEarthNet.uav[49] simulationTime 259200
scalar OsgEarthNet.uav[50] utilizationSecMission 42666.175292844
scalar OsgEarthNet.uav[50] utilizationSecMaintenance 18165.2562342
scalar OsgEarthNet.uav[50] utilizationSecCharge 197496.56747296
scalar OsgEarthNet.uav[50] utilizationSecIdle 872
scalar OsgEarthNet.uav[50] utilizationEnergyMission 204100.04527664
scalar OsgEarthNet.uav[50] utilizationEnergyMaintenance 82903.069034576
scalar OsgEarthNet.uav[50] utilizationEnergyCharge 284444.32177734
scalar OsgEarthNet.uav[50] utilizationEnergyOverdrawMission 0
scalar OsgEarthNet.uav[50] utilizationEnergyOverdrawMaintenance 0
scalar OsgEarthNet.uav[50] utilizationCountMissions 63
scalar OsgEarthNet.uav[50] utilizationCountManeuversMission 1203
scalar OsgEarthNet.uav[50] utilizationCountManeuversMaintenance 125
scalar OsgEarthNet.uav[50] utilizationCountChargeState 63
scalar OsgEarthNet.uav[50] utilizationCountOverdrawnAfterMission 0
scalar OsgEarthNet.uav[50] utilizationCountIdleState 8
scalar OsgEarthNet.uav[50] utilizationFail 0
scalar OsgEarthNet.uav[50] simulationTime 259200
scalar OsgEarthNet.uav[51] utilizationSecMission 41641.168431828
scalar OsgEarthNet.uav[51] utilizationSecMaintenance 18563.388479481
scalar OsgEarthNet.uav[51] utilizationSecCharge 196560
scalar OsgEarthNet.uav[51] utilizationSecIdle 2435.4420886909
scalar OsgEarthNet.uav[51] utilizationEnergyMission 202597.31042083
scalar OsgEarthNet.uav[51] utilizationEnergyMaintenance 85385.52129364
scalar OsgEarthNet.uav[51] utilizationEnergyCharge 284399.72265625
scalar OsgEarthNet.uav[51] utilizationEnergyOverdrawMission 0
scalar OsgEarthNet.uav[51] utilizationEnergyOverdrawMaintenance 0
scalar OsgEarthNet.uav[51] utilizationCountMissions 62
scalar OsgEarthNet.uav[51] utilizationCountManeuversMission 1222
scalar OsgEarthNet.uav[51] utilizationCountManeuversMaintenance 125
scalar OsgEarthNet.uav[51] utilizationCountChargeState 62
scalar OsgEarthNet.uav[51] utilizationCountOverdrawnAfterMission 0
scalar OsgEarthNet.uav[51] utilizationCountIdleState 3
scalar OsgEarthNet.uav[51] utilizationFail 0
scalar OsgEarthNet.uav[51] simulationTime 259200
scalar OsgEarthNet.uav[52] utilizationSecMission 33448.425802822
scalar OsgEarthNet.uav[52] utilizationSecMaintenance 22477.009740343
scalar OsgEarthNet.uav[52] utilizationSecCharge 200250
scalar OsgEarthNet.uav[52] utilizationSecIdle 3024.5634568356
scalar OsgEarthNet.uav[52] utilizationEnergyMission 162363.42948914
scalar OsgEarthNet.uav[52] utilizationEnergyMaintenance 106730.98992538
scalar OsgEarthNet.uav[52] utilizationEnergyCharge 271515.81762695
scalar OsgEarthNet.uav[52] utilizationEnergyOverdrawMission 0
scalar OsgEarthNet.uav[52] utilizationEnergyOverdrawMaintenance 0
scalar OsgEarthNet.uav[52] utilizationCountMissions 67
scalar OsgEarthNet.uav[52] utilizationCountManeuversMission 1061
scalar OsgEarthNet.uav[52] utilizationCountManeuversMaintenance 134
scalar OsgEarthNet.uav[52] utilizationCountChargeState 67
scalar OsgEarthNet.uav[52] utilizationCountOverdrawnAfterMission 0
scalar OsgEarthNet.uav[52] utilizationCountIdleState 11
scalar OsgEarthNet.uav[52] utilizationFail 0
scalar OsgEarthNet.uav[52] simulationTime 259200
scalar OsgEarthNet.uav[53] utilizationSecMission 36114.378509347
scalar OsgEarthNet.uav[53] utilizationSecMaintenance 23711.950544086
scalar OsgEarthNet.uav[53] utilizationSecCharge 195561.66294657
scalar OsgEarthNet.uav[53] utilizationSecIdle 3812.007
scalar OsgEarthNet.uav[53] utilizationEnergyMission 176679.30317307
scalar OsgEarthNet.uav[53] utilizationEnergyMaintenance 112133.59032822
scalar OsgEarthNet.uav[53] utilizationEnergyCharge 287573.00756836
scalar OsgEarthNet.uav[53] utilizationEnergyOverdrawMission 0
scalar OsgEarthNet.uav[53] utilizationEnergyOverdrawMaintenance 0
scalar OsgEarthNet.uav[53] utilizationCountMissions 65
scalar OsgEarthNet.uav[53] utilizationCountManeuversMission 1207
scalar OsgEarthNet.uav[53] utilizationCountManeuversMaintenance 130
scalar OsgEarthNet.uav[53] utilizationCountChargeState 65
scalar OsgEarthNet.uav[53] utilizationCountOverdrawnAfterMission 0
scalar OsgEarthNet.uav[53] utilizationCountIdleState 6
scalar OsgEarthNet.uav[53] utilizationFail 0
scalar OsgEarthNet.uav[53] simulationTime 259200
scalar OsgEarthNet.uav[54] utilizationSecMission 33316.529343063
scalar OsgEarthNet.uav[54] utilizationSecMaintenance 23196.226064232
scalar OsgEarthNet.uav[54] utilizationSecCharge 199936.27960703
scalar OsgEarthNet.uav[54] utilizationSecIdle 2750.9639856735
scalar OsgEarthNet.uav[54] utilizationEnergyMission 161725.16431427
scalar OsgEarthNet.uav[54] utilizationEnergyMaintenance 111051.3576355
scalar OsgEarthNet.uav[54] utilizationEnergyCharge 268080.46435547
scalar OsgEarthNet.uav[54] utilizationEnergyOverdrawMission 0
scalar OsgEarthNet.uav[54] utilizationEnergyOverdrawMaintenance 0
scalar OsgEarthNet.uav[54] utilizationCountMissions 71
scalar OsgEarthNet.uav[54] utilizationCountManeuversMission 1019
scalar OsgEarthNet.uav[54] utilizationCountManeuversMaintenance 142
scalar OsgEarthNet.uav[54] utilizationCountChargeState 71
scalar OsgEarthNet.uav[54] utilizationCountOverdrawnAfterMission 0
scalar OsgEarthNet.uav[54] utilizationCountIdleState 11
scalar OsgEarthNet.uav[54] utilizationFail 0
scalar OsgEarthNet.uav[54] simulationTime 259200
scalar OsgEarthNet.uav[55] utilizationSecMission 42736.660136803
scalar OsgEarthNet.uav[55] utilizationSecMaintenance 17011.338863197
scalar OsgEarthNet.uav[55] utilizationSecCharge 198800
scalar OsgEarthNet.uav[55] utilizationSecIdle 652
scalar OsgEarthNet.uav[55] utilizationEnergyMission 205796.97737122
scalar OsgEarthNet.uav[55] utilizationEnergyMaintenance 80041.228078594
scalar OsgEarthNet.uav[55] utilizationEnergyCharge 285543.92822266
scalar OsgEarthNet.uav[55] utilizationEnergyOverdrawMission 0
scalar OsgEarthNet.uav[55] utilizationEnergyOverdrawMaintenance 0
scalar OsgEarthNet.uav[55] utilizationCountMissions 62
scalar OsgEarthNet.uav[55] utilizationCountManeuversMission 1334
scalar OsgEarthNet.uav[55] utilizationCountManeuversMaintenance 125
scalar OsgEarthNet.uav[55] utilizationCountChargeState 62
scalar OsgEarthNet.uav[55] utilizationCountOverdrawnAfterMission 0
scalar OsgEarthNet.uav[55] utilizationCountIdleState 7
scalar OsgEarthNet.uav[55] utilizationFail 0
scalar OsgEarthNet.uav[55] simulationTime 259200
scalar OsgEarthNet.uav[56] utilizationSecMission 42005.427464576
scalar OsgEarthNet.uav[56] utilizationSecMaintenance 17642.624749105
scalar OsgEarthNet.uav[56] utilizationSecCharge 196340.99753065
scalar OsgEarthNet.uav[56] utilizationSecIdle 3210.9492556647
scalar OsgEarthNet.uav[56] utilizationEnergyMission 203540.64902878
scalar OsgEarthNet.uav[56] utilizationEnergyMaintenance 82066.706287384
scalar OsgEarthNet.uav[56] utilizationEnergyCharge 282894.11450195
scalar OsgEarthNet.uav[56] utilizationEnergyOverdrawMission 0
scalar OsgEarthNet.uav[56] utilizationEnergyOverdrawMaintenance 0
scalar OsgEarthNet.uav[56] utilizationCountMissions 62
scalar OsgEarthNet.uav[56] utilizationCountManeuversMission 1197
scalar OsgEarthNet.uav[56] utilizationCountManeuversMaintenance 124
scalar OsgEarthNet.uav[56] utilizationCountChargeState 62
scalar OsgEarthNet.uav[56] utilizationCountOverdrawnAfterMission 0
scalar OsgEarthNet.uav[56] utilizationCountIdleState 6
scalar OsgEarthNet.uav[56] utilizationFail 0
scalar OsgEarthNet.uav[56] simulationTime 259200
scalar OsgEarthNet.uav[57] utilizationSecMission 33929.023715624
scalar OsgEarthNet.uav[57] utilizationSecMaintenance 22973.659202546
scalar OsgEarthNet.uav[57] utilizationSecCharge 199140
scalar OsgEarthNet.uav[57] utilizationSecIdle 3157.3160818306
scalar OsgEarthNet.uav[57] utilizationEnergyMission 169258.23917389
scalar OsgEarthNet.uav[57] utilizationEnergyMaintenance 108576.55772066
scalar OsgEarthNet.uav[57] utilizationEnergyCharge 270786.35693359
scalar OsgEarthNet.uav[57] utilizationEnergyOverdrawMission 0
scalar OsgEarthNet.uav[57] utilizationEnergyOverdrawMaintenance 0
scalar OsgEarthNet.uav[57] utilizationCountMissions 66
scalar OsgEarthNet.uav[57] utilizationCountManeuversMission 1226
scalar OsgEarthNet.uav[57] utilizationCountManeuversMaintenance 132
scalar OsgEarthNet.uav[57] utilizationCountChargeState 65
scalar OsgEarthNet.uav[57] utilizationCountOverdrawnAfterMission 0
scalar OsgEarthNet.uav[57] utilizationCountIdleState 9
scalar OsgEarthNet.uav[57] utilizationFail 0
scalar OsgEarthNet.uav[57] simulationTime 259200
scalar OsgEarthNet.uav[58] utilizationSecMission 42742.964014587
scalar OsgEarthNet.uav[58] utilizationSecMaintenance 18233.504615614
scalar OsgEarthNet.uav[58] utilizationSecCharge 196871.5283698
scalar OsgEarthNet.uav[58] utilizationSecIdle 1352.002
scalar OsgEarthNet.uav[58] utilizationEnergyMission 206265.31965256
scalar OsgEarthNet.uav[58] utilizationEnergyMaintenance 83913.7121315
scalar OsgEarthNet.uav[58] utilizationEnergyCharge 284438.19287109
scalar OsgEarthNet.uav[58] utilizationEnergyOverdrawMission 0
scalar OsgEarthNet.uav[58] utilizationEnergyOverdrawMaintenance 0
scalar OsgEarthNet.uav[58] utilizationCountMissions 63
scalar OsgEarthNet.uav[58] utilizationCountManeuversMission 1309
scalar OsgEarthNet.uav[58] utilizationCountManeuversMaintenance 126
scalar OsgEarthNet.uav[58] utilizationCountChargeState 63
scalar OsgEarthNet.uav[58] utilizationCountOverdrawnAfterMission 0
scalar OsgEarthNet.uav[58] utilizationCountIdleState 6
scalar OsgEarthNet.uav[58] utilizationFail 0
scalar OsgEarthNet.uav[58] simulationTime 259200
scalar OsgEarthNet.uav[59] utilizationSecMission 37147.676422297
scalar OsgEarthNet.uav[59] utilizationSecMaintenance 23448.085486352
scalar OsgEarthNet.uav[59] utilizationSecCharge 197477.71981105
scalar OsgEarthNet.uav[59] utilizationSecIdle 1126.5172803027
scalar OsgEarthNet.uav[59] utilizationEnergyMission 180214.64188004
scalar OsgEarthNet.uav[59] utilizationEnergyMaintenance 112169.90883636
scalar OsgEarthNet.uav[59] utilizationEnergyCharge 289634.95483398
scalar OsgEarthNet.uav[59] utilizationEnergyOverdrawMission 0
scalar OsgEarthNet.uav[59] utilizationEnergyOverdrawMaintenance 0
scalar OsgEarthNet.uav[59] utilizationCountMissions 66
scalar OsgEarthNet.uav[59] utilizationCountManeuversMission 1170
scalar OsgEarthNet.uav[59] utilizationCountManeuversMaintenance 132
scalar OsgEarthNet.uav[59] utilizationCountChargeState 66
scalar OsgEarthNet.uav[59] utilizationCountOverdrawnAfterMission 0
scalar OsgEarthNet.uav[59] utilizationCountIdleState 7
scalar OsgEarthNet.uav[59] utilizationFail 0
scalar OsgEarthNet.uav[59] simulationTime 259200
scalar OsgEarthNet.cs[0] usedPower 4042020.0110654
scalar OsgEarthNet.cs[0] chargedPower 4042020.0110654
scalar OsgEarthNet.cs[0] chargedMobileNodes 69
scalar OsgEarthNet.cs[0] reservations 917
scalar OsgEarthNet.cs[1] usedPower 4166993.1233767
scalar OsgEarthNet.cs[1] chargedPower 4166993.1233767
scalar OsgEarthNet.cs[1] chargedMobileNodes 161
scalar OsgEarthNet.cs[1] reservations 1054
scalar OsgEarthNet.cs[2] usedPower 8686262.8108429
scalar OsgEarthNet.cs[2] chargedPower 8686262.8108429
scalar OsgEarthNet.cs[2] chargedMobileNodes 170
scalar OsgEarthNet.cs[2] reservations 1906

