version 2
run Szenario_Hotel_Gabelbach-181-20180719-07:42:33-20592
attr configname Szenario_Hotel_Gabelbach
attr datetime 20180719-07:42:33
attr experiment Szenario_Hotel_Gabelbach
attr inifile omnetpp.ini
attr iterationvars "$replM=2, $biWeight=0.35, $replSearchM=1, $numUAVs=64"
attr iterationvarsf replM=2,biWeight=0.35,replSearchM=1,numUAVs=64-
attr measurement "$replM=2, $biWeight=0.35, $replSearchM=1, $numUAVs=64"
attr network OsgEarthNet
attr processid 20592
attr repetition 13
attr replication #13
attr resultdir results
attr runnumber 181
attr seedset 181
itervar biWeight 0.35
itervar numUAVs 64
itervar replM 2
itervar replSearchM 1
param *.osgEarthScene.scene "\"Szenario_Hotel_Gabelbach.earth\""
param *.playgroundLatitude 50.6830269
param *.playgroundLongitude 10.8538055
param *.playgroundWidth 3500m
param *.playgroundHeight 3500m
param *.cs[0].posX 3537m
param *.cs[0].posY 965m
param *.cs[0].posZ 538m
param *.cs[1].posX 312m
param *.cs[1].posY 1262m
param *.cs[1].posZ 539m
param *.cs[2].posX 2185m
param *.cs[2].posY 3026m
param *.cs[2].posZ 777m
param *.cs[3].posX 10m
param *.cs[3].posY 2200m
param *.cs[3].posZ 560m
param *.cs[4].posX 750m
param *.cs[4].posY 200m
param *.cs[4].posZ 540m
param *.cs[5].posX 2450m
param *.cs[5].posY 180m
param *.cs[5].posZ 524m
param *.cs[6].posX 3140m
param *.cs[6].posY 1790m
param *.cs[6].posZ 606m
param *.numCSs 3
param *.uav[*].replacementMethod 2
param *.uav[*].weightedSumWeight 0.35
param *.missionControl.replacementSearchMethod 1
param *.numUAVs 64
param *.*.timeStep 10s
param *.uav[*].commandPreviewCommandCount 20
param *.missionControl.missionFiles "\"missions\\\\Szenario_WB_Hotel_Gabelbach_Mission_Hotel.waypoints,missions\\\\Szenario_WB_Hotel_Gabelbach_Mission_Kickelhahn.waypoints,missions\\\\Szenario_WB_Hotel_Gabelbach_Mission_Ilmenau_Sportplatz.waypoints,missions\\\\Szenario_WB_Hotel_Gabelbach_Mission_Manebach_Mitte.waypoints,missions\\\\Szenario_WB_Hotel_Gabelbach_Mission_Manebach_Sued.waypoints,missions\\\\Szenario_WB_Hotel_Gabelbach_Hover_HoheSchlaufe.waypoints,missions\\\\Szenario_WB_Hotel_Gabelbach_Hover_Kickelhahn.waypoints,missions\\\\Szenario_WB_Hotel_Gabelbach_Hover_Gabelbachskopf.waypoints,missions\\\\Szenario_WB_Hotel_Gabelbach_Hover_Dachskopf.waypoints\""
param *.uav[0].startX 3537m
param *.uav[0].startY 965m
param *.uav[0].startZ 539m
param *.uav[1].startX 312m
param *.uav[1].startY 1262m
param *.uav[1].startZ 540m
param *.uav[2].startX 2185m
param *.uav[2].startY 3026m
param *.uav[2].startZ 778m
param *.uav[3].startX 3537m
param *.uav[3].startY 965m
param *.uav[3].startZ 539m
param *.uav[4].startX 312m
param *.uav[4].startY 1262m
param *.uav[4].startZ 540m
param *.uav[5].startX 2185m
param *.uav[5].startY 3026m
param *.uav[5].startZ 778m
param *.uav[6].startX 3537m
param *.uav[6].startY 965m
param *.uav[6].startZ 539m
param *.uav[7].startX 312m
param *.uav[7].startY 1262m
param *.uav[7].startZ 540m
param *.uav[8].startX 2185m
param *.uav[8].startY 3026m
param *.uav[8].startZ 778m
param *.uav[9].startX 3537m
param *.uav[9].startY 965m
param *.uav[9].startZ 539m
param *.uav[10].startX 3537m
param *.uav[10].startY 965m
param *.uav[10].startZ 539m
param *.uav[11].startX 312m
param *.uav[11].startY 1262m
param *.uav[11].startZ 540m
param *.uav[12].startX 2185m
param *.uav[12].startY 3026m
param *.uav[12].startZ 778m
param *.uav[13].startX 3537m
param *.uav[13].startY 965m
param *.uav[13].startZ 539m
param *.uav[14].startX 312m
param *.uav[14].startY 1262m
param *.uav[14].startZ 540m
param *.uav[15].startX 2185m
param *.uav[15].startY 3026m
param *.uav[15].startZ 778m
param *.uav[16].startX 3537m
param *.uav[16].startY 965m
param *.uav[16].startZ 539m
param *.uav[17].startX 312m
param *.uav[17].startY 1262m
param *.uav[17].startZ 540m
param *.uav[18].startX 2185m
param *.uav[18].startY 3026m
param *.uav[18].startZ 778m
param *.uav[19].startX 3537m
param *.uav[19].startY 965m
param *.uav[19].startZ 539m
param *.uav[20].startX 3537m
param *.uav[20].startY 965m
param *.uav[20].startZ 539m
param *.uav[21].startX 312m
param *.uav[21].startY 1262m
param *.uav[21].startZ 540m
param *.uav[22].startX 2185m
param *.uav[22].startY 3026m
param *.uav[22].startZ 778m
param *.uav[23].startX 3537m
param *.uav[23].startY 965m
param *.uav[23].startZ 539m
param *.uav[24].startX 312m
param *.uav[24].startY 1262m
param *.uav[24].startZ 540m
param *.uav[25].startX 2185m
param *.uav[25].startY 3026m
param *.uav[25].startZ 778m
param *.uav[26].startX 3537m
param *.uav[26].startY 965m
param *.uav[26].startZ 539m
param *.uav[27].startX 312m
param *.uav[27].startY 1262m
param *.uav[27].startZ 540m
param *.uav[28].startX 2185m
param *.uav[28].startY 3026m
param *.uav[28].startZ 778m
param *.uav[29].startX 3537m
param *.uav[29].startY 965m
param *.uav[29].startZ 539m
param *.uav[30].startX 3537m
param *.uav[30].startY 965m
param *.uav[30].startZ 539m
param *.uav[31].startX 312m
param *.uav[31].startY 1262m
param *.uav[31].startZ 540m
param *.uav[32].startX 2185m
param *.uav[32].startY 3026m
param *.uav[32].startZ 778m
param *.uav[33].startX 3537m
param *.uav[33].startY 965m
param *.uav[33].startZ 539m
param *.uav[34].startX 312m
param *.uav[34].startY 1262m
param *.uav[34].startZ 540m
param *.uav[35].startX 2185m
param *.uav[35].startY 3026m
param *.uav[35].startZ 778m
param *.uav[36].startX 3537m
param *.uav[36].startY 965m
param *.uav[36].startZ 539m
param *.uav[37].startX 312m
param *.uav[37].startY 1262m
param *.uav[37].startZ 540m
param *.uav[38].startX 2185m
param *.uav[38].startY 3026m
param *.uav[38].startZ 778m
param *.uav[39].startX 3537m
param *.uav[39].startY 965m
param *.uav[39].startZ 539m
param *.uav[40].startX 3537m
param *.uav[40].startY 965m
param *.uav[40].startZ 539m
param *.uav[41].startX 312m
param *.uav[41].startY 1262m
param *.uav[41].startZ 540m
param *.uav[42].startX 2185m
param *.uav[42].startY 3026m
param *.uav[42].startZ 778m
param *.uav[43].startX 3537m
param *.uav[43].startY 965m
param *.uav[43].startZ 539m
param *.uav[44].startX 312m
param *.uav[44].startY 1262m
param *.uav[44].startZ 540m
param *.uav[45].startX 2185m
param *.uav[45].startY 3026m
param *.uav[45].startZ 778m
param *.uav[46].startX 3537m
param *.uav[46].startY 965m
param *.uav[46].startZ 539m
param *.uav[47].startX 312m
param *.uav[47].startY 1262m
param *.uav[47].startZ 540m
param *.uav[48].startX 2185m
param *.uav[48].startY 3026m
param *.uav[48].startZ 778m
param *.uav[49].startX 3537m
param *.uav[49].startY 965m
param *.uav[49].startZ 539m
param *.uav[50].startX 3537m
param *.uav[50].startY 965m
param *.uav[50].startZ 539m
param *.uav[51].startX 312m
param *.uav[51].startY 1262m
param *.uav[51].startZ 540m
param *.uav[52].startX 2185m
param *.uav[52].startY 3026m
param *.uav[52].startZ 778m
param *.uav[53].startX 3537m
param *.uav[53].startY 965m
param *.uav[53].startZ 539m
param *.uav[54].startX 312m
param *.uav[54].startY 1262m
param *.uav[54].startZ 540m
param *.uav[55].startX 2185m
param *.uav[55].startY 3026m
param *.uav[55].startZ 778m
param *.uav[56].startX 3537m
param *.uav[56].startY 965m
param *.uav[56].startZ 539m
param *.uav[57].startX 312m
param *.uav[57].startY 1262m
param *.uav[57].startZ 540m
param *.uav[58].startX 2185m
param *.uav[58].startY 3026m
param *.uav[58].startZ 778m
param *.uav[59].startX 3537m
param *.uav[59].startY 965m
param *.uav[59].startZ 539m
param *.uav[60].startX 3537m
param *.uav[60].startY 965m
param *.uav[60].startZ 539m
param *.uav[61].startX 312m
param *.uav[61].startY 1262m
param *.uav[61].startZ 540m
param *.uav[62].startX 2185m
param *.uav[62].startY 3026m
param *.uav[62].startZ 778m
param *.uav[63].startX 3537m
param *.uav[63].startY 965m
param *.uav[63].startZ 539m
param *.uav[64].startX 312m
param *.uav[64].startY 1262m
param *.uav[64].startZ 540m
param *.uav[65].startX 2185m
param *.uav[65].startY 3026m
param *.uav[65].startZ 778m
param *.uav[66].startX 3537m
param *.uav[66].startY 965m
param *.uav[66].startZ 539m
param *.uav[67].startX 312m
param *.uav[67].startY 1262m
param *.uav[67].startZ 540m
param *.uav[68].startX 2185m
param *.uav[68].startY 3026m
param *.uav[68].startZ 778m
param *.uav[69].startX 3537m
param *.uav[69].startY 965m
param *.uav[69].startZ 539m
param *.uav[70].startX 3537m
param *.uav[70].startY 965m
param *.uav[70].startZ 539m
param *.uav[71].startX 312m
param *.uav[71].startY 1262m
param *.uav[71].startZ 540m
param *.uav[72].startX 2185m
param *.uav[72].startY 3026m
param *.uav[72].startZ 778m
param *.uav[73].startX 3537m
param *.uav[73].startY 965m
param *.uav[73].startZ 539m
param *.uav[74].startX 312m
param *.uav[74].startY 1262m
param *.uav[74].startZ 540m
param *.uav[75].startX 2185m
param *.uav[75].startY 3026m
param *.uav[75].startZ 778m
param *.uav[76].startX 3537m
param *.uav[76].startY 965m
param *.uav[76].startZ 539m
param *.uav[77].startX 312m
param *.uav[77].startY 1262m
param *.uav[77].startZ 540m
param *.uav[78].startX 2185m
param *.uav[78].startY 3026m
param *.uav[78].startZ 778m
param *.uav[79].startX 3537m
param *.uav[79].startY 965m
param *.uav[79].startZ 539m
param *.uav[80].startX 3537m
param *.uav[80].startY 965m
param *.uav[80].startZ 539m
param *.uav[81].startX 312m
param *.uav[81].startY 1262m
param *.uav[81].startZ 540m
param *.uav[82].startX 2185m
param *.uav[82].startY 3026m
param *.uav[82].startZ 778m
param *.uav[83].startX 3537m
param *.uav[83].startY 965m
param *.uav[83].startZ 539m
param *.uav[84].startX 312m
param *.uav[84].startY 1262m
param *.uav[84].startZ 540m
param *.uav[85].startX 2185m
param *.uav[85].startY 3026m
param *.uav[85].startZ 778m
param *.uav[86].startX 3537m
param *.uav[86].startY 965m
param *.uav[86].startZ 539m
param *.uav[87].startX 312m
param *.uav[87].startY 1262m
param *.uav[87].startZ 540m
param *.uav[88].startX 2185m
param *.uav[88].startY 3026m
param *.uav[88].startZ 778m
param *.uav[89].startX 3537m
param *.uav[89].startY 965m
param *.uav[89].startZ 539m
param *.uav[90].startX 3537m
param *.uav[90].startY 965m
param *.uav[90].startZ 539m
param *.uav[91].startX 312m
param *.uav[91].startY 1262m
param *.uav[91].startZ 540m
param *.uav[92].startX 2185m
param *.uav[92].startY 3026m
param *.uav[92].startZ 778m
param *.uav[93].startX 3537m
param *.uav[93].startY 965m
param *.uav[93].startZ 539m
param *.uav[94].startX 312m
param *.uav[94].startY 1262m
param *.uav[94].startZ 540m
param *.uav[95].startX 2185m
param *.uav[95].startY 3026m
param *.uav[95].startZ 778m
param *.uav[96].startX 3537m
param *.uav[96].startY 965m
param *.uav[96].startZ 539m
param *.uav[97].startX 312m
param *.uav[97].startY 1262m
param *.uav[97].startZ 540m
param *.uav[98].startX 2185m
param *.uav[98].startY 3026m
param *.uav[98].startZ 778m
param *.uav[99].startX 3537m
param *.uav[99].startY 965m
param *.uav[99].startZ 539m
param *.osgEarthScene.scene "\"boston.earth\""
param *.playgroundLatitude 42.3558
param *.playgroundLongitude -71.0677
param *.playgroundWidth 400m
param *.playgroundHeight 200m
param *.channelController.connectionColor "\"#0000FF40\""
param *.channelController.showConnections false
param *.uav[*].modelURL "\"quadrocopter.small.obj.15.scale.0,0,90.rot\""
param *.uav[*].labelColor "\"#FF7C00CC\""
param *.uav[*].label2Color "\"#FF7C00EE\""
param *.uav[*].batteryCapacity 5200mAh
param *.uav[*].batteryRemaining uav[index].batteryCapacity
param *.uav[*].predictionQuantile 0.95
param *.uav[*].replacementMethod 2
param *.uav[*].weightedSumWeight 0.5
param *.cs[*].modelURL "\"chargingstation_v1.osgt.2.scale.0,0,0.rot.0,0,-15e-1.trans\""
param *.cs[*].spotsWaiting 999
param *.cs[*].spotsCharging 999
param *.cs[*].chargeEffectivenessPercentage 100
param *.cs[*].nonLinearPhaseStartPercentage 85
param *.cs[*].chargeCurrent 6.0A
param *.cs[*].prioritizeFastCharge true
param *.missionControl.replacementSearchMethod 0
param *.*.timeStep 9s

scalar OsgEarthNet.uav[0] utilizationSecMission 35093.128204186
scalar OsgEarthNet.uav[0] utilizationSecMaintenance 24005.143137112
scalar OsgEarthNet.uav[0] utilizationSecCharge 198000.21399775
scalar OsgEarthNet.uav[0] utilizationSecIdle 2101.5136609497
scalar OsgEarthNet.uav[0] utilizationEnergyMission 171237.34660339
scalar OsgEarthNet.uav[0] utilizationEnergyMaintenance 113727.45789719
scalar OsgEarthNet.uav[0] utilizationEnergyCharge 282264.36694336
scalar OsgEarthNet.uav[0] utilizationEnergyOverdrawMission 0
scalar OsgEarthNet.uav[0] utilizationEnergyOverdrawMaintenance 0
scalar OsgEarthNet.uav[0] utilizationCountMissions 64
scalar OsgEarthNet.uav[0] utilizationCountManeuversMission 1208
scalar OsgEarthNet.uav[0] utilizationCountManeuversMaintenance 128
scalar OsgEarthNet.uav[0] utilizationCountChargeState 64
scalar OsgEarthNet.uav[0] utilizationCountOverdrawnAfterMission 0
scalar OsgEarthNet.uav[0] utilizationCountIdleState 7
scalar OsgEarthNet.uav[0] utilizationFail 0
scalar OsgEarthNet.uav[0] simulationTime 259200
scalar OsgEarthNet.uav[1] utilizationSecMission 32919.338878689
scalar OsgEarthNet.uav[1] utilizationSecMaintenance 20445.539045442
scalar OsgEarthNet.uav[1] utilizationSecCharge 198543.12007587
scalar OsgEarthNet.uav[1] utilizationSecIdle 7292.001
scalar OsgEarthNet.uav[1] utilizationEnergyMission 160049.75735855
scalar OsgEarthNet.uav[1] utilizationEnergyMaintenance 97402.825298309
scalar OsgEarthNet.uav[1] utilizationEnergyCharge 253223.97436523
scalar OsgEarthNet.uav[1] utilizationEnergyOverdrawMission 0
scalar OsgEarthNet.uav[1] utilizationEnergyOverdrawMaintenance 0
scalar OsgEarthNet.uav[1] utilizationCountMissions 65
scalar OsgEarthNet.uav[1] utilizationCountManeuversMission 1012
scalar OsgEarthNet.uav[1] utilizationCountManeuversMaintenance 130
scalar OsgEarthNet.uav[1] utilizationCountChargeState 65
scalar OsgEarthNet.uav[1] utilizationCountOverdrawnAfterMission 0
scalar OsgEarthNet.uav[1] utilizationCountIdleState 37
scalar OsgEarthNet.uav[1] utilizationFail 0
scalar OsgEarthNet.uav[1] simulationTime 259200
scalar OsgEarthNet.uav[2] utilizationSecMission 38275.402487776
scalar OsgEarthNet.uav[2] utilizationSecMaintenance 16100.86432187
scalar OsgEarthNet.uav[2] utilizationSecCharge 195311.73019035
scalar OsgEarthNet.uav[2] utilizationSecIdle 9512.002
scalar OsgEarthNet.uav[2] utilizationEnergyMission 186218.12106323
scalar OsgEarthNet.uav[2] utilizationEnergyMaintenance 74451.179851532
scalar OsgEarthNet.uav[2] utilizationEnergyCharge 260283.98681641
scalar OsgEarthNet.uav[2] utilizationEnergyOverdrawMission 0
scalar OsgEarthNet.uav[2] utilizationEnergyOverdrawMaintenance 0
scalar OsgEarthNet.uav[2] utilizationCountMissions 57
scalar OsgEarthNet.uav[2] utilizationCountManeuversMission 1354
scalar OsgEarthNet.uav[2] utilizationCountManeuversMaintenance 114
scalar OsgEarthNet.uav[2] utilizationCountChargeState 57
scalar OsgEarthNet.uav[2] utilizationCountOverdrawnAfterMission 0
scalar OsgEarthNet.uav[2] utilizationCountIdleState 39
scalar OsgEarthNet.uav[2] utilizationFail 0
scalar OsgEarthNet.uav[2] simulationTime 259200
scalar OsgEarthNet.uav[3] utilizationSecMission 39167.488131683
scalar OsgEarthNet.uav[3] utilizationSecMaintenance 15501.173483408
scalar OsgEarthNet.uav[3] utilizationSecCharge 193664.02274958
scalar OsgEarthNet.uav[3] utilizationSecIdle 10867.314635332
scalar OsgEarthNet.uav[3] utilizationEnergyMission 188137.6542778
scalar OsgEarthNet.uav[3] utilizationEnergyMaintenance 70850.966091156
scalar OsgEarthNet.uav[3] utilizationEnergyCharge 258221.48339844
scalar OsgEarthNet.uav[3] utilizationEnergyOverdrawMission 0
scalar OsgEarthNet.uav[3] utilizationEnergyOverdrawMaintenance 0
scalar OsgEarthNet.uav[3] utilizationCountMissions 56
scalar OsgEarthNet.uav[3] utilizationCountManeuversMission 1230
scalar OsgEarthNet.uav[3] utilizationCountManeuversMaintenance 112
scalar OsgEarthNet.uav[3] utilizationCountChargeState 56
scalar OsgEarthNet.uav[3] utilizationCountOverdrawnAfterMission 0
scalar OsgEarthNet.uav[3] utilizationCountIdleState 38
scalar OsgEarthNet.uav[3] utilizationFail 0
scalar OsgEarthNet.uav[3] simulationTime 259200
scalar OsgEarthNet.uav[4] utilizationSecMission 34855.462720718
scalar OsgEarthNet.uav[4] utilizationSecMaintenance 18830.971192159
scalar OsgEarthNet.uav[4] utilizationSecCharge 196360
scalar OsgEarthNet.uav[4] utilizationSecIdle 9153.5650871236
scalar OsgEarthNet.uav[4] utilizationEnergyMission 165269.95999146
scalar OsgEarthNet.uav[4] utilizationEnergyMaintenance 88706.574836731
scalar OsgEarthNet.uav[4] utilizationEnergyCharge 255238.41308594
scalar OsgEarthNet.uav[4] utilizationEnergyOverdrawMission 0
scalar OsgEarthNet.uav[4] utilizationEnergyOverdrawMaintenance 0
scalar OsgEarthNet.uav[4] utilizationCountMissions 61
scalar OsgEarthNet.uav[4] utilizationCountManeuversMission 1002
scalar OsgEarthNet.uav[4] utilizationCountManeuversMaintenance 122
scalar OsgEarthNet.uav[4] utilizationCountChargeState 61
scalar OsgEarthNet.uav[4] utilizationCountOverdrawnAfterMission 0
scalar OsgEarthNet.uav[4] utilizationCountIdleState 32
scalar OsgEarthNet.uav[4] utilizationFail 0
scalar OsgEarthNet.uav[4] simulationTime 259200
scalar OsgEarthNet.uav[5] utilizationSecMission 38169.035982872
scalar OsgEarthNet.uav[5] utilizationSecMaintenance 16501.743403213
scalar OsgEarthNet.uav[5] utilizationSecCharge 196070
scalar OsgEarthNet.uav[5] utilizationSecIdle 8459.2196139157
scalar OsgEarthNet.uav[5] utilizationEnergyMission 187711.11894808
scalar OsgEarthNet.uav[5] utilizationEnergyMaintenance 76384.063289642
scalar OsgEarthNet.uav[5] utilizationEnergyCharge 260627.19775391
scalar OsgEarthNet.uav[5] utilizationEnergyOverdrawMission 0
scalar OsgEarthNet.uav[5] utilizationEnergyOverdrawMaintenance 0
scalar OsgEarthNet.uav[5] utilizationCountMissions 57
scalar OsgEarthNet.uav[5] utilizationCountManeuversMission 1347
scalar OsgEarthNet.uav[5] utilizationCountManeuversMaintenance 115
scalar OsgEarthNet.uav[5] utilizationCountChargeState 57
scalar OsgEarthNet.uav[5] utilizationCountOverdrawnAfterMission 0
scalar OsgEarthNet.uav[5] utilizationCountIdleState 38
scalar OsgEarthNet.uav[5] utilizationFail 0
scalar OsgEarthNet.uav[5] simulationTime 259200
scalar OsgEarthNet.uav[6] utilizationSecMission 36744.111699368
scalar OsgEarthNet.uav[6] utilizationSecMaintenance 21533.883300632
scalar OsgEarthNet.uav[6] utilizationSecCharge 196610
scalar OsgEarthNet.uav[6] utilizationSecIdle 4312.004
scalar OsgEarthNet.uav[6] utilizationEnergyMission 175461.93426648
scalar OsgEarthNet.uav[6] utilizationEnergyMaintenance 102373.20842743
scalar OsgEarthNet.uav[6] utilizationEnergyCharge 277534.62695312
scalar OsgEarthNet.uav[6] utilizationEnergyOverdrawMission 0
scalar OsgEarthNet.uav[6] utilizationEnergyOverdrawMaintenance 0
scalar OsgEarthNet.uav[6] utilizationCountMissions 62
scalar OsgEarthNet.uav[6] utilizationCountManeuversMission 1083
scalar OsgEarthNet.uav[6] utilizationCountManeuversMaintenance 125
scalar OsgEarthNet.uav[6] utilizationCountChargeState 62
scalar OsgEarthNet.uav[6] utilizationCountOverdrawnAfterMission 0
scalar OsgEarthNet.uav[6] utilizationCountIdleState 12
scalar OsgEarthNet.uav[6] utilizationFail 0
scalar OsgEarthNet.uav[6] simulationTime 259200
scalar OsgEarthNet.uav[7] utilizationSecMission 33753.526401742
scalar OsgEarthNet.uav[7] utilizationSecMaintenance 19709.441607429
scalar OsgEarthNet.uav[7] utilizationSecCharge 197565.02899083
scalar OsgEarthNet.uav[7] utilizationSecIdle 8172.002
scalar OsgEarthNet.uav[7] utilizationEnergyMission 163446.35549164
scalar OsgEarthNet.uav[7] utilizationEnergyMaintenance 93588.144733429
scalar OsgEarthNet.uav[7] utilizationEnergyCharge 257499.05786133
scalar OsgEarthNet.uav[7] utilizationEnergyOverdrawMission 0
scalar OsgEarthNet.uav[7] utilizationEnergyOverdrawMaintenance 0
scalar OsgEarthNet.uav[7] utilizationCountMissions 62
scalar OsgEarthNet.uav[7] utilizationCountManeuversMission 1064
scalar OsgEarthNet.uav[7] utilizationCountManeuversMaintenance 124
scalar OsgEarthNet.uav[7] utilizationCountChargeState 62
scalar OsgEarthNet.uav[7] utilizationCountOverdrawnAfterMission 0
scalar OsgEarthNet.uav[7] utilizationCountIdleState 35
scalar OsgEarthNet.uav[7] utilizationFail 0
scalar OsgEarthNet.uav[7] simulationTime 259200
scalar OsgEarthNet.uav[8] utilizationSecMission 38958.850817869
scalar OsgEarthNet.uav[8] utilizationSecMaintenance 15392.840612814
scalar OsgEarthNet.uav[8] utilizationSecCharge 193945.6049016
scalar OsgEarthNet.uav[8] utilizationSecIdle 10902.702667718
scalar OsgEarthNet.uav[8] utilizationEnergyMission 188552.54760742
scalar OsgEarthNet.uav[8] utilizationEnergyMaintenance 70613.21987915
scalar OsgEarthNet.uav[8] utilizationEnergyCharge 258998.40917969
scalar OsgEarthNet.uav[8] utilizationEnergyOverdrawMission 0
scalar OsgEarthNet.uav[8] utilizationEnergyOverdrawMaintenance 0
scalar OsgEarthNet.uav[8] utilizationCountMissions 56
scalar OsgEarthNet.uav[8] utilizationCountManeuversMission 1183
scalar OsgEarthNet.uav[8] utilizationCountManeuversMaintenance 112
scalar OsgEarthNet.uav[8] utilizationCountChargeState 56
scalar OsgEarthNet.uav[8] utilizationCountOverdrawnAfterMission 0
scalar OsgEarthNet.uav[8] utilizationCountIdleState 36
scalar OsgEarthNet.uav[8] utilizationFail 0
scalar OsgEarthNet.uav[8] simulationTime 259200
scalar OsgEarthNet.uav[9] utilizationSecMission 34324.766349004
scalar OsgEarthNet.uav[9] utilizationSecMaintenance 19869.517421581
scalar OsgEarthNet.uav[9] utilizationSecCharge 194143.70822942
scalar OsgEarthNet.uav[9] utilizationSecIdle 10862.007
scalar OsgEarthNet.uav[9] utilizationEnergyMission 165654.4933548
scalar OsgEarthNet.uav[9] utilizationEnergyMaintenance 94464.124980926
scalar OsgEarthNet.uav[9] utilizationEnergyCharge 256131.69592285
scalar OsgEarthNet.uav[9] utilizationEnergyOverdrawMission 0
scalar OsgEarthNet.uav[9] utilizationEnergyOverdrawMaintenance 0
scalar OsgEarthNet.uav[9] utilizationCountMissions 61
scalar OsgEarthNet.uav[9] utilizationCountManeuversMission 1011
scalar OsgEarthNet.uav[9] utilizationCountManeuversMaintenance 122
scalar OsgEarthNet.uav[9] utilizationCountChargeState 61
scalar OsgEarthNet.uav[9] utilizationCountOverdrawnAfterMission 0
scalar OsgEarthNet.uav[9] utilizationCountIdleState 33
scalar OsgEarthNet.uav[9] utilizationFail 0
scalar OsgEarthNet.uav[9] simulationTime 259200
scalar OsgEarthNet.uav[10] utilizationSecMission 34280.994707695
scalar OsgEarthNet.uav[10] utilizationSecMaintenance 24616.205722529
scalar OsgEarthNet.uav[10] utilizationSecCharge 194320.78856978
scalar OsgEarthNet.uav[10] utilizationSecIdle 5982.01
scalar OsgEarthNet.uav[10] utilizationEnergyMission 169163.6607666
scalar OsgEarthNet.uav[10] utilizationEnergyMaintenance 117128.26913452
scalar OsgEarthNet.uav[10] utilizationEnergyCharge 282281.3972168
scalar OsgEarthNet.uav[10] utilizationEnergyOverdrawMission 0
scalar OsgEarthNet.uav[10] utilizationEnergyOverdrawMaintenance 0
scalar OsgEarthNet.uav[10] utilizationCountMissions 64
scalar OsgEarthNet.uav[10] utilizationCountManeuversMission 1250
scalar OsgEarthNet.uav[10] utilizationCountManeuversMaintenance 128
scalar OsgEarthNet.uav[10] utilizationCountChargeState 64
scalar OsgEarthNet.uav[10] utilizationCountOverdrawnAfterMission 0
scalar OsgEarthNet.uav[10] utilizationCountIdleState 9
scalar OsgEarthNet.uav[10] utilizationFail 0
scalar OsgEarthNet.uav[10] simulationTime 259200
scalar OsgEarthNet.uav[11] utilizationSecMission 33362.783495978
scalar OsgEarthNet.uav[11] utilizationSecMaintenance 19502.487797865
scalar OsgEarthNet.uav[11] utilizationSecCharge 197646.37410328
scalar OsgEarthNet.uav[11] utilizationSecIdle 8688.3536028792
scalar OsgEarthNet.uav[11] utilizationEnergyMission 159288.38168335
scalar OsgEarthNet.uav[11] utilizationEnergyMaintenance 92404.116985321
scalar OsgEarthNet.uav[11] utilizationEnergyCharge 251607.98754883
scalar OsgEarthNet.uav[11] utilizationEnergyOverdrawMission 0
scalar OsgEarthNet.uav[11] utilizationEnergyOverdrawMaintenance 0
scalar OsgEarthNet.uav[11] utilizationCountMissions 64
scalar OsgEarthNet.uav[11] utilizationCountManeuversMission 932
scalar OsgEarthNet.uav[11] utilizationCountManeuversMaintenance 128
scalar OsgEarthNet.uav[11] utilizationCountChargeState 64
scalar OsgEarthNet.uav[11] utilizationCountOverdrawnAfterMission 0
scalar OsgEarthNet.uav[11] utilizationCountIdleState 34
scalar OsgEarthNet.uav[11] utilizationFail 0
scalar OsgEarthNet.uav[11] simulationTime 259200
scalar OsgEarthNet.uav[12] utilizationSecMission 37997.72316702
scalar OsgEarthNet.uav[12] utilizationSecMaintenance 16856.742193459
scalar OsgEarthNet.uav[12] utilizationSecCharge 195986.35852911
scalar OsgEarthNet.uav[12] utilizationSecIdle 8359.1751104107
scalar OsgEarthNet.uav[12] utilizationEnergyMission 187730.29579544
scalar OsgEarthNet.uav[12] utilizationEnergyMaintenance 78187.748310089
scalar OsgEarthNet.uav[12] utilizationEnergyCharge 261111.52001953
scalar OsgEarthNet.uav[12] utilizationEnergyOverdrawMission 0
scalar OsgEarthNet.uav[12] utilizationEnergyOverdrawMaintenance 0
scalar OsgEarthNet.uav[12] utilizationCountMissions 58
scalar OsgEarthNet.uav[12] utilizationCountManeuversMission 1239
scalar OsgEarthNet.uav[12] utilizationCountManeuversMaintenance 116
scalar OsgEarthNet.uav[12] utilizationCountChargeState 58
scalar OsgEarthNet.uav[12] utilizationCountOverdrawnAfterMission 0
scalar OsgEarthNet.uav[12] utilizationCountIdleState 36
scalar OsgEarthNet.uav[12] utilizationFail 0
scalar OsgEarthNet.uav[12] simulationTime 259200
scalar OsgEarthNet.uav[13] utilizationSecMission 35160.364930917
scalar OsgEarthNet.uav[13] utilizationSecMaintenance 23926.793919136
scalar OsgEarthNet.uav[13] utilizationSecCharge 199490.84014995
scalar OsgEarthNet.uav[13] utilizationSecIdle 622
scalar OsgEarthNet.uav[13] utilizationEnergyMission 170591.57201767
scalar OsgEarthNet.uav[13] utilizationEnergyMaintenance 114126.25137329
scalar OsgEarthNet.uav[13] utilizationEnergyCharge 286594.43359375
scalar OsgEarthNet.uav[13] utilizationEnergyOverdrawMission 0
scalar OsgEarthNet.uav[13] utilizationEnergyOverdrawMaintenance 0
scalar OsgEarthNet.uav[13] utilizationCountMissions 64
scalar OsgEarthNet.uav[13] utilizationCountManeuversMission 1204
scalar OsgEarthNet.uav[13] utilizationCountManeuversMaintenance 127
scalar OsgEarthNet.uav[13] utilizationCountChargeState 64
scalar OsgEarthNet.uav[13] utilizationCountOverdrawnAfterMission 0
scalar OsgEarthNet.uav[13] utilizationCountIdleState 4
scalar OsgEarthNet.uav[13] utilizationFail 0
scalar OsgEarthNet.uav[13] simulationTime 259200
scalar OsgEarthNet.uav[14] utilizationSecMission 38339.613209019
scalar OsgEarthNet.uav[14] utilizationSecMaintenance 15447.032559743
scalar OsgEarthNet.uav[14] utilizationSecCharge 191650
scalar OsgEarthNet.uav[14] utilizationSecIdle 13763.353231238
scalar OsgEarthNet.uav[14] utilizationEnergyMission 183294.65560946
scalar OsgEarthNet.uav[14] utilizationEnergyMaintenance 72074.719303131
scalar OsgEarthNet.uav[14] utilizationEnergyCharge 255386.10839844
scalar OsgEarthNet.uav[14] utilizationEnergyOverdrawMission 0
scalar OsgEarthNet.uav[14] utilizationEnergyOverdrawMaintenance 0
scalar OsgEarthNet.uav[14] utilizationCountMissions 55
scalar OsgEarthNet.uav[14] utilizationCountManeuversMission 1180
scalar OsgEarthNet.uav[14] utilizationCountManeuversMaintenance 111
scalar OsgEarthNet.uav[14] utilizationCountChargeState 55
scalar OsgEarthNet.uav[14] utilizationCountOverdrawnAfterMission 0
scalar OsgEarthNet.uav[14] utilizationCountIdleState 33
scalar OsgEarthNet.uav[14] utilizationFail 0
scalar OsgEarthNet.uav[14] simulationTime 259200
scalar OsgEarthNet.uav[15] utilizationSecMission 38709.677205339
scalar OsgEarthNet.uav[15] utilizationSecMaintenance 15589.596149842
scalar OsgEarthNet.uav[15] utilizationSecCharge 194270
scalar OsgEarthNet.uav[15] utilizationSecIdle 10630.72564482
scalar OsgEarthNet.uav[15] utilizationEnergyMission 187224.9682374
scalar OsgEarthNet.uav[15] utilizationEnergyMaintenance 71169.336975098
scalar OsgEarthNet.uav[15] utilizationEnergyCharge 257496.73144531
scalar OsgEarthNet.uav[15] utilizationEnergyOverdrawMission 0
scalar OsgEarthNet.uav[15] utilizationEnergyOverdrawMaintenance 0
scalar OsgEarthNet.uav[15] utilizationCountMissions 56
scalar OsgEarthNet.uav[15] utilizationCountManeuversMission 1145
scalar OsgEarthNet.uav[15] utilizationCountManeuversMaintenance 111
scalar OsgEarthNet.uav[15] utilizationCountChargeState 56
scalar OsgEarthNet.uav[15] utilizationCountOverdrawnAfterMission 0
scalar OsgEarthNet.uav[15] utilizationCountIdleState 44
scalar OsgEarthNet.uav[15] utilizationFail 0
scalar OsgEarthNet.uav[15] simulationTime 259200
scalar OsgEarthNet.uav[16] utilizationSecMission 38709.998464251
scalar OsgEarthNet.uav[16] utilizationSecMaintenance 16095.608708409
scalar OsgEarthNet.uav[16] utilizationSecCharge 194822.39182734
scalar OsgEarthNet.uav[16] utilizationSecIdle 9572
scalar OsgEarthNet.uav[16] utilizationEnergyMission 188342.08163071
scalar OsgEarthNet.uav[16] utilizationEnergyMaintenance 73495.832668304
scalar OsgEarthNet.uav[16] utilizationEnergyCharge 261300.45532227
scalar OsgEarthNet.uav[16] utilizationEnergyOverdrawMission 0
scalar OsgEarthNet.uav[16] utilizationEnergyOverdrawMaintenance 0
scalar OsgEarthNet.uav[16] utilizationCountMissions 57
scalar OsgEarthNet.uav[16] utilizationCountManeuversMission 1226
scalar OsgEarthNet.uav[16] utilizationCountManeuversMaintenance 113
scalar OsgEarthNet.uav[16] utilizationCountChargeState 57
scalar OsgEarthNet.uav[16] utilizationCountOverdrawnAfterMission 0
scalar OsgEarthNet.uav[16] utilizationCountIdleState 36
scalar OsgEarthNet.uav[16] utilizationFail 0
scalar OsgEarthNet.uav[16] simulationTime 259200
scalar OsgEarthNet.uav[17] utilizationSecMission 34630.357224629
scalar OsgEarthNet.uav[17] utilizationSecMaintenance 18952.653884327
scalar OsgEarthNet.uav[17] utilizationSecCharge 198234.98789104
scalar OsgEarthNet.uav[17] utilizationSecIdle 7382
scalar OsgEarthNet.uav[17] utilizationEnergyMission 164508.60536194
scalar OsgEarthNet.uav[17] utilizationEnergyMaintenance 90712.988594055
scalar OsgEarthNet.uav[17] utilizationEnergyCharge 257305.47460938
scalar OsgEarthNet.uav[17] utilizationEnergyOverdrawMission 0
scalar OsgEarthNet.uav[17] utilizationEnergyOverdrawMaintenance 0
scalar OsgEarthNet.uav[17] utilizationCountMissions 62
scalar OsgEarthNet.uav[17] utilizationCountManeuversMission 995
scalar OsgEarthNet.uav[17] utilizationCountManeuversMaintenance 123
scalar OsgEarthNet.uav[17] utilizationCountChargeState 62
scalar OsgEarthNet.uav[17] utilizationCountOverdrawnAfterMission 0
scalar OsgEarthNet.uav[17] utilizationCountIdleState 34
scalar OsgEarthNet.uav[17] utilizationFail 0
scalar OsgEarthNet.uav[17] simulationTime 259200
scalar OsgEarthNet.uav[18] utilizationSecMission 35157.652909216
scalar OsgEarthNet.uav[18] utilizationSecMaintenance 22216.073756065
scalar OsgEarthNet.uav[18] utilizationSecCharge 195206.64125405
scalar OsgEarthNet.uav[18] utilizationSecIdle 6619.6310806652
scalar OsgEarthNet.uav[18] utilizationEnergyMission 172771.9155426
scalar OsgEarthNet.uav[18] utilizationEnergyMaintenance 105141.89981842
scalar OsgEarthNet.uav[18] utilizationEnergyCharge 274017.69885254
scalar OsgEarthNet.uav[18] utilizationEnergyOverdrawMission 0
scalar OsgEarthNet.uav[18] utilizationEnergyOverdrawMaintenance 0
scalar OsgEarthNet.uav[18] utilizationCountMissions 62
scalar OsgEarthNet.uav[18] utilizationCountManeuversMission 1152
scalar OsgEarthNet.uav[18] utilizationCountManeuversMaintenance 124
scalar OsgEarthNet.uav[18] utilizationCountChargeState 62
scalar OsgEarthNet.uav[18] utilizationCountOverdrawnAfterMission 0
scalar OsgEarthNet.uav[18] utilizationCountIdleState 18
scalar OsgEarthNet.uav[18] utilizationFail 0
scalar OsgEarthNet.uav[18] simulationTime 259200
scalar OsgEarthNet.uav[19] utilizationSecMission 31631.905588893
scalar OsgEarthNet.uav[19] utilizationSecMaintenance 20407.315122023
scalar OsgEarthNet.uav[19] utilizationSecCharge 196376.61451618
scalar OsgEarthNet.uav[19] utilizationSecIdle 10784.163772908
scalar OsgEarthNet.uav[19] utilizationEnergyMission 151212.90506363
scalar OsgEarthNet.uav[19] utilizationEnergyMaintenance 96226.540287018
scalar OsgEarthNet.uav[19] utilizationEnergyCharge 245548.04370117
scalar OsgEarthNet.uav[19] utilizationEnergyOverdrawMission 0
scalar OsgEarthNet.uav[19] utilizationEnergyOverdrawMaintenance 0
scalar OsgEarthNet.uav[19] utilizationCountMissions 66
scalar OsgEarthNet.uav[19] utilizationCountManeuversMission 876
scalar OsgEarthNet.uav[19] utilizationCountManeuversMaintenance 132
scalar OsgEarthNet.uav[19] utilizationCountChargeState 66
scalar OsgEarthNet.uav[19] utilizationCountOverdrawnAfterMission 0
scalar OsgEarthNet.uav[19] utilizationCountIdleState 38
scalar OsgEarthNet.uav[19] utilizationFail 0
scalar OsgEarthNet.uav[19] simulationTime 259200
scalar OsgEarthNet.uav[20] utilizationSecMission 37821.906104901
scalar OsgEarthNet.uav[20] utilizationSecMaintenance 15712.539111028
scalar OsgEarthNet.uav[20] utilizationSecCharge 191233.56204798
scalar OsgEarthNet.uav[20] utilizationSecIdle 14431.991736092
scalar OsgEarthNet.uav[20] utilizationEnergyMission 186435.00193787
scalar OsgEarthNet.uav[20] utilizationEnergyMaintenance 73050.159507752
scalar OsgEarthNet.uav[20] utilizationEnergyCharge 254511.50292969
scalar OsgEarthNet.uav[20] utilizationEnergyOverdrawMission 0
scalar OsgEarthNet.uav[20] utilizationEnergyOverdrawMaintenance 0
scalar OsgEarthNet.uav[20] utilizationCountMissions 56
scalar OsgEarthNet.uav[20] utilizationCountManeuversMission 1352
scalar OsgEarthNet.uav[20] utilizationCountManeuversMaintenance 112
scalar OsgEarthNet.uav[20] utilizationCountChargeState 56
scalar OsgEarthNet.uav[20] utilizationCountOverdrawnAfterMission 0
scalar OsgEarthNet.uav[20] utilizationCountIdleState 40
scalar OsgEarthNet.uav[20] utilizationFail 0
scalar OsgEarthNet.uav[20] simulationTime 259200
scalar OsgEarthNet.uav[21] utilizationSecMission 35089.900312406
scalar OsgEarthNet.uav[21] utilizationSecMaintenance 18904.484190742
scalar OsgEarthNet.uav[21] utilizationSecCharge 197333.61149685
scalar OsgEarthNet.uav[21] utilizationSecIdle 7872.003
scalar OsgEarthNet.uav[21] utilizationEnergyMission 170396.12857437
scalar OsgEarthNet.uav[21] utilizationEnergyMaintenance 88114.016395569
scalar OsgEarthNet.uav[21] utilizationEnergyCharge 256857.98974609
scalar OsgEarthNet.uav[21] utilizationEnergyOverdrawMission 0
scalar OsgEarthNet.uav[21] utilizationEnergyOverdrawMaintenance 0
scalar OsgEarthNet.uav[21] utilizationCountMissions 62
scalar OsgEarthNet.uav[21] utilizationCountManeuversMission 1128
scalar OsgEarthNet.uav[21] utilizationCountManeuversMaintenance 124
scalar OsgEarthNet.uav[21] utilizationCountChargeState 62
scalar OsgEarthNet.uav[21] utilizationCountOverdrawnAfterMission 0
scalar OsgEarthNet.uav[21] utilizationCountIdleState 34
scalar OsgEarthNet.uav[21] utilizationFail 0
scalar OsgEarthNet.uav[21] simulationTime 259200
scalar OsgEarthNet.uav[22] utilizationSecMission 37524.575664833
scalar OsgEarthNet.uav[22] utilizationSecMaintenance 18345.683705902
scalar OsgEarthNet.uav[22] utilizationSecCharge 194727.73662926
scalar OsgEarthNet.uav[22] utilizationSecIdle 8602.003
scalar OsgEarthNet.uav[22] utilizationEnergyMission 182272.09915924
scalar OsgEarthNet.uav[22] utilizationEnergyMaintenance 86322.670810699
scalar OsgEarthNet.uav[22] utilizationEnergyCharge 265910.69604492
scalar OsgEarthNet.uav[22] utilizationEnergyOverdrawMission 0
scalar OsgEarthNet.uav[22] utilizationEnergyOverdrawMaintenance 0
scalar OsgEarthNet.uav[22] utilizationCountMissions 59
scalar OsgEarthNet.uav[22] utilizationCountManeuversMission 1203
scalar OsgEarthNet.uav[22] utilizationCountManeuversMaintenance 118
scalar OsgEarthNet.uav[22] utilizationCountChargeState 59
scalar OsgEarthNet.uav[22] utilizationCountOverdrawnAfterMission 0
scalar OsgEarthNet.uav[22] utilizationCountIdleState 29
scalar OsgEarthNet.uav[22] utilizationFail 0
scalar OsgEarthNet.uav[22] simulationTime 259200
scalar OsgEarthNet.uav[23] utilizationSecMission 38923.18232792
scalar OsgEarthNet.uav[23] utilizationSecMaintenance 15454.379114724
scalar OsgEarthNet.uav[23] utilizationSecCharge 192530.29281741
scalar OsgEarthNet.uav[23] utilizationSecIdle 12292.144739949
scalar OsgEarthNet.uav[23] utilizationEnergyMission 188703.48226547
scalar OsgEarthNet.uav[23] utilizationEnergyMaintenance 71501.309185028
scalar OsgEarthNet.uav[23] utilizationEnergyCharge 255316.38818359
scalar OsgEarthNet.uav[23] utilizationEnergyOverdrawMission 0
scalar OsgEarthNet.uav[23] utilizationEnergyOverdrawMaintenance 0
scalar OsgEarthNet.uav[23] utilizationCountMissions 56
scalar OsgEarthNet.uav[23] utilizationCountManeuversMission 1188
scalar OsgEarthNet.uav[23] utilizationCountManeuversMaintenance 112
scalar OsgEarthNet.uav[23] utilizationCountChargeState 56
scalar OsgEarthNet.uav[23] utilizationCountOverdrawnAfterMission 0
scalar OsgEarthNet.uav[23] utilizationCountIdleState 40
scalar OsgEarthNet.uav[23] utilizationFail 0
scalar OsgEarthNet.uav[23] simulationTime 259200
scalar OsgEarthNet.uav[24] utilizationSecMission 35978.837057607
scalar OsgEarthNet.uav[24] utilizationSecMaintenance 18539.155942393
scalar OsgEarthNet.uav[24] utilizationSecCharge 194250
scalar OsgEarthNet.uav[24] utilizationSecIdle 10432.006
scalar OsgEarthNet.uav[24] utilizationEnergyMission 173562.75978088
scalar OsgEarthNet.uav[24] utilizationEnergyMaintenance 87689.965606008
scalar OsgEarthNet.uav[24] utilizationEnergyCharge 256946.52661133
scalar OsgEarthNet.uav[24] utilizationEnergyOverdrawMission 0
scalar OsgEarthNet.uav[24] utilizationEnergyOverdrawMaintenance 0
scalar OsgEarthNet.uav[24] utilizationCountMissions 59
scalar OsgEarthNet.uav[24] utilizationCountManeuversMission 1059
scalar OsgEarthNet.uav[24] utilizationCountManeuversMaintenance 118
scalar OsgEarthNet.uav[24] utilizationCountChargeState 58
scalar OsgEarthNet.uav[24] utilizationCountOverdrawnAfterMission 0
scalar OsgEarthNet.uav[24] utilizationCountIdleState 31
scalar OsgEarthNet.uav[24] utilizationFail 0
scalar OsgEarthNet.uav[24] simulationTime 259200
scalar OsgEarthNet.uav[25] utilizationSecMission 38410.447689756
scalar OsgEarthNet.uav[25] utilizationSecMaintenance 16687.551310244
scalar OsgEarthNet.uav[25] utilizationSecCharge 195560
scalar OsgEarthNet.uav[25] utilizationSecIdle 8542
scalar OsgEarthNet.uav[25] utilizationEnergyMission 187984.61216496
scalar OsgEarthNet.uav[25] utilizationEnergyMaintenance 76453.449245453
scalar OsgEarthNet.uav[25] utilizationEnergyCharge 260673.55566406
scalar OsgEarthNet.uav[25] utilizationEnergyOverdrawMission 0
scalar OsgEarthNet.uav[25] utilizationEnergyOverdrawMaintenance 0
scalar OsgEarthNet.uav[25] utilizationCountMissions 57
scalar OsgEarthNet.uav[25] utilizationCountManeuversMission 1292
scalar OsgEarthNet.uav[25] utilizationCountManeuversMaintenance 115
scalar OsgEarthNet.uav[25] utilizationCountChargeState 57
scalar OsgEarthNet.uav[25] utilizationCountOverdrawnAfterMission 0
scalar OsgEarthNet.uav[25] utilizationCountIdleState 34
scalar OsgEarthNet.uav[25] utilizationFail 0
scalar OsgEarthNet.uav[25] simulationTime 259200
scalar OsgEarthNet.uav[26] utilizationSecMission 36766.395858213
scalar OsgEarthNet.uav[26] utilizationSecMaintenance 17602.653886123
scalar OsgEarthNet.uav[26] utilizationSecCharge 194850
scalar OsgEarthNet.uav[26] utilizationSecIdle 9980.9492556647
scalar OsgEarthNet.uav[26] utilizationEnergyMission 179176.66837401
scalar OsgEarthNet.uav[26] utilizationEnergyMaintenance 80680.154277802
scalar OsgEarthNet.uav[26] utilizationEnergyCharge 259569.34179688
scalar OsgEarthNet.uav[26] utilizationEnergyOverdrawMission 0
scalar OsgEarthNet.uav[26] utilizationEnergyOverdrawMaintenance 0
scalar OsgEarthNet.uav[26] utilizationCountMissions 57
scalar OsgEarthNet.uav[26] utilizationCountManeuversMission 1252
scalar OsgEarthNet.uav[26] utilizationCountManeuversMaintenance 115
scalar OsgEarthNet.uav[26] utilizationCountChargeState 57
scalar OsgEarthNet.uav[26] utilizationCountOverdrawnAfterMission 0
scalar OsgEarthNet.uav[26] utilizationCountIdleState 34
scalar OsgEarthNet.uav[26] utilizationFail 0
scalar OsgEarthNet.uav[26] simulationTime 259200
scalar OsgEarthNet.uav[27] utilizationSecMission 34982.060454097
scalar OsgEarthNet.uav[27] utilizationSecMaintenance 18943.959193741
scalar OsgEarthNet.uav[27] utilizationSecCharge 196863.01536649
scalar OsgEarthNet.uav[27] utilizationSecIdle 8410.9639856735
scalar OsgEarthNet.uav[27] utilizationEnergyMission 169229.05583191
scalar OsgEarthNet.uav[27] utilizationEnergyMaintenance 89729.652931213
scalar OsgEarthNet.uav[27] utilizationEnergyCharge 255555.93457031
scalar OsgEarthNet.uav[27] utilizationEnergyOverdrawMission 0
scalar OsgEarthNet.uav[27] utilizationEnergyOverdrawMaintenance 0
scalar OsgEarthNet.uav[27] utilizationCountMissions 61
scalar OsgEarthNet.uav[27] utilizationCountManeuversMission 1016
scalar OsgEarthNet.uav[27] utilizationCountManeuversMaintenance 122
scalar OsgEarthNet.uav[27] utilizationCountChargeState 61
scalar OsgEarthNet.uav[27] utilizationCountOverdrawnAfterMission 0
scalar OsgEarthNet.uav[27] utilizationCountIdleState 36
scalar OsgEarthNet.uav[27] utilizationFail 0
scalar OsgEarthNet.uav[27] simulationTime 259200
scalar OsgEarthNet.uav[28] utilizationSecMission 38402.835438462
scalar OsgEarthNet.uav[28] utilizationSecMaintenance 16087.248418991
scalar OsgEarthNet.uav[28] utilizationSecCharge 193480
scalar OsgEarthNet.uav[28] utilizationSecIdle 11229.915142547
scalar OsgEarthNet.uav[28] utilizationEnergyMission 184359.71585898
scalar OsgEarthNet.uav[28] utilizationEnergyMaintenance 73749.198955536
scalar OsgEarthNet.uav[28] utilizationEnergyCharge 258073.20263672
scalar OsgEarthNet.uav[28] utilizationEnergyOverdrawMission 0
scalar OsgEarthNet.uav[28] utilizationEnergyOverdrawMaintenance 0
scalar OsgEarthNet.uav[28] utilizationCountMissions 56
scalar OsgEarthNet.uav[28] utilizationCountManeuversMission 1202
scalar OsgEarthNet.uav[28] utilizationCountManeuversMaintenance 113
scalar OsgEarthNet.uav[28] utilizationCountChargeState 56
scalar OsgEarthNet.uav[28] utilizationCountOverdrawnAfterMission 0
scalar OsgEarthNet.uav[28] utilizationCountIdleState 34
scalar OsgEarthNet.uav[28] utilizationFail 0
scalar OsgEarthNet.uav[28] simulationTime 259200
scalar OsgEarthNet.uav[29] utilizationSecMission 34845.928702754
scalar OsgEarthNet.uav[29] utilizationSecMaintenance 17918.789780316
scalar OsgEarthNet.uav[29] utilizationSecCharge 196090
scalar OsgEarthNet.uav[29] utilizationSecIdle 10345.28051693
scalar OsgEarthNet.uav[29] utilizationEnergyMission 166517.84494781
scalar OsgEarthNet.uav[29] utilizationEnergyMaintenance 86192.522052765
scalar OsgEarthNet.uav[29] utilizationEnergyCharge 252591.14233398
scalar OsgEarthNet.uav[29] utilizationEnergyOverdrawMission 0
scalar OsgEarthNet.uav[29] utilizationEnergyOverdrawMaintenance 0
scalar OsgEarthNet.uav[29] utilizationCountMissions 61
scalar OsgEarthNet.uav[29] utilizationCountManeuversMission 871
scalar OsgEarthNet.uav[29] utilizationCountManeuversMaintenance 122
scalar OsgEarthNet.uav[29] utilizationCountChargeState 61
scalar OsgEarthNet.uav[29] utilizationCountOverdrawnAfterMission 0
scalar OsgEarthNet.uav[29] utilizationCountIdleState 31
scalar OsgEarthNet.uav[29] utilizationFail 0
scalar OsgEarthNet.uav[29] simulationTime 259200
scalar OsgEarthNet.uav[30] utilizationSecMission 34968.932842363
scalar OsgEarthNet.uav[30] utilizationSecMaintenance 21007.688217638
scalar OsgEarthNet.uav[30] utilizationSecCharge 195409.35967027
scalar OsgEarthNet.uav[30] utilizationSecIdle 7814.0182697282
scalar OsgEarthNet.uav[30] utilizationEnergyMission 169712.29170227
scalar OsgEarthNet.uav[30] utilizationEnergyMaintenance 99908.916156769
scalar OsgEarthNet.uav[30] utilizationEnergyCharge 268080.46484375
scalar OsgEarthNet.uav[30] utilizationEnergyOverdrawMission 0
scalar OsgEarthNet.uav[30] utilizationEnergyOverdrawMaintenance 0
scalar OsgEarthNet.uav[30] utilizationCountMissions 61
scalar OsgEarthNet.uav[30] utilizationCountManeuversMission 1080
scalar OsgEarthNet.uav[30] utilizationCountManeuversMaintenance 122
scalar OsgEarthNet.uav[30] utilizationCountChargeState 61
scalar OsgEarthNet.uav[30] utilizationCountOverdrawnAfterMission 0
scalar OsgEarthNet.uav[30] utilizationCountIdleState 23
scalar OsgEarthNet.uav[30] utilizationFail 0
scalar OsgEarthNet.uav[30] simulationTime 259200
scalar OsgEarthNet.uav[31] utilizationSecMission 33566.909638192
scalar OsgEarthNet.uav[31] utilizationSecMaintenance 19601.086816321
scalar OsgEarthNet.uav[31] utilizationSecCharge 196860
scalar OsgEarthNet.uav[31] utilizationSecIdle 9172.0025454872
scalar OsgEarthNet.uav[31] utilizationEnergyMission 162434.01018524
scalar OsgEarthNet.uav[31] utilizationEnergyMaintenance 93226.810043674
scalar OsgEarthNet.uav[31] utilizationEnergyCharge 251741.49731445
scalar OsgEarthNet.uav[31] utilizationEnergyOverdrawMission 0
scalar OsgEarthNet.uav[31] utilizationEnergyOverdrawMaintenance 0
scalar OsgEarthNet.uav[31] utilizationCountMissions 64
scalar OsgEarthNet.uav[31] utilizationCountManeuversMission 950
scalar OsgEarthNet.uav[31] utilizationCountManeuversMaintenance 128
scalar OsgEarthNet.uav[31] utilizationCountChargeState 63
scalar OsgEarthNet.uav[31] utilizationCountOverdrawnAfterMission 0
scalar OsgEarthNet.uav[31] utilizationCountIdleState 36
scalar OsgEarthNet.uav[31] utilizationFail 0
scalar OsgEarthNet.uav[31] simulationTime 259200
scalar OsgEarthNet.uav[32] utilizationSecMission 39837.309088758
scalar OsgEarthNet.uav[32] utilizationSecMaintenance 15487.040663934
scalar OsgEarthNet.uav[32] utilizationSecCharge 194473.64924731
scalar OsgEarthNet.uav[32] utilizationSecIdle 9402
scalar OsgEarthNet.uav[32] utilizationEnergyMission 192755.79312238
scalar OsgEarthNet.uav[32] utilizationEnergyMaintenance 70385.973625183
scalar OsgEarthNet.uav[32] utilizationEnergyCharge 258875.84063721
scalar OsgEarthNet.uav[32] utilizationEnergyOverdrawMission 0
scalar OsgEarthNet.uav[32] utilizationEnergyOverdrawMaintenance 0
scalar OsgEarthNet.uav[32] utilizationCountMissions 57
scalar OsgEarthNet.uav[32] utilizationCountManeuversMission 1140
scalar OsgEarthNet.uav[32] utilizationCountManeuversMaintenance 113
scalar OsgEarthNet.uav[32] utilizationCountChargeState 57
scalar OsgEarthNet.uav[32] utilizationCountOverdrawnAfterMission 0
scalar OsgEarthNet.uav[32] utilizationCountIdleState 37
scalar OsgEarthNet.uav[32] utilizationFail 0
scalar OsgEarthNet.uav[32] simulationTime 259200
scalar OsgEarthNet.uav[33] utilizationSecMission 35644.745623176
scalar OsgEarthNet.uav[33] utilizationSecMaintenance 22818.035539338
scalar OsgEarthNet.uav[33] utilizationSecCharge 197245.21483749
scalar OsgEarthNet.uav[33] utilizationSecIdle 3492.003
scalar OsgEarthNet.uav[33] utilizationEnergyMission 172802.5033226
scalar OsgEarthNet.uav[33] utilizationEnergyMaintenance 108378.89976883
scalar OsgEarthNet.uav[33] utilizationEnergyCharge 281025.65087891
scalar OsgEarthNet.uav[33] utilizationEnergyOverdrawMission 0
scalar OsgEarthNet.uav[33] utilizationEnergyOverdrawMaintenance 0
scalar OsgEarthNet.uav[33] utilizationCountMissions 63
scalar OsgEarthNet.uav[33] utilizationCountManeuversMission 1162
scalar OsgEarthNet.uav[33] utilizationCountManeuversMaintenance 126
scalar OsgEarthNet.uav[33] utilizationCountChargeState 63
scalar OsgEarthNet.uav[33] utilizationCountOverdrawnAfterMission 0
scalar OsgEarthNet.uav[33] utilizationCountIdleState 14
scalar OsgEarthNet.uav[33] utilizationFail 0
scalar OsgEarthNet.uav[33] simulationTime 259200
scalar OsgEarthNet.uav[34] utilizationSecMission 32406.70896284
scalar OsgEarthNet.uav[34] utilizationSecMaintenance 20132.638938052
scalar OsgEarthNet.uav[34] utilizationSecCharge 197938.64959239
scalar OsgEarthNet.uav[34] utilizationSecIdle 8722.0015067221
scalar OsgEarthNet.uav[34] utilizationEnergyMission 156186.66626358
scalar OsgEarthNet.uav[34] utilizationEnergyMaintenance 95547.361301422
scalar OsgEarthNet.uav[34] utilizationEnergyCharge 250005.68188477
scalar OsgEarthNet.uav[34] utilizationEnergyOverdrawMission 0
scalar OsgEarthNet.uav[34] utilizationEnergyOverdrawMaintenance 0
scalar OsgEarthNet.uav[34] utilizationCountMissions 66
scalar OsgEarthNet.uav[34] utilizationCountManeuversMission 943
scalar OsgEarthNet.uav[34] utilizationCountManeuversMaintenance 132
scalar OsgEarthNet.uav[34] utilizationCountChargeState 66
scalar OsgEarthNet.uav[34] utilizationCountOverdrawnAfterMission 0
scalar OsgEarthNet.uav[34] utilizationCountIdleState 34
scalar OsgEarthNet.uav[34] utilizationFail 0
scalar OsgEarthNet.uav[34] simulationTime 259200
scalar OsgEarthNet.uav[35] utilizationSecMission 38518.047341476
scalar OsgEarthNet.uav[35] utilizationSecMaintenance 16350.915812498
scalar OsgEarthNet.uav[35] utilizationSecCharge 194319.03484603
scalar OsgEarthNet.uav[35] utilizationSecIdle 10012.001
scalar OsgEarthNet.uav[35] utilizationEnergyMission 186364.02833939
scalar OsgEarthNet.uav[35] utilizationEnergyMaintenance 74909.996715546
scalar OsgEarthNet.uav[35] utilizationEnergyCharge 259409.19348145
scalar OsgEarthNet.uav[35] utilizationEnergyOverdrawMission 0
scalar OsgEarthNet.uav[35] utilizationEnergyOverdrawMaintenance 0
scalar OsgEarthNet.uav[35] utilizationCountMissions 57
scalar OsgEarthNet.uav[35] utilizationCountManeuversMission 1202
scalar OsgEarthNet.uav[35] utilizationCountManeuversMaintenance 114
scalar OsgEarthNet.uav[35] utilizationCountChargeState 57
scalar OsgEarthNet.uav[35] utilizationCountOverdrawnAfterMission 0
scalar OsgEarthNet.uav[35] utilizationCountIdleState 35
scalar OsgEarthNet.uav[35] utilizationFail 0
scalar OsgEarthNet.uav[35] simulationTime 259200
scalar OsgEarthNet.uav[36] utilizationSecMission 36186.512005838
scalar OsgEarthNet.uav[36] utilizationSecMaintenance 21805.960100089
scalar OsgEarthNet.uav[36] utilizationSecCharge 196945.38708093
scalar OsgEarthNet.uav[36] utilizationSecIdle 4262.1398131443
scalar OsgEarthNet.uav[36] utilizationEnergyMission 173897.3299942
scalar OsgEarthNet.uav[36] utilizationEnergyMaintenance 104499.00078201
scalar OsgEarthNet.uav[36] utilizationEnergyCharge 277981.78564453
scalar OsgEarthNet.uav[36] utilizationEnergyOverdrawMission 0
scalar OsgEarthNet.uav[36] utilizationEnergyOverdrawMaintenance 0
scalar OsgEarthNet.uav[36] utilizationCountMissions 62
scalar OsgEarthNet.uav[36] utilizationCountManeuversMission 1128
scalar OsgEarthNet.uav[36] utilizationCountManeuversMaintenance 124
scalar OsgEarthNet.uav[36] utilizationCountChargeState 62
scalar OsgEarthNet.uav[36] utilizationCountOverdrawnAfterMission 0
scalar OsgEarthNet.uav[36] utilizationCountIdleState 13
scalar OsgEarthNet.uav[36] utilizationFail 0
scalar OsgEarthNet.uav[36] simulationTime 259200
scalar OsgEarthNet.uav[37] utilizationSecMission 33939.498374105
scalar OsgEarthNet.uav[37] utilizationSecMaintenance 19168.495625895
scalar OsgEarthNet.uav[37] utilizationSecCharge 196890
scalar OsgEarthNet.uav[37] utilizationSecIdle 9202.005
scalar OsgEarthNet.uav[37] utilizationEnergyMission 163802.84112903
scalar OsgEarthNet.uav[37] utilizationEnergyMaintenance 91186.704811096
scalar OsgEarthNet.uav[37] utilizationEnergyCharge 253463.87402344
scalar OsgEarthNet.uav[37] utilizationEnergyOverdrawMission 0
scalar OsgEarthNet.uav[37] utilizationEnergyOverdrawMaintenance 0
scalar OsgEarthNet.uav[37] utilizationCountMissions 62
scalar OsgEarthNet.uav[37] utilizationCountManeuversMission 943
scalar OsgEarthNet.uav[37] utilizationCountManeuversMaintenance 125
scalar OsgEarthNet.uav[37] utilizationCountChargeState 62
scalar OsgEarthNet.uav[37] utilizationCountOverdrawnAfterMission 0
scalar OsgEarthNet.uav[37] utilizationCountIdleState 35
scalar OsgEarthNet.uav[37] utilizationFail 0
scalar OsgEarthNet.uav[37] simulationTime 259200
scalar OsgEarthNet.uav[38] utilizationSecMission 38335.520992259
scalar OsgEarthNet.uav[38] utilizationSecMaintenance 16934.563865195
scalar OsgEarthNet.uav[38] utilizationSecCharge 195250
scalar OsgEarthNet.uav[38] utilizationSecIdle 8679.9141425466
scalar OsgEarthNet.uav[38] utilizationEnergyMission 186975.92199707
scalar OsgEarthNet.uav[38] utilizationEnergyMaintenance 78226.70595487
scalar OsgEarthNet.uav[38] utilizationEnergyCharge 259873.51660156
scalar OsgEarthNet.uav[38] utilizationEnergyOverdrawMission 0
scalar OsgEarthNet.uav[38] utilizationEnergyOverdrawMaintenance 0
scalar OsgEarthNet.uav[38] utilizationCountMissions 58
scalar OsgEarthNet.uav[38] utilizationCountManeuversMission 1330
scalar OsgEarthNet.uav[38] utilizationCountManeuversMaintenance 116
scalar OsgEarthNet.uav[38] utilizationCountChargeState 57
scalar OsgEarthNet.uav[38] utilizationCountOverdrawnAfterMission 0
scalar OsgEarthNet.uav[38] utilizationCountIdleState 35
scalar OsgEarthNet.uav[38] utilizationFail 0
scalar OsgEarthNet.uav[38] simulationTime 259200
scalar OsgEarthNet.uav[39] utilizationSecMission 36727.762310998
scalar OsgEarthNet.uav[39] utilizationSecMaintenance 21620.231689002
scalar OsgEarthNet.uav[39] utilizationSecCharge 195240
scalar OsgEarthNet.uav[39] utilizationSecIdle 5612.005
scalar OsgEarthNet.uav[39] utilizationEnergyMission 178069.92939758
scalar OsgEarthNet.uav[39] utilizationEnergyMaintenance 102761.50140546
scalar OsgEarthNet.uav[39] utilizationEnergyCharge 276426.74853516
scalar OsgEarthNet.uav[39] utilizationEnergyOverdrawMission 0
scalar OsgEarthNet.uav[39] utilizationEnergyOverdrawMaintenance 0
scalar OsgEarthNet.uav[39] utilizationCountMissions 62
scalar OsgEarthNet.uav[39] utilizationCountManeuversMission 1103
scalar OsgEarthNet.uav[39] utilizationCountManeuversMaintenance 125
scalar OsgEarthNet.uav[39] utilizationCountChargeState 62
scalar OsgEarthNet.uav[39] utilizationCountOverdrawnAfterMission 0
scalar OsgEarthNet.uav[39] utilizationCountIdleState 17
scalar OsgEarthNet.uav[39] utilizationFail 0
scalar OsgEarthNet.uav[39] simulationTime 259200
scalar OsgEarthNet.uav[40] utilizationSecMission 36176.253967087
scalar OsgEarthNet.uav[40] utilizationSecMaintenance 22199.116504727
scalar OsgEarthNet.uav[40] utilizationSecCharge 195361.23641065
scalar OsgEarthNet.uav[40] utilizationSecIdle 5463.3921175336
scalar OsgEarthNet.uav[40] utilizationEnergyMission 174216.90382385
scalar OsgEarthNet.uav[40] utilizationEnergyMaintenance 105541.45587158
scalar OsgEarthNet.uav[40] utilizationEnergyCharge 278825.86010742
scalar OsgEarthNet.uav[40] utilizationEnergyOverdrawMission 0
scalar OsgEarthNet.uav[40] utilizationEnergyOverdrawMaintenance 0
scalar OsgEarthNet.uav[40] utilizationCountMissions 63
scalar OsgEarthNet.uav[40] utilizationCountManeuversMission 1132
scalar OsgEarthNet.uav[40] utilizationCountManeuversMaintenance 126
scalar OsgEarthNet.uav[40] utilizationCountChargeState 63
scalar OsgEarthNet.uav[40] utilizationCountOverdrawnAfterMission 0
scalar OsgEarthNet.uav[40] utilizationCountIdleState 11
scalar OsgEarthNet.uav[40] utilizationFail 0
scalar OsgEarthNet.uav[40] simulationTime 259200
scalar OsgEarthNet.uav[41] utilizationSecMission 32713.806981806
scalar OsgEarthNet.uav[41] utilizationSecMaintenance 19538.633118257
scalar OsgEarthNet.uav[41] utilizationSecCharge 197342.8532009
scalar OsgEarthNet.uav[41] utilizationSecIdle 9604.7056990363
scalar OsgEarthNet.uav[41] utilizationEnergyMission 156133.11326599
scalar OsgEarthNet.uav[41] utilizationEnergyMaintenance 92907.636833191
scalar OsgEarthNet.uav[41] utilizationEnergyCharge 248966.29418945
scalar OsgEarthNet.uav[41] utilizationEnergyOverdrawMission 0
scalar OsgEarthNet.uav[41] utilizationEnergyOverdrawMaintenance 0
scalar OsgEarthNet.uav[41] utilizationCountMissions 65
scalar OsgEarthNet.uav[41] utilizationCountManeuversMission 893
scalar OsgEarthNet.uav[41] utilizationCountManeuversMaintenance 130
scalar OsgEarthNet.uav[41] utilizationCountChargeState 65
scalar OsgEarthNet.uav[41] utilizationCountOverdrawnAfterMission 0
scalar OsgEarthNet.uav[41] utilizationCountIdleState 38
scalar OsgEarthNet.uav[41] utilizationFail 0
scalar OsgEarthNet.uav[41] simulationTime 259200
scalar OsgEarthNet.uav[42] utilizationSecMission 37355.928349692
scalar OsgEarthNet.uav[42] utilizationSecMaintenance 17068.485582251
scalar OsgEarthNet.uav[42] utilizationSecCharge 197913.58506806
scalar OsgEarthNet.uav[42] utilizationSecIdle 6862
scalar OsgEarthNet.uav[42] utilizationEnergyMission 186812.74621201
scalar OsgEarthNet.uav[42] utilizationEnergyMaintenance 78822.799720764
scalar OsgEarthNet.uav[42] utilizationEnergyCharge 264246.03808594
scalar OsgEarthNet.uav[42] utilizationEnergyOverdrawMission 0
scalar OsgEarthNet.uav[42] utilizationEnergyOverdrawMaintenance 0
scalar OsgEarthNet.uav[42] utilizationCountMissions 58
scalar OsgEarthNet.uav[42] utilizationCountManeuversMission 1359
scalar OsgEarthNet.uav[42] utilizationCountManeuversMaintenance 116
scalar OsgEarthNet.uav[42] utilizationCountChargeState 58
scalar OsgEarthNet.uav[42] utilizationCountOverdrawnAfterMission 0
scalar OsgEarthNet.uav[42] utilizationCountIdleState 31
scalar OsgEarthNet.uav[42] utilizationFail 0
scalar OsgEarthNet.uav[42] simulationTime 259200
scalar OsgEarthNet.uav[43] utilizationSecMission 34162.477860188
scalar OsgEarthNet.uav[43] utilizationSecMaintenance 19012.572341287
scalar OsgEarthNet.uav[43] utilizationSecCharge 196512.94079852
scalar OsgEarthNet.uav[43] utilizationSecIdle 9512.008
scalar OsgEarthNet.uav[43] utilizationEnergyMission 163755.93092728
scalar OsgEarthNet.uav[43] utilizationEnergyMaintenance 90781.575885773
scalar OsgEarthNet.uav[43] utilizationEnergyCharge 253542.51318359
scalar OsgEarthNet.uav[43] utilizationEnergyOverdrawMission 0
scalar OsgEarthNet.uav[43] utilizationEnergyOverdrawMaintenance 0
scalar OsgEarthNet.uav[43] utilizationCountMissions 63
scalar OsgEarthNet.uav[43] utilizationCountManeuversMission 949
scalar OsgEarthNet.uav[43] utilizationCountManeuversMaintenance 126
scalar OsgEarthNet.uav[43] utilizationCountChargeState 63
scalar OsgEarthNet.uav[43] utilizationCountOverdrawnAfterMission 0
scalar OsgEarthNet.uav[43] utilizationCountIdleState 36
scalar OsgEarthNet.uav[43] utilizationFail 0
scalar OsgEarthNet.uav[43] simulationTime 259200
scalar OsgEarthNet.uav[44] utilizationSecMission 36669.473347096
scalar OsgEarthNet.uav[44] utilizationSecMaintenance 23182.928842583
scalar OsgEarthNet.uav[44] utilizationSecCharge 197325.59681032
scalar OsgEarthNet.uav[44] utilizationSecIdle 2022
scalar OsgEarthNet.uav[44] utilizationEnergyMission 178461.46373367
scalar OsgEarthNet.uav[44] utilizationEnergyMaintenance 110577.88346481
scalar OsgEarthNet.uav[44] utilizationEnergyCharge 283368.53790283
scalar OsgEarthNet.uav[44] utilizationEnergyOverdrawMission 0
scalar OsgEarthNet.uav[44] utilizationEnergyOverdrawMaintenance 0
scalar OsgEarthNet.uav[44] utilizationCountMissions 64
scalar OsgEarthNet.uav[44] utilizationCountManeuversMission 1186
scalar OsgEarthNet.uav[44] utilizationCountManeuversMaintenance 128
scalar OsgEarthNet.uav[44] utilizationCountChargeState 64
scalar OsgEarthNet.uav[44] utilizationCountOverdrawnAfterMission 0
scalar OsgEarthNet.uav[44] utilizationCountIdleState 12
scalar OsgEarthNet.uav[44] utilizationFail 0
scalar OsgEarthNet.uav[44] simulationTime 259200
scalar OsgEarthNet.uav[45] utilizationSecMission 37837.176155441
scalar OsgEarthNet.uav[45] utilizationSecMaintenance 16638.913142125
scalar OsgEarthNet.uav[45] utilizationSecCharge 194917.55948161
scalar OsgEarthNet.uav[45] utilizationSecIdle 9806.3502208215
scalar OsgEarthNet.uav[45] utilizationEnergyMission 184666.31219864
scalar OsgEarthNet.uav[45] utilizationEnergyMaintenance 76753.05399704
scalar OsgEarthNet.uav[45] utilizationEnergyCharge 260315.68676758
scalar OsgEarthNet.uav[45] utilizationEnergyOverdrawMission 0
scalar OsgEarthNet.uav[45] utilizationEnergyOverdrawMaintenance 0
scalar OsgEarthNet.uav[45] utilizationCountMissions 57
scalar OsgEarthNet.uav[45] utilizationCountManeuversMission 1267
scalar OsgEarthNet.uav[45] utilizationCountManeuversMaintenance 114
scalar OsgEarthNet.uav[45] utilizationCountChargeState 57
scalar OsgEarthNet.uav[45] utilizationCountOverdrawnAfterMission 0
scalar OsgEarthNet.uav[45] utilizationCountIdleState 33
scalar OsgEarthNet.uav[45] utilizationFail 0
scalar OsgEarthNet.uav[45] simulationTime 259200
scalar OsgEarthNet.uav[46] utilizationSecMission 31536.274359399
scalar OsgEarthNet.uav[46] utilizationSecMaintenance 20571.723640601
scalar OsgEarthNet.uav[46] utilizationSecCharge 199620
scalar OsgEarthNet.uav[46] utilizationSecIdle 7472.001
scalar OsgEarthNet.uav[46] utilizationEnergyMission 152770.06557475
scalar OsgEarthNet.uav[46] utilizationEnergyMaintenance 97543.59349823
scalar OsgEarthNet.uav[46] utilizationEnergyCharge 249523.62841797
scalar OsgEarthNet.uav[46] utilizationEnergyOverdrawMission 0
scalar OsgEarthNet.uav[46] utilizationEnergyOverdrawMaintenance 0
scalar OsgEarthNet.uav[46] utilizationCountMissions 66
scalar OsgEarthNet.uav[46] utilizationCountManeuversMission 944
scalar OsgEarthNet.uav[46] utilizationCountManeuversMaintenance 133
scalar OsgEarthNet.uav[46] utilizationCountChargeState 66
scalar OsgEarthNet.uav[46] utilizationCountOverdrawnAfterMission 0
scalar OsgEarthNet.uav[46] utilizationCountIdleState 43
scalar OsgEarthNet.uav[46] utilizationFail 0
scalar OsgEarthNet.uav[46] simulationTime 259200
scalar OsgEarthNet.uav[47] utilizationSecMission 34072.721689077
scalar OsgEarthNet.uav[47] utilizationSecMaintenance 18994.654034065
scalar OsgEarthNet.uav[47] utilizationSecCharge 195508.95509887
scalar OsgEarthNet.uav[47] utilizationSecIdle 10623.668177988
scalar OsgEarthNet.uav[47] utilizationEnergyMission 165663.69907761
scalar OsgEarthNet.uav[47] utilizationEnergyMaintenance 89877.8814888
scalar OsgEarthNet.uav[47] utilizationEnergyCharge 254015.49780273
scalar OsgEarthNet.uav[47] utilizationEnergyOverdrawMission 0
scalar OsgEarthNet.uav[47] utilizationEnergyOverdrawMaintenance 0
scalar OsgEarthNet.uav[47] utilizationCountMissions 62
scalar OsgEarthNet.uav[47] utilizationCountManeuversMission 962
scalar OsgEarthNet.uav[47] utilizationCountManeuversMaintenance 124
scalar OsgEarthNet.uav[47] utilizationCountChargeState 62
scalar OsgEarthNet.uav[47] utilizationCountOverdrawnAfterMission 0
scalar OsgEarthNet.uav[47] utilizationCountIdleState 32
scalar OsgEarthNet.uav[47] utilizationFail 0
scalar OsgEarthNet.uav[47] simulationTime 259200
scalar OsgEarthNet.uav[48] utilizationSecMission 39386.178358525
scalar OsgEarthNet.uav[48] utilizationSecMaintenance 15184.892871412
scalar OsgEarthNet.uav[48] utilizationSecCharge 193429.50242277
scalar OsgEarthNet.uav[48] utilizationSecIdle 11199.42534729
scalar OsgEarthNet.uav[48] utilizationEnergyMission 189790.48132706
scalar OsgEarthNet.uav[48] utilizationEnergyMaintenance 70701.950073242
scalar OsgEarthNet.uav[48] utilizationEnergyCharge 258041.31262207
scalar OsgEarthNet.uav[48] utilizationEnergyOverdrawMission 0
scalar OsgEarthNet.uav[48] utilizationEnergyOverdrawMaintenance 0
scalar OsgEarthNet.uav[48] utilizationCountMissions 56
scalar OsgEarthNet.uav[48] utilizationCountManeuversMission 1123
scalar OsgEarthNet.uav[48] utilizationCountManeuversMaintenance 112
scalar OsgEarthNet.uav[48] utilizationCountChargeState 56
scalar OsgEarthNet.uav[48] utilizationCountOverdrawnAfterMission 0
scalar OsgEarthNet.uav[48] utilizationCountIdleState 39
scalar OsgEarthNet.uav[48] utilizationFail 0
scalar OsgEarthNet.uav[48] simulationTime 259200
scalar OsgEarthNet.uav[49] utilizationSecMission 38003.770841956
scalar OsgEarthNet.uav[49] utilizationSecMaintenance 16739.177164511
scalar OsgEarthNet.uav[49] utilizationSecCharge 193476.10273787
scalar OsgEarthNet.uav[49] utilizationSecIdle 10980.948255665
scalar OsgEarthNet.uav[49] utilizationEnergyMission 184080.76441193
scalar OsgEarthNet.uav[49] utilizationEnergyMaintenance 76872.999187469
scalar OsgEarthNet.uav[49] utilizationEnergyCharge 257229.87310791
scalar OsgEarthNet.uav[49] utilizationEnergyOverdrawMission 0
scalar OsgEarthNet.uav[49] utilizationEnergyOverdrawMaintenance 0
scalar OsgEarthNet.uav[49] utilizationCountMissions 57
scalar OsgEarthNet.uav[49] utilizationCountManeuversMission 1287
scalar OsgEarthNet.uav[49] utilizationCountManeuversMaintenance 114
scalar OsgEarthNet.uav[49] utilizationCountChargeState 57
scalar OsgEarthNet.uav[49] utilizationCountOverdrawnAfterMission 0
scalar OsgEarthNet.uav[49] utilizationCountIdleState 37
scalar OsgEarthNet.uav[49] utilizationFail 0
scalar OsgEarthNet.uav[49] simulationTime 259200
scalar OsgEarthNet.uav[50] utilizationSecMission 36767.871386078
scalar OsgEarthNet.uav[50] utilizationSecMaintenance 20934.672905526
scalar OsgEarthNet.uav[50] utilizationSecCharge 193702.81028647
scalar OsgEarthNet.uav[50] utilizationSecIdle 7794.6444219229
scalar OsgEarthNet.uav[50] utilizationEnergyMission 176304.12385178
scalar OsgEarthNet.uav[50] utilizationEnergyMaintenance 98939.36207962
scalar OsgEarthNet.uav[50] utilizationEnergyCharge 272512.75585938
scalar OsgEarthNet.uav[50] utilizationEnergyOverdrawMission 0
scalar OsgEarthNet.uav[50] utilizationEnergyOverdrawMaintenance 0
scalar OsgEarthNet.uav[50] utilizationCountMissions 62
scalar OsgEarthNet.uav[50] utilizationCountManeuversMission 1088
scalar OsgEarthNet.uav[50] utilizationCountManeuversMaintenance 124
scalar OsgEarthNet.uav[50] utilizationCountChargeState 62
scalar OsgEarthNet.uav[50] utilizationCountOverdrawnAfterMission 0
scalar OsgEarthNet.uav[50] utilizationCountIdleState 16
scalar OsgEarthNet.uav[50] utilizationFail 0
scalar OsgEarthNet.uav[50] simulationTime 259200
scalar OsgEarthNet.uav[51] utilizationSecMission 34445.147331124
scalar OsgEarthNet.uav[51] utilizationSecMaintenance 18824.43765244
scalar OsgEarthNet.uav[51] utilizationSecCharge 196615.80212692
scalar OsgEarthNet.uav[51] utilizationSecIdle 9314.6118895164
scalar OsgEarthNet.uav[51] utilizationEnergyMission 164614.70856476
scalar OsgEarthNet.uav[51] utilizationEnergyMaintenance 88922.311138153
scalar OsgEarthNet.uav[51] utilizationEnergyCharge 250910.20874023
scalar OsgEarthNet.uav[51] utilizationEnergyOverdrawMission 0
scalar OsgEarthNet.uav[51] utilizationEnergyOverdrawMaintenance 0
scalar OsgEarthNet.uav[51] utilizationCountMissions 64
scalar OsgEarthNet.uav[51] utilizationCountManeuversMission 916
scalar OsgEarthNet.uav[51] utilizationCountManeuversMaintenance 128
scalar OsgEarthNet.uav[51] utilizationCountChargeState 64
scalar OsgEarthNet.uav[51] utilizationCountOverdrawnAfterMission 0
scalar OsgEarthNet.uav[51] utilizationCountIdleState 38
scalar OsgEarthNet.uav[51] utilizationFail 0
scalar OsgEarthNet.uav[51] simulationTime 259200
scalar OsgEarthNet.uav[52] utilizationSecMission 39636.933902032
scalar OsgEarthNet.uav[52] utilizationSecMaintenance 15034.747766154
scalar OsgEarthNet.uav[52] utilizationSecCharge 192998.40518927
scalar OsgEarthNet.uav[52] utilizationSecIdle 11529.912142547
scalar OsgEarthNet.uav[52] utilizationEnergyMission 189767.32791138
scalar OsgEarthNet.uav[52] utilizationEnergyMaintenance 69330.984352112
scalar OsgEarthNet.uav[52] utilizationEnergyCharge 257550.36987305
scalar OsgEarthNet.uav[52] utilizationEnergyOverdrawMission 0
scalar OsgEarthNet.uav[52] utilizationEnergyOverdrawMaintenance 0
scalar OsgEarthNet.uav[52] utilizationCountMissions 56
scalar OsgEarthNet.uav[52] utilizationCountManeuversMission 1145
scalar OsgEarthNet.uav[52] utilizationCountManeuversMaintenance 112
scalar OsgEarthNet.uav[52] utilizationCountChargeState 56
scalar OsgEarthNet.uav[52] utilizationCountOverdrawnAfterMission 0
scalar OsgEarthNet.uav[52] utilizationCountIdleState 40
scalar OsgEarthNet.uav[52] utilizationFail 0
scalar OsgEarthNet.uav[52] simulationTime 259200
scalar OsgEarthNet.uav[53] utilizationSecMission 34236.971019031
scalar OsgEarthNet.uav[53] utilizationSecMaintenance 18980.44491512
scalar OsgEarthNet.uav[53] utilizationSecCharge 197640.58306585
scalar OsgEarthNet.uav[53] utilizationSecIdle 8342
scalar OsgEarthNet.uav[53] utilizationEnergyMission 164404.16996384
scalar OsgEarthNet.uav[53] utilizationEnergyMaintenance 90310.003322601
scalar OsgEarthNet.uav[53] utilizationEnergyCharge 255022.66870117
scalar OsgEarthNet.uav[53] utilizationEnergyOverdrawMission 0
scalar OsgEarthNet.uav[53] utilizationEnergyOverdrawMaintenance 0
scalar OsgEarthNet.uav[53] utilizationCountMissions 61
scalar OsgEarthNet.uav[53] utilizationCountManeuversMission 986
scalar OsgEarthNet.uav[53] utilizationCountManeuversMaintenance 122
scalar OsgEarthNet.uav[53] utilizationCountChargeState 61
scalar OsgEarthNet.uav[53] utilizationCountOverdrawnAfterMission 0
scalar OsgEarthNet.uav[53] utilizationCountIdleState 41
scalar OsgEarthNet.uav[53] utilizationFail 0
scalar OsgEarthNet.uav[53] simulationTime 259200
scalar OsgEarthNet.uav[54] utilizationSecMission 37086.060323704
scalar OsgEarthNet.uav[54] utilizationSecMaintenance 16992.036872376
scalar OsgEarthNet.uav[54] utilizationSecCharge 195788.54757268
scalar OsgEarthNet.uav[54] utilizationSecIdle 9333.3542312376
scalar OsgEarthNet.uav[54] utilizationEnergyMission 182297.12805557
scalar OsgEarthNet.uav[54] utilizationEnergyMaintenance 78753.262371063
scalar OsgEarthNet.uav[54] utilizationEnergyCharge 259871.4074707
scalar OsgEarthNet.uav[54] utilizationEnergyOverdrawMission 0
scalar OsgEarthNet.uav[54] utilizationEnergyOverdrawMaintenance 0
scalar OsgEarthNet.uav[54] utilizationCountMissions 57
scalar OsgEarthNet.uav[54] utilizationCountManeuversMission 1263
scalar OsgEarthNet.uav[54] utilizationCountManeuversMaintenance 114
scalar OsgEarthNet.uav[54] utilizationCountChargeState 57
scalar OsgEarthNet.uav[54] utilizationCountOverdrawnAfterMission 0
scalar OsgEarthNet.uav[54] utilizationCountIdleState 35
scalar OsgEarthNet.uav[54] utilizationFail 0
scalar OsgEarthNet.uav[54] simulationTime 259200
scalar OsgEarthNet.uav[55] utilizationSecMission 38880.724846386
scalar OsgEarthNet.uav[55] utilizationSecMaintenance 14960.953683684
scalar OsgEarthNet.uav[55] utilizationSecCharge 195160.8702059
scalar OsgEarthNet.uav[55] utilizationSecIdle 10197.450264031
scalar OsgEarthNet.uav[55] utilizationEnergyMission 189395.42390823
scalar OsgEarthNet.uav[55] utilizationEnergyMaintenance 69276.698802948
scalar OsgEarthNet.uav[55] utilizationEnergyCharge 259349.12353516
scalar OsgEarthNet.uav[55] utilizationEnergyOverdrawMission 0
scalar OsgEarthNet.uav[55] utilizationEnergyOverdrawMaintenance 0
scalar OsgEarthNet.uav[55] utilizationCountMissions 56
scalar OsgEarthNet.uav[55] utilizationCountManeuversMission 1220
scalar OsgEarthNet.uav[55] utilizationCountManeuversMaintenance 112
scalar OsgEarthNet.uav[55] utilizationCountChargeState 56
scalar OsgEarthNet.uav[55] utilizationCountOverdrawnAfterMission 0
scalar OsgEarthNet.uav[55] utilizationCountIdleState 43
scalar OsgEarthNet.uav[55] utilizationFail 0
scalar OsgEarthNet.uav[55] simulationTime 259200
scalar OsgEarthNet.uav[56] utilizationSecMission 33414.808705098
scalar OsgEarthNet.uav[56] utilizationSecMaintenance 19678.043679004
scalar OsgEarthNet.uav[56] utilizationSecCharge 193472.74730308
scalar OsgEarthNet.uav[56] utilizationSecIdle 12634.399312815
scalar OsgEarthNet.uav[56] utilizationEnergyMission 159893.26847076
scalar OsgEarthNet.uav[56] utilizationEnergyMaintenance 93478.772182465
scalar OsgEarthNet.uav[56] utilizationEnergyCharge 251914.37155151
scalar OsgEarthNet.uav[56] utilizationEnergyOverdrawMission 0
scalar OsgEarthNet.uav[56] utilizationEnergyOverdrawMaintenance 0
scalar OsgEarthNet.uav[56] utilizationCountMissions 60
scalar OsgEarthNet.uav[56] utilizationCountManeuversMission 1025
scalar OsgEarthNet.uav[56] utilizationCountManeuversMaintenance 120
scalar OsgEarthNet.uav[56] utilizationCountChargeState 60
scalar OsgEarthNet.uav[56] utilizationCountOverdrawnAfterMission 0
scalar OsgEarthNet.uav[56] utilizationCountIdleState 35
scalar OsgEarthNet.uav[56] utilizationFail 0
scalar OsgEarthNet.uav[56] simulationTime 259200
scalar OsgEarthNet.uav[57] utilizationSecMission 36646.564593705
scalar OsgEarthNet.uav[57] utilizationSecMaintenance 17334.429568787
scalar OsgEarthNet.uav[57] utilizationSecCharge 195835.64960627
scalar OsgEarthNet.uav[57] utilizationSecIdle 9383.3552312376
scalar OsgEarthNet.uav[57] utilizationEnergyMission 181144.26939392
scalar OsgEarthNet.uav[57] utilizationEnergyMaintenance 80528.137866974
scalar OsgEarthNet.uav[57] utilizationEnergyCharge 260958.18896484
scalar OsgEarthNet.uav[57] utilizationEnergyOverdrawMission 0
scalar OsgEarthNet.uav[57] utilizationEnergyOverdrawMaintenance 0
scalar OsgEarthNet.uav[57] utilizationCountMissions 57
scalar OsgEarthNet.uav[57] utilizationCountManeuversMission 1382
scalar OsgEarthNet.uav[57] utilizationCountManeuversMaintenance 114
scalar OsgEarthNet.uav[57] utilizationCountChargeState 57
scalar OsgEarthNet.uav[57] utilizationCountOverdrawnAfterMission 0
scalar OsgEarthNet.uav[57] utilizationCountIdleState 29
scalar OsgEarthNet.uav[57] utilizationFail 0
scalar OsgEarthNet.uav[57] simulationTime 259200
scalar OsgEarthNet.uav[58] utilizationSecMission 38658.807973338
scalar OsgEarthNet.uav[58] utilizationSecMaintenance 16267.954209815
scalar OsgEarthNet.uav[58] utilizationSecCharge 195083.3236743
scalar OsgEarthNet.uav[58] utilizationSecIdle 9189.9131425466
scalar OsgEarthNet.uav[58] utilizationEnergyMission 187893.3753891
scalar OsgEarthNet.uav[58] utilizationEnergyMaintenance 74347.078971863
scalar OsgEarthNet.uav[58] utilizationEnergyCharge 261347.48339844
scalar OsgEarthNet.uav[58] utilizationEnergyOverdrawMission 0
scalar OsgEarthNet.uav[58] utilizationEnergyOverdrawMaintenance 0
scalar OsgEarthNet.uav[58] utilizationCountMissions 57
scalar OsgEarthNet.uav[58] utilizationCountManeuversMission 1232
scalar OsgEarthNet.uav[58] utilizationCountManeuversMaintenance 114
scalar OsgEarthNet.uav[58] utilizationCountChargeState 57
scalar OsgEarthNet.uav[58] utilizationCountOverdrawnAfterMission 0
scalar OsgEarthNet.uav[58] utilizationCountIdleState 33
scalar OsgEarthNet.uav[58] utilizationFail 0
scalar OsgEarthNet.uav[58] simulationTime 259200
scalar OsgEarthNet.uav[59] utilizationSecMission 33510.002441285
scalar OsgEarthNet.uav[59] utilizationSecMaintenance 24817.987558716
scalar OsgEarthNet.uav[59] utilizationSecCharge 196250
scalar OsgEarthNet.uav[59] utilizationSecIdle 4622.009
scalar OsgEarthNet.uav[59] utilizationEnergyMission 167456.02332306
scalar OsgEarthNet.uav[59] utilizationEnergyMaintenance 118387.96876157
scalar OsgEarthNet.uav[59] utilizationEnergyCharge 283195.64697266
scalar OsgEarthNet.uav[59] utilizationEnergyOverdrawMission 0
scalar OsgEarthNet.uav[59] utilizationEnergyOverdrawMaintenance 0
scalar OsgEarthNet.uav[59] utilizationCountMissions 64
scalar OsgEarthNet.uav[59] utilizationCountManeuversMission 1259
scalar OsgEarthNet.uav[59] utilizationCountManeuversMaintenance 128
scalar OsgEarthNet.uav[59] utilizationCountChargeState 63
scalar OsgEarthNet.uav[59] utilizationCountOverdrawnAfterMission 0
scalar OsgEarthNet.uav[59] utilizationCountIdleState 5
scalar OsgEarthNet.uav[59] utilizationFail 0
scalar OsgEarthNet.uav[59] simulationTime 259200
scalar OsgEarthNet.uav[60] utilizationSecMission 34462.135937776
scalar OsgEarthNet.uav[60] utilizationSecMaintenance 23935.71180142
scalar OsgEarthNet.uav[60] utilizationSecCharge 197500.1452608
scalar OsgEarthNet.uav[60] utilizationSecIdle 3302.006
scalar OsgEarthNet.uav[60] utilizationEnergyMission 167814.94089127
scalar OsgEarthNet.uav[60] utilizationEnergyMaintenance 113624.90239334
scalar OsgEarthNet.uav[60] utilizationEnergyCharge 281319.14697266
scalar OsgEarthNet.uav[60] utilizationEnergyOverdrawMission 0
scalar OsgEarthNet.uav[60] utilizationEnergyOverdrawMaintenance 0
scalar OsgEarthNet.uav[60] utilizationCountMissions 63
scalar OsgEarthNet.uav[60] utilizationCountManeuversMission 1224
scalar OsgEarthNet.uav[60] utilizationCountManeuversMaintenance 126
scalar OsgEarthNet.uav[60] utilizationCountChargeState 63
scalar OsgEarthNet.uav[60] utilizationCountOverdrawnAfterMission 0
scalar OsgEarthNet.uav[60] utilizationCountIdleState 5
scalar OsgEarthNet.uav[60] utilizationFail 0
scalar OsgEarthNet.uav[60] simulationTime 259200
scalar OsgEarthNet.uav[61] utilizationSecMission 33905.524527619
scalar OsgEarthNet.uav[61] utilizationSecMaintenance 19339.293525723
scalar OsgEarthNet.uav[61] utilizationSecCharge 195867.86486483
scalar OsgEarthNet.uav[61] utilizationSecIdle 10087.316081831
scalar OsgEarthNet.uav[61] utilizationEnergyMission 163992.0222702
scalar OsgEarthNet.uav[61] utilizationEnergyMaintenance 91259.483581543
scalar OsgEarthNet.uav[61] utilizationEnergyCharge 252951.35839844
scalar OsgEarthNet.uav[61] utilizationEnergyOverdrawMission 0
scalar OsgEarthNet.uav[61] utilizationEnergyOverdrawMaintenance 0
scalar OsgEarthNet.uav[61] utilizationCountMissions 63
scalar OsgEarthNet.uav[61] utilizationCountManeuversMission 960
scalar OsgEarthNet.uav[61] utilizationCountManeuversMaintenance 126
scalar OsgEarthNet.uav[61] utilizationCountChargeState 63
scalar OsgEarthNet.uav[61] utilizationCountOverdrawnAfterMission 0
scalar OsgEarthNet.uav[61] utilizationCountIdleState 27
scalar OsgEarthNet.uav[61] utilizationFail 0
scalar OsgEarthNet.uav[61] simulationTime 259200
scalar OsgEarthNet.uav[62] utilizationSecMission 38761.60011846
scalar OsgEarthNet.uav[62] utilizationSecMaintenance 16155.090629612
scalar OsgEarthNet.uav[62] utilizationSecCharge 194526.60288939
scalar OsgEarthNet.uav[62] utilizationSecIdle 9756.705362542
scalar OsgEarthNet.uav[62] utilizationEnergyMission 190449.92634964
scalar OsgEarthNet.uav[62] utilizationEnergyMaintenance 74369.589458466
scalar OsgEarthNet.uav[62] utilizationEnergyCharge 258762.24304199
scalar OsgEarthNet.uav[62] utilizationEnergyOverdrawMission 0
scalar OsgEarthNet.uav[62] utilizationEnergyOverdrawMaintenance 0
scalar OsgEarthNet.uav[62] utilizationCountMissions 57
scalar OsgEarthNet.uav[62] utilizationCountManeuversMission 1315
scalar OsgEarthNet.uav[62] utilizationCountManeuversMaintenance 114
scalar OsgEarthNet.uav[62] utilizationCountChargeState 57
scalar OsgEarthNet.uav[62] utilizationCountOverdrawnAfterMission 0
scalar OsgEarthNet.uav[62] utilizationCountIdleState 34
scalar OsgEarthNet.uav[62] utilizationFail 0
scalar OsgEarthNet.uav[62] simulationTime 259200
scalar OsgEarthNet.uav[63] utilizationSecMission 35760.413838123
scalar OsgEarthNet.uav[63] utilizationSecMaintenance 18477.583161877
scalar OsgEarthNet.uav[63] utilizationSecCharge 197200
scalar OsgEarthNet.uav[63] utilizationSecIdle 7762.002
scalar OsgEarthNet.uav[63] utilizationEnergyMission 170985.08801398
scalar OsgEarthNet.uav[63] utilizationEnergyMaintenance 87483.547836304
scalar OsgEarthNet.uav[63] utilizationEnergyCharge 255972.68139648
scalar OsgEarthNet.uav[63] utilizationEnergyOverdrawMission 0
scalar OsgEarthNet.uav[63] utilizationEnergyOverdrawMaintenance 0
scalar OsgEarthNet.uav[63] utilizationCountMissions 60
scalar OsgEarthNet.uav[63] utilizationCountManeuversMission 1011
scalar OsgEarthNet.uav[63] utilizationCountManeuversMaintenance 121
scalar OsgEarthNet.uav[63] utilizationCountChargeState 60
scalar OsgEarthNet.uav[63] utilizationCountOverdrawnAfterMission 0
scalar OsgEarthNet.uav[63] utilizationCountIdleState 36
scalar OsgEarthNet.uav[63] utilizationFail 0
scalar OsgEarthNet.uav[63] simulationTime 259200
scalar OsgEarthNet.cs[0] usedPower 4052517.2201954
scalar OsgEarthNet.cs[0] chargedPower 4052517.2201954
scalar OsgEarthNet.cs[0] chargedMobileNodes 150
scalar OsgEarthNet.cs[0] reservations 912
scalar OsgEarthNet.cs[1] usedPower 5716884.6442031
scalar OsgEarthNet.cs[1] chargedPower 5716884.6442031
scalar OsgEarthNet.cs[1] chargedMobileNodes 790
scalar OsgEarthNet.cs[1] reservations 1417
scalar OsgEarthNet.cs[2] usedPower 6966588.8264382
scalar OsgEarthNet.cs[2] chargedPower 6966588.8264382
scalar OsgEarthNet.cs[2] chargedMobileNodes 965
scalar OsgEarthNet.cs[2] reservations 1524

