version 2
run Szenario_Hotel_Gabelbach-286-20180719-11:31:37-24000
attr configname Szenario_Hotel_Gabelbach
attr datetime 20180719-11:31:37
attr experiment Szenario_Hotel_Gabelbach
attr inifile omnetpp.ini
attr iterationvars "$replM=2, $biWeight=0.35, $replSearchM=1, $numUAVs=72"
attr iterationvarsf replM=2,biWeight=0.35,replSearchM=1,numUAVs=72-
attr measurement "$replM=2, $biWeight=0.35, $replSearchM=1, $numUAVs=72"
attr network OsgEarthNet
attr processid 24000
attr repetition 22
attr replication #22
attr resultdir results
attr runnumber 286
attr seedset 286
itervar biWeight 0.35
itervar numUAVs 72
itervar replM 2
itervar replSearchM 1
param *.osgEarthScene.scene "\"Szenario_Hotel_Gabelbach.earth\""
param *.playgroundLatitude 50.6830269
param *.playgroundLongitude 10.8538055
param *.playgroundWidth 3500m
param *.playgroundHeight 3500m
param *.cs[0].posX 3537m
param *.cs[0].posY 965m
param *.cs[0].posZ 538m
param *.cs[1].posX 312m
param *.cs[1].posY 1262m
param *.cs[1].posZ 539m
param *.cs[2].posX 2185m
param *.cs[2].posY 3026m
param *.cs[2].posZ 777m
param *.cs[3].posX 10m
param *.cs[3].posY 2200m
param *.cs[3].posZ 560m
param *.cs[4].posX 750m
param *.cs[4].posY 200m
param *.cs[4].posZ 540m
param *.cs[5].posX 2450m
param *.cs[5].posY 180m
param *.cs[5].posZ 524m
param *.cs[6].posX 3140m
param *.cs[6].posY 1790m
param *.cs[6].posZ 606m
param *.numCSs 3
param *.uav[*].replacementMethod 2
param *.uav[*].weightedSumWeight 0.35
param *.missionControl.replacementSearchMethod 1
param *.numUAVs 72
param *.*.timeStep 10s
param *.uav[*].commandPreviewCommandCount 20
param *.missionControl.missionFiles "\"missions\\\\Szenario_WB_Hotel_Gabelbach_Mission_Hotel.waypoints,missions\\\\Szenario_WB_Hotel_Gabelbach_Mission_Kickelhahn.waypoints,missions\\\\Szenario_WB_Hotel_Gabelbach_Mission_Ilmenau_Sportplatz.waypoints,missions\\\\Szenario_WB_Hotel_Gabelbach_Mission_Manebach_Mitte.waypoints,missions\\\\Szenario_WB_Hotel_Gabelbach_Mission_Manebach_Sued.waypoints,missions\\\\Szenario_WB_Hotel_Gabelbach_Hover_HoheSchlaufe.waypoints,missions\\\\Szenario_WB_Hotel_Gabelbach_Hover_Kickelhahn.waypoints,missions\\\\Szenario_WB_Hotel_Gabelbach_Hover_Gabelbachskopf.waypoints,missions\\\\Szenario_WB_Hotel_Gabelbach_Hover_Dachskopf.waypoints\""
param *.uav[0].startX 3537m
param *.uav[0].startY 965m
param *.uav[0].startZ 539m
param *.uav[1].startX 312m
param *.uav[1].startY 1262m
param *.uav[1].startZ 540m
param *.uav[2].startX 2185m
param *.uav[2].startY 3026m
param *.uav[2].startZ 778m
param *.uav[3].startX 3537m
param *.uav[3].startY 965m
param *.uav[3].startZ 539m
param *.uav[4].startX 312m
param *.uav[4].startY 1262m
param *.uav[4].startZ 540m
param *.uav[5].startX 2185m
param *.uav[5].startY 3026m
param *.uav[5].startZ 778m
param *.uav[6].startX 3537m
param *.uav[6].startY 965m
param *.uav[6].startZ 539m
param *.uav[7].startX 312m
param *.uav[7].startY 1262m
param *.uav[7].startZ 540m
param *.uav[8].startX 2185m
param *.uav[8].startY 3026m
param *.uav[8].startZ 778m
param *.uav[9].startX 3537m
param *.uav[9].startY 965m
param *.uav[9].startZ 539m
param *.uav[10].startX 3537m
param *.uav[10].startY 965m
param *.uav[10].startZ 539m
param *.uav[11].startX 312m
param *.uav[11].startY 1262m
param *.uav[11].startZ 540m
param *.uav[12].startX 2185m
param *.uav[12].startY 3026m
param *.uav[12].startZ 778m
param *.uav[13].startX 3537m
param *.uav[13].startY 965m
param *.uav[13].startZ 539m
param *.uav[14].startX 312m
param *.uav[14].startY 1262m
param *.uav[14].startZ 540m
param *.uav[15].startX 2185m
param *.uav[15].startY 3026m
param *.uav[15].startZ 778m
param *.uav[16].startX 3537m
param *.uav[16].startY 965m
param *.uav[16].startZ 539m
param *.uav[17].startX 312m
param *.uav[17].startY 1262m
param *.uav[17].startZ 540m
param *.uav[18].startX 2185m
param *.uav[18].startY 3026m
param *.uav[18].startZ 778m
param *.uav[19].startX 3537m
param *.uav[19].startY 965m
param *.uav[19].startZ 539m
param *.uav[20].startX 3537m
param *.uav[20].startY 965m
param *.uav[20].startZ 539m
param *.uav[21].startX 312m
param *.uav[21].startY 1262m
param *.uav[21].startZ 540m
param *.uav[22].startX 2185m
param *.uav[22].startY 3026m
param *.uav[22].startZ 778m
param *.uav[23].startX 3537m
param *.uav[23].startY 965m
param *.uav[23].startZ 539m
param *.uav[24].startX 312m
param *.uav[24].startY 1262m
param *.uav[24].startZ 540m
param *.uav[25].startX 2185m
param *.uav[25].startY 3026m
param *.uav[25].startZ 778m
param *.uav[26].startX 3537m
param *.uav[26].startY 965m
param *.uav[26].startZ 539m
param *.uav[27].startX 312m
param *.uav[27].startY 1262m
param *.uav[27].startZ 540m
param *.uav[28].startX 2185m
param *.uav[28].startY 3026m
param *.uav[28].startZ 778m
param *.uav[29].startX 3537m
param *.uav[29].startY 965m
param *.uav[29].startZ 539m
param *.uav[30].startX 3537m
param *.uav[30].startY 965m
param *.uav[30].startZ 539m
param *.uav[31].startX 312m
param *.uav[31].startY 1262m
param *.uav[31].startZ 540m
param *.uav[32].startX 2185m
param *.uav[32].startY 3026m
param *.uav[32].startZ 778m
param *.uav[33].startX 3537m
param *.uav[33].startY 965m
param *.uav[33].startZ 539m
param *.uav[34].startX 312m
param *.uav[34].startY 1262m
param *.uav[34].startZ 540m
param *.uav[35].startX 2185m
param *.uav[35].startY 3026m
param *.uav[35].startZ 778m
param *.uav[36].startX 3537m
param *.uav[36].startY 965m
param *.uav[36].startZ 539m
param *.uav[37].startX 312m
param *.uav[37].startY 1262m
param *.uav[37].startZ 540m
param *.uav[38].startX 2185m
param *.uav[38].startY 3026m
param *.uav[38].startZ 778m
param *.uav[39].startX 3537m
param *.uav[39].startY 965m
param *.uav[39].startZ 539m
param *.uav[40].startX 3537m
param *.uav[40].startY 965m
param *.uav[40].startZ 539m
param *.uav[41].startX 312m
param *.uav[41].startY 1262m
param *.uav[41].startZ 540m
param *.uav[42].startX 2185m
param *.uav[42].startY 3026m
param *.uav[42].startZ 778m
param *.uav[43].startX 3537m
param *.uav[43].startY 965m
param *.uav[43].startZ 539m
param *.uav[44].startX 312m
param *.uav[44].startY 1262m
param *.uav[44].startZ 540m
param *.uav[45].startX 2185m
param *.uav[45].startY 3026m
param *.uav[45].startZ 778m
param *.uav[46].startX 3537m
param *.uav[46].startY 965m
param *.uav[46].startZ 539m
param *.uav[47].startX 312m
param *.uav[47].startY 1262m
param *.uav[47].startZ 540m
param *.uav[48].startX 2185m
param *.uav[48].startY 3026m
param *.uav[48].startZ 778m
param *.uav[49].startX 3537m
param *.uav[49].startY 965m
param *.uav[49].startZ 539m
param *.uav[50].startX 3537m
param *.uav[50].startY 965m
param *.uav[50].startZ 539m
param *.uav[51].startX 312m
param *.uav[51].startY 1262m
param *.uav[51].startZ 540m
param *.uav[52].startX 2185m
param *.uav[52].startY 3026m
param *.uav[52].startZ 778m
param *.uav[53].startX 3537m
param *.uav[53].startY 965m
param *.uav[53].startZ 539m
param *.uav[54].startX 312m
param *.uav[54].startY 1262m
param *.uav[54].startZ 540m
param *.uav[55].startX 2185m
param *.uav[55].startY 3026m
param *.uav[55].startZ 778m
param *.uav[56].startX 3537m
param *.uav[56].startY 965m
param *.uav[56].startZ 539m
param *.uav[57].startX 312m
param *.uav[57].startY 1262m
param *.uav[57].startZ 540m
param *.uav[58].startX 2185m
param *.uav[58].startY 3026m
param *.uav[58].startZ 778m
param *.uav[59].startX 3537m
param *.uav[59].startY 965m
param *.uav[59].startZ 539m
param *.uav[60].startX 3537m
param *.uav[60].startY 965m
param *.uav[60].startZ 539m
param *.uav[61].startX 312m
param *.uav[61].startY 1262m
param *.uav[61].startZ 540m
param *.uav[62].startX 2185m
param *.uav[62].startY 3026m
param *.uav[62].startZ 778m
param *.uav[63].startX 3537m
param *.uav[63].startY 965m
param *.uav[63].startZ 539m
param *.uav[64].startX 312m
param *.uav[64].startY 1262m
param *.uav[64].startZ 540m
param *.uav[65].startX 2185m
param *.uav[65].startY 3026m
param *.uav[65].startZ 778m
param *.uav[66].startX 3537m
param *.uav[66].startY 965m
param *.uav[66].startZ 539m
param *.uav[67].startX 312m
param *.uav[67].startY 1262m
param *.uav[67].startZ 540m
param *.uav[68].startX 2185m
param *.uav[68].startY 3026m
param *.uav[68].startZ 778m
param *.uav[69].startX 3537m
param *.uav[69].startY 965m
param *.uav[69].startZ 539m
param *.uav[70].startX 3537m
param *.uav[70].startY 965m
param *.uav[70].startZ 539m
param *.uav[71].startX 312m
param *.uav[71].startY 1262m
param *.uav[71].startZ 540m
param *.uav[72].startX 2185m
param *.uav[72].startY 3026m
param *.uav[72].startZ 778m
param *.uav[73].startX 3537m
param *.uav[73].startY 965m
param *.uav[73].startZ 539m
param *.uav[74].startX 312m
param *.uav[74].startY 1262m
param *.uav[74].startZ 540m
param *.uav[75].startX 2185m
param *.uav[75].startY 3026m
param *.uav[75].startZ 778m
param *.uav[76].startX 3537m
param *.uav[76].startY 965m
param *.uav[76].startZ 539m
param *.uav[77].startX 312m
param *.uav[77].startY 1262m
param *.uav[77].startZ 540m
param *.uav[78].startX 2185m
param *.uav[78].startY 3026m
param *.uav[78].startZ 778m
param *.uav[79].startX 3537m
param *.uav[79].startY 965m
param *.uav[79].startZ 539m
param *.uav[80].startX 3537m
param *.uav[80].startY 965m
param *.uav[80].startZ 539m
param *.uav[81].startX 312m
param *.uav[81].startY 1262m
param *.uav[81].startZ 540m
param *.uav[82].startX 2185m
param *.uav[82].startY 3026m
param *.uav[82].startZ 778m
param *.uav[83].startX 3537m
param *.uav[83].startY 965m
param *.uav[83].startZ 539m
param *.uav[84].startX 312m
param *.uav[84].startY 1262m
param *.uav[84].startZ 540m
param *.uav[85].startX 2185m
param *.uav[85].startY 3026m
param *.uav[85].startZ 778m
param *.uav[86].startX 3537m
param *.uav[86].startY 965m
param *.uav[86].startZ 539m
param *.uav[87].startX 312m
param *.uav[87].startY 1262m
param *.uav[87].startZ 540m
param *.uav[88].startX 2185m
param *.uav[88].startY 3026m
param *.uav[88].startZ 778m
param *.uav[89].startX 3537m
param *.uav[89].startY 965m
param *.uav[89].startZ 539m
param *.uav[90].startX 3537m
param *.uav[90].startY 965m
param *.uav[90].startZ 539m
param *.uav[91].startX 312m
param *.uav[91].startY 1262m
param *.uav[91].startZ 540m
param *.uav[92].startX 2185m
param *.uav[92].startY 3026m
param *.uav[92].startZ 778m
param *.uav[93].startX 3537m
param *.uav[93].startY 965m
param *.uav[93].startZ 539m
param *.uav[94].startX 312m
param *.uav[94].startY 1262m
param *.uav[94].startZ 540m
param *.uav[95].startX 2185m
param *.uav[95].startY 3026m
param *.uav[95].startZ 778m
param *.uav[96].startX 3537m
param *.uav[96].startY 965m
param *.uav[96].startZ 539m
param *.uav[97].startX 312m
param *.uav[97].startY 1262m
param *.uav[97].startZ 540m
param *.uav[98].startX 2185m
param *.uav[98].startY 3026m
param *.uav[98].startZ 778m
param *.uav[99].startX 3537m
param *.uav[99].startY 965m
param *.uav[99].startZ 539m
param *.osgEarthScene.scene "\"boston.earth\""
param *.playgroundLatitude 42.3558
param *.playgroundLongitude -71.0677
param *.playgroundWidth 400m
param *.playgroundHeight 200m
param *.channelController.connectionColor "\"#0000FF40\""
param *.channelController.showConnections false
param *.uav[*].modelURL "\"quadrocopter.small.obj.15.scale.0,0,90.rot\""
param *.uav[*].labelColor "\"#FF7C00CC\""
param *.uav[*].label2Color "\"#FF7C00EE\""
param *.uav[*].batteryCapacity 5200mAh
param *.uav[*].batteryRemaining uav[index].batteryCapacity
param *.uav[*].predictionQuantile 0.95
param *.uav[*].replacementMethod 2
param *.uav[*].weightedSumWeight 0.5
param *.cs[*].modelURL "\"chargingstation_v1.osgt.2.scale.0,0,0.rot.0,0,-15e-1.trans\""
param *.cs[*].spotsWaiting 999
param *.cs[*].spotsCharging 999
param *.cs[*].chargeEffectivenessPercentage 100
param *.cs[*].nonLinearPhaseStartPercentage 85
param *.cs[*].chargeCurrent 6.0A
param *.cs[*].prioritizeFastCharge true
param *.missionControl.replacementSearchMethod 0
param *.*.timeStep 9s

scalar OsgEarthNet.uav[0] utilizationSecMission 760.62515258028
scalar OsgEarthNet.uav[0] utilizationSecMaintenance 202.91610409653
scalar OsgEarthNet.uav[0] utilizationSecCharge 3500
scalar OsgEarthNet.uav[0] utilizationSecIdle 254736.45774332
scalar OsgEarthNet.uav[0] utilizationEnergyMission 3608.8162078857
scalar OsgEarthNet.uav[0] utilizationEnergyMaintenance 909.34304046631
scalar OsgEarthNet.uav[0] utilizationEnergyCharge 4512.9814453125
scalar OsgEarthNet.uav[0] utilizationEnergyOverdrawMission 0
scalar OsgEarthNet.uav[0] utilizationEnergyOverdrawMaintenance 0
scalar OsgEarthNet.uav[0] utilizationCountMissions 1
scalar OsgEarthNet.uav[0] utilizationCountManeuversMission 12
scalar OsgEarthNet.uav[0] utilizationCountManeuversMaintenance 2
scalar OsgEarthNet.uav[0] utilizationCountChargeState 1
scalar OsgEarthNet.uav[0] utilizationCountOverdrawnAfterMission 0
scalar OsgEarthNet.uav[0] utilizationCountIdleState 2
scalar OsgEarthNet.uav[0] utilizationFail 0
scalar OsgEarthNet.uav[0] simulationTime 259200
scalar OsgEarthNet.uav[1] utilizationSecMission 30636.817552571
scalar OsgEarthNet.uav[1] utilizationSecMaintenance 18308.569557913
scalar OsgEarthNet.uav[1] utilizationSecCharge 185810
scalar OsgEarthNet.uav[1] utilizationSecIdle 24444.611889516
scalar OsgEarthNet.uav[1] utilizationEnergyMission 147537.41495895
scalar OsgEarthNet.uav[1] utilizationEnergyMaintenance 86851.8513029
scalar OsgEarthNet.uav[1] utilizationEnergyCharge 231946.70141602
scalar OsgEarthNet.uav[1] utilizationEnergyOverdrawMission 0
scalar OsgEarthNet.uav[1] utilizationEnergyOverdrawMaintenance 0
scalar OsgEarthNet.uav[1] utilizationCountMissions 58
scalar OsgEarthNet.uav[1] utilizationCountManeuversMission 943
scalar OsgEarthNet.uav[1] utilizationCountManeuversMaintenance 116
scalar OsgEarthNet.uav[1] utilizationCountChargeState 57
scalar OsgEarthNet.uav[1] utilizationCountOverdrawnAfterMission 0
scalar OsgEarthNet.uav[1] utilizationCountIdleState 57
scalar OsgEarthNet.uav[1] utilizationFail 0
scalar OsgEarthNet.uav[1] simulationTime 259200
scalar OsgEarthNet.uav[2] utilizationSecMission 40680.746225879
scalar OsgEarthNet.uav[2] utilizationSecMaintenance 18657.252774121
scalar OsgEarthNet.uav[2] utilizationSecCharge 198250
scalar OsgEarthNet.uav[2] utilizationSecIdle 1612
scalar OsgEarthNet.uav[2] utilizationEnergyMission 198105.04591169
scalar OsgEarthNet.uav[2] utilizationEnergyMaintenance 85182.925437927
scalar OsgEarthNet.uav[2] utilizationEnergyCharge 280262.5234375
scalar OsgEarthNet.uav[2] utilizationEnergyOverdrawMission 0
scalar OsgEarthNet.uav[2] utilizationEnergyOverdrawMaintenance 0
scalar OsgEarthNet.uav[2] utilizationCountMissions 62
scalar OsgEarthNet.uav[2] utilizationCountManeuversMission 1399
scalar OsgEarthNet.uav[2] utilizationCountManeuversMaintenance 125
scalar OsgEarthNet.uav[2] utilizationCountChargeState 62
scalar OsgEarthNet.uav[2] utilizationCountOverdrawnAfterMission 0
scalar OsgEarthNet.uav[2] utilizationCountIdleState 12
scalar OsgEarthNet.uav[2] utilizationFail 0
scalar OsgEarthNet.uav[2] simulationTime 259200
scalar OsgEarthNet.uav[3] utilizationSecMission 28850.033990839
scalar OsgEarthNet.uav[3] utilizationSecMaintenance 18350.073948131
scalar OsgEarthNet.uav[3] utilizationSecCharge 182835.45598508
scalar OsgEarthNet.uav[3] utilizationSecIdle 29164.435075947
scalar OsgEarthNet.uav[3] utilizationEnergyMission 138283.69154739
scalar OsgEarthNet.uav[3] utilizationEnergyMaintenance 86978.547927856
scalar OsgEarthNet.uav[3] utilizationEnergyCharge 224800.82983398
scalar OsgEarthNet.uav[3] utilizationEnergyOverdrawMission 0
scalar OsgEarthNet.uav[3] utilizationEnergyOverdrawMaintenance 0
scalar OsgEarthNet.uav[3] utilizationCountMissions 59
scalar OsgEarthNet.uav[3] utilizationCountManeuversMission 814
scalar OsgEarthNet.uav[3] utilizationCountManeuversMaintenance 118
scalar OsgEarthNet.uav[3] utilizationCountChargeState 59
scalar OsgEarthNet.uav[3] utilizationCountOverdrawnAfterMission 0
scalar OsgEarthNet.uav[3] utilizationCountIdleState 58
scalar OsgEarthNet.uav[3] utilizationFail 0
scalar OsgEarthNet.uav[3] simulationTime 259200
scalar OsgEarthNet.uav[4] utilizationSecMission 31766.82602607
scalar OsgEarthNet.uav[4] utilizationSecMaintenance 17253.52697643
scalar OsgEarthNet.uav[4] utilizationSecCharge 183974.94029846
scalar OsgEarthNet.uav[4] utilizationSecIdle 26204.705699036
scalar OsgEarthNet.uav[4] utilizationEnergyMission 150587.56832886
scalar OsgEarthNet.uav[4] utilizationEnergyMaintenance 82268.203544617
scalar OsgEarthNet.uav[4] utilizationEnergyCharge 230706.14111328
scalar OsgEarthNet.uav[4] utilizationEnergyOverdrawMission 0
scalar OsgEarthNet.uav[4] utilizationEnergyOverdrawMaintenance 0
scalar OsgEarthNet.uav[4] utilizationCountMissions 57
scalar OsgEarthNet.uav[4] utilizationCountManeuversMission 891
scalar OsgEarthNet.uav[4] utilizationCountManeuversMaintenance 114
scalar OsgEarthNet.uav[4] utilizationCountChargeState 57
scalar OsgEarthNet.uav[4] utilizationCountOverdrawnAfterMission 0
scalar OsgEarthNet.uav[4] utilizationCountIdleState 56
scalar OsgEarthNet.uav[4] utilizationFail 0
scalar OsgEarthNet.uav[4] simulationTime 259200
scalar OsgEarthNet.uav[5] utilizationSecMission 40576.747259605
scalar OsgEarthNet.uav[5] utilizationSecMaintenance 18165.765412423
scalar OsgEarthNet.uav[5] utilizationSecCharge 198265.48532797
scalar OsgEarthNet.uav[5] utilizationSecIdle 2192.001
scalar OsgEarthNet.uav[5] utilizationEnergyMission 199012.49442673
scalar OsgEarthNet.uav[5] utilizationEnergyMaintenance 83416.455841064
scalar OsgEarthNet.uav[5] utilizationEnergyCharge 279441.82055664
scalar OsgEarthNet.uav[5] utilizationEnergyOverdrawMission 0
scalar OsgEarthNet.uav[5] utilizationEnergyOverdrawMaintenance 0
scalar OsgEarthNet.uav[5] utilizationCountMissions 62
scalar OsgEarthNet.uav[5] utilizationCountManeuversMission 1414
scalar OsgEarthNet.uav[5] utilizationCountManeuversMaintenance 124
scalar OsgEarthNet.uav[5] utilizationCountChargeState 62
scalar OsgEarthNet.uav[5] utilizationCountOverdrawnAfterMission 0
scalar OsgEarthNet.uav[5] utilizationCountIdleState 12
scalar OsgEarthNet.uav[5] utilizationFail 0
scalar OsgEarthNet.uav[5] simulationTime 259200
scalar OsgEarthNet.uav[6] utilizationSecMission 4081.8754577408
scalar OsgEarthNet.uav[6] utilizationSecMaintenance 2553.750075706
scalar OsgEarthNet.uav[6] utilizationSecCharge 24970
scalar OsgEarthNet.uav[6] utilizationSecIdle 227594.37346655
scalar OsgEarthNet.uav[6] utilizationEnergyMission 19866.82377243
scalar OsgEarthNet.uav[6] utilizationEnergyMaintenance 12367.600128174
scalar OsgEarthNet.uav[6] utilizationEnergyCharge 32368.93359375
scalar OsgEarthNet.uav[6] utilizationEnergyOverdrawMission 0
scalar OsgEarthNet.uav[6] utilizationEnergyOverdrawMaintenance 0
scalar OsgEarthNet.uav[6] utilizationCountMissions 7
scalar OsgEarthNet.uav[6] utilizationCountManeuversMission 126
scalar OsgEarthNet.uav[6] utilizationCountManeuversMaintenance 14
scalar OsgEarthNet.uav[6] utilizationCountChargeState 7
scalar OsgEarthNet.uav[6] utilizationCountOverdrawnAfterMission 0
scalar OsgEarthNet.uav[6] utilizationCountIdleState 8
scalar OsgEarthNet.uav[6] utilizationFail 0
scalar OsgEarthNet.uav[6] simulationTime 259200
scalar OsgEarthNet.uav[7] utilizationSecMission 30366.658382027
scalar OsgEarthNet.uav[7] utilizationSecMaintenance 17361.337617973
scalar OsgEarthNet.uav[7] utilizationSecCharge 183540
scalar OsgEarthNet.uav[7] utilizationSecIdle 27932.003
scalar OsgEarthNet.uav[7] utilizationEnergyMission 145060.89300537
scalar OsgEarthNet.uav[7] utilizationEnergyMaintenance 82403.095474298
scalar OsgEarthNet.uav[7] utilizationEnergyCharge 227912.90844727
scalar OsgEarthNet.uav[7] utilizationEnergyOverdrawMission 0
scalar OsgEarthNet.uav[7] utilizationEnergyOverdrawMaintenance 0
scalar OsgEarthNet.uav[7] utilizationCountMissions 57
scalar OsgEarthNet.uav[7] utilizationCountManeuversMission 825
scalar OsgEarthNet.uav[7] utilizationCountManeuversMaintenance 115
scalar OsgEarthNet.uav[7] utilizationCountChargeState 57
scalar OsgEarthNet.uav[7] utilizationCountOverdrawnAfterMission 0
scalar OsgEarthNet.uav[7] utilizationCountIdleState 58
scalar OsgEarthNet.uav[7] utilizationFail 0
scalar OsgEarthNet.uav[7] simulationTime 259200
scalar OsgEarthNet.uav[8] utilizationSecMission 40550.319307791
scalar OsgEarthNet.uav[8] utilizationSecMaintenance 17652.351108702
scalar OsgEarthNet.uav[8] utilizationSecCharge 199388.1534731
scalar OsgEarthNet.uav[8] utilizationSecIdle 1609.1751104107
scalar OsgEarthNet.uav[8] utilizationEnergyMission 197682.08404541
scalar OsgEarthNet.uav[8] utilizationEnergyMaintenance 81515.681739807
scalar OsgEarthNet.uav[8] utilizationEnergyCharge 279341.56933594
scalar OsgEarthNet.uav[8] utilizationEnergyOverdrawMission 0
scalar OsgEarthNet.uav[8] utilizationEnergyOverdrawMaintenance 0
scalar OsgEarthNet.uav[8] utilizationCountMissions 61
scalar OsgEarthNet.uav[8] utilizationCountManeuversMission 1281
scalar OsgEarthNet.uav[8] utilizationCountManeuversMaintenance 122
scalar OsgEarthNet.uav[8] utilizationCountChargeState 61
scalar OsgEarthNet.uav[8] utilizationCountOverdrawnAfterMission 0
scalar OsgEarthNet.uav[8] utilizationCountIdleState 12
scalar OsgEarthNet.uav[8] utilizationFail 0
scalar OsgEarthNet.uav[8] simulationTime 259200
scalar OsgEarthNet.uav[9] utilizationSecMission 18697.868944793
scalar OsgEarthNet.uav[9] utilizationSecMaintenance 11394.883402968
scalar OsgEarthNet.uav[9] utilizationSecCharge 111775.24065224
scalar OsgEarthNet.uav[9] utilizationSecIdle 117332.006
scalar OsgEarthNet.uav[9] utilizationEnergyMission 91731.796066284
scalar OsgEarthNet.uav[9] utilizationEnergyMaintenance 53453.413635254
scalar OsgEarthNet.uav[9] utilizationEnergyCharge 145163.01293945
scalar OsgEarthNet.uav[9] utilizationEnergyOverdrawMission 0
scalar OsgEarthNet.uav[9] utilizationEnergyOverdrawMaintenance 0
scalar OsgEarthNet.uav[9] utilizationCountMissions 32
scalar OsgEarthNet.uav[9] utilizationCountManeuversMission 601
scalar OsgEarthNet.uav[9] utilizationCountManeuversMaintenance 64
scalar OsgEarthNet.uav[9] utilizationCountChargeState 32
scalar OsgEarthNet.uav[9] utilizationCountOverdrawnAfterMission 0
scalar OsgEarthNet.uav[9] utilizationCountIdleState 32
scalar OsgEarthNet.uav[9] utilizationFail 0
scalar OsgEarthNet.uav[9] simulationTime 259200
scalar OsgEarthNet.uav[10] utilizationSecMission 18887.501830963
scalar OsgEarthNet.uav[10] utilizationSecMaintenance 12160.867289285
scalar OsgEarthNet.uav[10] utilizationSecCharge 115570
scalar OsgEarthNet.uav[10] utilizationSecIdle 112581.62987975
scalar OsgEarthNet.uav[10] utilizationEnergyMission 91960.323959351
scalar OsgEarthNet.uav[10] utilizationEnergyMaintenance 57683.34664154
scalar OsgEarthNet.uav[10] utilizationEnergyCharge 148911.50537109
scalar OsgEarthNet.uav[10] utilizationEnergyOverdrawMission 0
scalar OsgEarthNet.uav[10] utilizationEnergyOverdrawMaintenance 0
scalar OsgEarthNet.uav[10] utilizationCountMissions 33
scalar OsgEarthNet.uav[10] utilizationCountManeuversMission 632
scalar OsgEarthNet.uav[10] utilizationCountManeuversMaintenance 66
scalar OsgEarthNet.uav[10] utilizationCountChargeState 33
scalar OsgEarthNet.uav[10] utilizationCountOverdrawnAfterMission 0
scalar OsgEarthNet.uav[10] utilizationCountIdleState 34
scalar OsgEarthNet.uav[10] utilizationFail 0
scalar OsgEarthNet.uav[10] simulationTime 259200
scalar OsgEarthNet.uav[11] utilizationSecMission 33235.526893917
scalar OsgEarthNet.uav[11] utilizationSecMaintenance 16272.05923036
scalar OsgEarthNet.uav[11] utilizationSecCharge 183540
scalar OsgEarthNet.uav[11] utilizationSecIdle 26152.412875723
scalar OsgEarthNet.uav[11] utilizationEnergyMission 158623.37136371
scalar OsgEarthNet.uav[11] utilizationEnergyMaintenance 77720.559509277
scalar OsgEarthNet.uav[11] utilizationEnergyCharge 231808.06884766
scalar OsgEarthNet.uav[11] utilizationEnergyOverdrawMission 0
scalar OsgEarthNet.uav[11] utilizationEnergyOverdrawMaintenance 0
scalar OsgEarthNet.uav[11] utilizationCountMissions 55
scalar OsgEarthNet.uav[11] utilizationCountManeuversMission 916
scalar OsgEarthNet.uav[11] utilizationCountManeuversMaintenance 111
scalar OsgEarthNet.uav[11] utilizationCountChargeState 55
scalar OsgEarthNet.uav[11] utilizationCountOverdrawnAfterMission 0
scalar OsgEarthNet.uav[11] utilizationCountIdleState 55
scalar OsgEarthNet.uav[11] utilizationFail 0
scalar OsgEarthNet.uav[11] simulationTime 259200
scalar OsgEarthNet.uav[12] utilizationSecMission 41037.500329897
scalar OsgEarthNet.uav[12] utilizationSecMaintenance 17201.957917667
scalar OsgEarthNet.uav[12] utilizationSecCharge 197518.53675244
scalar OsgEarthNet.uav[12] utilizationSecIdle 3442.004
scalar OsgEarthNet.uav[12] utilizationEnergyMission 200716.3809433
scalar OsgEarthNet.uav[12] utilizationEnergyMaintenance 79759.45621872
scalar OsgEarthNet.uav[12] utilizationEnergyCharge 278103.42236328
scalar OsgEarthNet.uav[12] utilizationEnergyOverdrawMission 0
scalar OsgEarthNet.uav[12] utilizationEnergyOverdrawMaintenance 0
scalar OsgEarthNet.uav[12] utilizationCountMissions 61
scalar OsgEarthNet.uav[12] utilizationCountManeuversMission 1364
scalar OsgEarthNet.uav[12] utilizationCountManeuversMaintenance 122
scalar OsgEarthNet.uav[12] utilizationCountChargeState 61
scalar OsgEarthNet.uav[12] utilizationCountOverdrawnAfterMission 0
scalar OsgEarthNet.uav[12] utilizationCountIdleState 11
scalar OsgEarthNet.uav[12] utilizationFail 0
scalar OsgEarthNet.uav[12] simulationTime 259200
scalar OsgEarthNet.uav[13] utilizationSecMission 27619.739778336
scalar OsgEarthNet.uav[13] utilizationSecMaintenance 16127.268352556
scalar OsgEarthNet.uav[13] utilizationSecCharge 161760.99086911
scalar OsgEarthNet.uav[13] utilizationSecIdle 53692
scalar OsgEarthNet.uav[13] utilizationEnergyMission 132555.56006241
scalar OsgEarthNet.uav[13] utilizationEnergyMaintenance 77122.422279358
scalar OsgEarthNet.uav[13] utilizationEnergyCharge 208984.57958984
scalar OsgEarthNet.uav[13] utilizationEnergyOverdrawMission 0
scalar OsgEarthNet.uav[13] utilizationEnergyOverdrawMaintenance 0
scalar OsgEarthNet.uav[13] utilizationCountMissions 46
scalar OsgEarthNet.uav[13] utilizationCountManeuversMission 853
scalar OsgEarthNet.uav[13] utilizationCountManeuversMaintenance 91
scalar OsgEarthNet.uav[13] utilizationCountChargeState 46
scalar OsgEarthNet.uav[13] utilizationCountOverdrawnAfterMission 0
scalar OsgEarthNet.uav[13] utilizationCountIdleState 46
scalar OsgEarthNet.uav[13] utilizationFail 0
scalar OsgEarthNet.uav[13] simulationTime 259200
scalar OsgEarthNet.uav[14] utilizationSecMission 30853.680129341
scalar OsgEarthNet.uav[14] utilizationSecMaintenance 17671.736510521
scalar OsgEarthNet.uav[14] utilizationSecCharge 185252.78754092
scalar OsgEarthNet.uav[14] utilizationSecIdle 25421.794819217
scalar OsgEarthNet.uav[14] utilizationEnergyMission 147928.45285034
scalar OsgEarthNet.uav[14] utilizationEnergyMaintenance 83414.995304108
scalar OsgEarthNet.uav[14] utilizationEnergyCharge 229946.65771484
scalar OsgEarthNet.uav[14] utilizationEnergyOverdrawMission 0
scalar OsgEarthNet.uav[14] utilizationEnergyOverdrawMaintenance 0
scalar OsgEarthNet.uav[14] utilizationCountMissions 58
scalar OsgEarthNet.uav[14] utilizationCountManeuversMission 822
scalar OsgEarthNet.uav[14] utilizationCountManeuversMaintenance 116
scalar OsgEarthNet.uav[14] utilizationCountChargeState 58
scalar OsgEarthNet.uav[14] utilizationCountOverdrawnAfterMission 0
scalar OsgEarthNet.uav[14] utilizationCountIdleState 57
scalar OsgEarthNet.uav[14] utilizationFail 0
scalar OsgEarthNet.uav[14] simulationTime 259200
scalar OsgEarthNet.uav[15] utilizationSecMission 40764.752680264
scalar OsgEarthNet.uav[15] utilizationSecMaintenance 17464.054336482
scalar OsgEarthNet.uav[15] utilizationSecCharge 197159.18898325
scalar OsgEarthNet.uav[15] utilizationSecIdle 3812.003
scalar OsgEarthNet.uav[15] utilizationEnergyMission 202060.16308594
scalar OsgEarthNet.uav[15] utilizationEnergyMaintenance 79205.82101059
scalar OsgEarthNet.uav[15] utilizationEnergyCharge 276743.40893555
scalar OsgEarthNet.uav[15] utilizationEnergyOverdrawMission 0
scalar OsgEarthNet.uav[15] utilizationEnergyOverdrawMaintenance 0
scalar OsgEarthNet.uav[15] utilizationCountMissions 61
scalar OsgEarthNet.uav[15] utilizationCountManeuversMission 1460
scalar OsgEarthNet.uav[15] utilizationCountManeuversMaintenance 122
scalar OsgEarthNet.uav[15] utilizationCountChargeState 61
scalar OsgEarthNet.uav[15] utilizationCountOverdrawnAfterMission 0
scalar OsgEarthNet.uav[15] utilizationCountIdleState 14
scalar OsgEarthNet.uav[15] utilizationFail 0
scalar OsgEarthNet.uav[15] simulationTime 259200
scalar OsgEarthNet.uav[16] utilizationSecMission 22606.876678383
scalar OsgEarthNet.uav[16] utilizationSecMaintenance 15819.831976857
scalar OsgEarthNet.uav[16] utilizationSecCharge 143710
scalar OsgEarthNet.uav[16] utilizationSecIdle 77063.290344759
scalar OsgEarthNet.uav[16] utilizationEnergyMission 112238.58436966
scalar OsgEarthNet.uav[16] utilizationEnergyMaintenance 75312.349510193
scalar OsgEarthNet.uav[16] utilizationEnergyCharge 185172.48535156
scalar OsgEarthNet.uav[16] utilizationEnergyOverdrawMission 0
scalar OsgEarthNet.uav[16] utilizationEnergyOverdrawMaintenance 0
scalar OsgEarthNet.uav[16] utilizationCountMissions 41
scalar OsgEarthNet.uav[16] utilizationCountManeuversMission 844
scalar OsgEarthNet.uav[16] utilizationCountManeuversMaintenance 82
scalar OsgEarthNet.uav[16] utilizationCountChargeState 41
scalar OsgEarthNet.uav[16] utilizationCountOverdrawnAfterMission 0
scalar OsgEarthNet.uav[16] utilizationCountIdleState 42
scalar OsgEarthNet.uav[16] utilizationFail 0
scalar OsgEarthNet.uav[16] simulationTime 259200
scalar OsgEarthNet.uav[17] utilizationSecMission 30837.982531559
scalar OsgEarthNet.uav[17] utilizationSecMaintenance 17551.045697766
scalar OsgEarthNet.uav[17] utilizationSecCharge 183353.65468884
scalar OsgEarthNet.uav[17] utilizationSecIdle 27457.316081831
scalar OsgEarthNet.uav[17] utilizationEnergyMission 149056.22148895
scalar OsgEarthNet.uav[17] utilizationEnergyMaintenance 83054.317405701
scalar OsgEarthNet.uav[17] utilizationEnergyCharge 229197.9621582
scalar OsgEarthNet.uav[17] utilizationEnergyOverdrawMission 0
scalar OsgEarthNet.uav[17] utilizationEnergyOverdrawMaintenance 0
scalar OsgEarthNet.uav[17] utilizationCountMissions 57
scalar OsgEarthNet.uav[17] utilizationCountManeuversMission 911
scalar OsgEarthNet.uav[17] utilizationCountManeuversMaintenance 114
scalar OsgEarthNet.uav[17] utilizationCountChargeState 57
scalar OsgEarthNet.uav[17] utilizationCountOverdrawnAfterMission 0
scalar OsgEarthNet.uav[17] utilizationCountIdleState 57
scalar OsgEarthNet.uav[17] utilizationFail 0
scalar OsgEarthNet.uav[17] simulationTime 259200
scalar OsgEarthNet.uav[18] utilizationSecMission 41121.242986612
scalar OsgEarthNet.uav[18] utilizationSecMaintenance 17412.311816282
scalar OsgEarthNet.uav[18] utilizationSecCharge 196684.43919711
scalar OsgEarthNet.uav[18] utilizationSecIdle 3982.005
scalar OsgEarthNet.uav[18] utilizationEnergyMission 203480.39421844
scalar OsgEarthNet.uav[18] utilizationEnergyMaintenance 80010.540843964
scalar OsgEarthNet.uav[18] utilizationEnergyCharge 278084.87719727
scalar OsgEarthNet.uav[18] utilizationEnergyOverdrawMission 0
scalar OsgEarthNet.uav[18] utilizationEnergyOverdrawMaintenance 0
scalar OsgEarthNet.uav[18] utilizationCountMissions 61
scalar OsgEarthNet.uav[18] utilizationCountManeuversMission 1346
scalar OsgEarthNet.uav[18] utilizationCountManeuversMaintenance 122
scalar OsgEarthNet.uav[18] utilizationCountChargeState 61
scalar OsgEarthNet.uav[18] utilizationCountOverdrawnAfterMission 0
scalar OsgEarthNet.uav[18] utilizationCountIdleState 12
scalar OsgEarthNet.uav[18] utilizationFail 0
scalar OsgEarthNet.uav[18] simulationTime 259200
scalar OsgEarthNet.uav[19] utilizationSecMission 22758.901099795
scalar OsgEarthNet.uav[19] utilizationSecMaintenance 14939.336540703
scalar OsgEarthNet.uav[19] utilizationSecCharge 137069.7523595
scalar OsgEarthNet.uav[19] utilizationSecIdle 84432.009
scalar OsgEarthNet.uav[19] utilizationEnergyMission 110342.57205582
scalar OsgEarthNet.uav[19] utilizationEnergyMaintenance 70881.673778534
scalar OsgEarthNet.uav[19] utilizationEnergyCharge 176944.03686523
scalar OsgEarthNet.uav[19] utilizationEnergyOverdrawMission 0
scalar OsgEarthNet.uav[19] utilizationEnergyOverdrawMaintenance 0
scalar OsgEarthNet.uav[19] utilizationCountMissions 40
scalar OsgEarthNet.uav[19] utilizationCountManeuversMission 786
scalar OsgEarthNet.uav[19] utilizationCountManeuversMaintenance 80
scalar OsgEarthNet.uav[19] utilizationCountChargeState 40
scalar OsgEarthNet.uav[19] utilizationCountOverdrawnAfterMission 0
scalar OsgEarthNet.uav[19] utilizationCountIdleState 40
scalar OsgEarthNet.uav[19] utilizationFail 0
scalar OsgEarthNet.uav[19] simulationTime 259200
scalar OsgEarthNet.uav[20] utilizationSecMission 23600.885632615
scalar OsgEarthNet.uav[20] utilizationSecMaintenance 14163.304437846
scalar OsgEarthNet.uav[20] utilizationSecCharge 140970
scalar OsgEarthNet.uav[20] utilizationSecIdle 80465.808929538
scalar OsgEarthNet.uav[20] utilizationEnergyMission 113951.86396408
scalar OsgEarthNet.uav[20] utilizationEnergyMaintenance 66952.004772186
scalar OsgEarthNet.uav[20] utilizationEnergyCharge 181830.34667969
scalar OsgEarthNet.uav[20] utilizationEnergyOverdrawMission 0
scalar OsgEarthNet.uav[20] utilizationEnergyOverdrawMaintenance 0
scalar OsgEarthNet.uav[20] utilizationCountMissions 40
scalar OsgEarthNet.uav[20] utilizationCountManeuversMission 733
scalar OsgEarthNet.uav[20] utilizationCountManeuversMaintenance 80
scalar OsgEarthNet.uav[20] utilizationCountChargeState 40
scalar OsgEarthNet.uav[20] utilizationCountOverdrawnAfterMission 0
scalar OsgEarthNet.uav[20] utilizationCountIdleState 41
scalar OsgEarthNet.uav[20] utilizationFail 0
scalar OsgEarthNet.uav[20] simulationTime 259200
scalar OsgEarthNet.uav[21] utilizationSecMission 30672.497942217
scalar OsgEarthNet.uav[21] utilizationSecMaintenance 19095.500057783
scalar OsgEarthNet.uav[21] utilizationSecCharge 187590
scalar OsgEarthNet.uav[21] utilizationSecIdle 21842.001
scalar OsgEarthNet.uav[21] utilizationEnergyMission 150897.25875854
scalar OsgEarthNet.uav[21] utilizationEnergyMaintenance 90458.281384983
scalar OsgEarthNet.uav[21] utilizationEnergyCharge 236938.78637695
scalar OsgEarthNet.uav[21] utilizationEnergyOverdrawMission 0
scalar OsgEarthNet.uav[21] utilizationEnergyOverdrawMaintenance 0
scalar OsgEarthNet.uav[21] utilizationCountMissions 57
scalar OsgEarthNet.uav[21] utilizationCountManeuversMission 1032
scalar OsgEarthNet.uav[21] utilizationCountManeuversMaintenance 114
scalar OsgEarthNet.uav[21] utilizationCountChargeState 56
scalar OsgEarthNet.uav[21] utilizationCountOverdrawnAfterMission 0
scalar OsgEarthNet.uav[21] utilizationCountIdleState 57
scalar OsgEarthNet.uav[21] utilizationFail 0
scalar OsgEarthNet.uav[21] simulationTime 259200
scalar OsgEarthNet.uav[22] utilizationSecMission 41120.235952737
scalar OsgEarthNet.uav[22] utilizationSecMaintenance 16384.372898502
scalar OsgEarthNet.uav[22] utilizationSecCharge 197720
scalar OsgEarthNet.uav[22] utilizationSecIdle 3975.3901487603
scalar OsgEarthNet.uav[22] utilizationEnergyMission 202695.43096924
scalar OsgEarthNet.uav[22] utilizationEnergyMaintenance 75165.462722778
scalar OsgEarthNet.uav[22] utilizationEnergyCharge 274419.41992188
scalar OsgEarthNet.uav[22] utilizationEnergyOverdrawMission 0
scalar OsgEarthNet.uav[22] utilizationEnergyOverdrawMaintenance 0
scalar OsgEarthNet.uav[22] utilizationCountMissions 60
scalar OsgEarthNet.uav[22] utilizationCountManeuversMission 1298
scalar OsgEarthNet.uav[22] utilizationCountManeuversMaintenance 120
scalar OsgEarthNet.uav[22] utilizationCountChargeState 60
scalar OsgEarthNet.uav[22] utilizationCountOverdrawnAfterMission 0
scalar OsgEarthNet.uav[22] utilizationCountIdleState 12
scalar OsgEarthNet.uav[22] utilizationFail 0
scalar OsgEarthNet.uav[22] simulationTime 259200
scalar OsgEarthNet.uav[23] utilizationSecMission 40638.212367394
scalar OsgEarthNet.uav[23] utilizationSecMaintenance 16987.888238323
scalar OsgEarthNet.uav[23] utilizationSecCharge 195920
scalar OsgEarthNet.uav[23] utilizationSecIdle 5653.8983942837
scalar OsgEarthNet.uav[23] utilizationEnergyMission 199388.43558121
scalar OsgEarthNet.uav[23] utilizationEnergyMaintenance 78593.535173573
scalar OsgEarthNet.uav[23] utilizationEnergyCharge 270861.14306641
scalar OsgEarthNet.uav[23] utilizationEnergyOverdrawMission 0
scalar OsgEarthNet.uav[23] utilizationEnergyOverdrawMaintenance 0
scalar OsgEarthNet.uav[23] utilizationCountMissions 60
scalar OsgEarthNet.uav[23] utilizationCountManeuversMission 1318
scalar OsgEarthNet.uav[23] utilizationCountManeuversMaintenance 120
scalar OsgEarthNet.uav[23] utilizationCountChargeState 59
scalar OsgEarthNet.uav[23] utilizationCountOverdrawnAfterMission 0
scalar OsgEarthNet.uav[23] utilizationCountIdleState 16
scalar OsgEarthNet.uav[23] utilizationFail 0
scalar OsgEarthNet.uav[23] simulationTime 259200
scalar OsgEarthNet.uav[24] utilizationSecMission 29767.342268088
scalar OsgEarthNet.uav[24] utilizationSecMaintenance 17732.723146594
scalar OsgEarthNet.uav[24] utilizationSecCharge 182776.13068545
scalar OsgEarthNet.uav[24] utilizationSecIdle 28923.802899869
scalar OsgEarthNet.uav[24] utilizationEnergyMission 143452.85006332
scalar OsgEarthNet.uav[24] utilizationEnergyMaintenance 84226.963302612
scalar OsgEarthNet.uav[24] utilizationEnergyCharge 224902.66430664
scalar OsgEarthNet.uav[24] utilizationEnergyOverdrawMission 0
scalar OsgEarthNet.uav[24] utilizationEnergyOverdrawMaintenance 0
scalar OsgEarthNet.uav[24] utilizationCountMissions 59
scalar OsgEarthNet.uav[24] utilizationCountManeuversMission 811
scalar OsgEarthNet.uav[24] utilizationCountManeuversMaintenance 118
scalar OsgEarthNet.uav[24] utilizationCountChargeState 59
scalar OsgEarthNet.uav[24] utilizationCountOverdrawnAfterMission 0
scalar OsgEarthNet.uav[24] utilizationCountIdleState 57
scalar OsgEarthNet.uav[24] utilizationFail 0
scalar OsgEarthNet.uav[24] simulationTime 259200
scalar OsgEarthNet.uav[25] utilizationSecMission 41056.417674616
scalar OsgEarthNet.uav[25] utilizationSecMaintenance 17160.66848518
scalar OsgEarthNet.uav[25] utilizationSecCharge 199703.69322629
scalar OsgEarthNet.uav[25] utilizationSecIdle 1279.2196139157
scalar OsgEarthNet.uav[25] utilizationEnergyMission 199474.15164185
scalar OsgEarthNet.uav[25] utilizationEnergyMaintenance 78531.333782196
scalar OsgEarthNet.uav[25] utilizationEnergyCharge 277900.33740234
scalar OsgEarthNet.uav[25] utilizationEnergyOverdrawMission 0
scalar OsgEarthNet.uav[25] utilizationEnergyOverdrawMaintenance 0
scalar OsgEarthNet.uav[25] utilizationCountMissions 61
scalar OsgEarthNet.uav[25] utilizationCountManeuversMission 1272
scalar OsgEarthNet.uav[25] utilizationCountManeuversMaintenance 122
scalar OsgEarthNet.uav[25] utilizationCountChargeState 61
scalar OsgEarthNet.uav[25] utilizationCountOverdrawnAfterMission 0
scalar OsgEarthNet.uav[25] utilizationCountIdleState 8
scalar OsgEarthNet.uav[25] utilizationFail 0
scalar OsgEarthNet.uav[25] simulationTime 259200
scalar OsgEarthNet.uav[26] utilizationSecMission 32404.493054366
scalar OsgEarthNet.uav[26] utilizationSecMaintenance 16074.444606824
scalar OsgEarthNet.uav[26] utilizationSecCharge 181549.05933881
scalar OsgEarthNet.uav[26] utilizationSecIdle 29172.002
scalar OsgEarthNet.uav[26] utilizationEnergyMission 156454.51760101
scalar OsgEarthNet.uav[26] utilizationEnergyMaintenance 75819.277515411
scalar OsgEarthNet.uav[26] utilizationEnergyCharge 229474.26074219
scalar OsgEarthNet.uav[26] utilizationEnergyOverdrawMission 0
scalar OsgEarthNet.uav[26] utilizationEnergyOverdrawMaintenance 0
scalar OsgEarthNet.uav[26] utilizationCountMissions 55
scalar OsgEarthNet.uav[26] utilizationCountManeuversMission 869
scalar OsgEarthNet.uav[26] utilizationCountManeuversMaintenance 110
scalar OsgEarthNet.uav[26] utilizationCountChargeState 55
scalar OsgEarthNet.uav[26] utilizationCountOverdrawnAfterMission 0
scalar OsgEarthNet.uav[26] utilizationCountIdleState 55
scalar OsgEarthNet.uav[26] utilizationFail 0
scalar OsgEarthNet.uav[26] simulationTime 259200
scalar OsgEarthNet.uav[27] utilizationSecMission 31375.40646596
scalar OsgEarthNet.uav[27] utilizationSecMaintenance 17872.591027318
scalar OsgEarthNet.uav[27] utilizationSecCharge 186210
scalar OsgEarthNet.uav[27] utilizationSecIdle 23742.001506722
scalar OsgEarthNet.uav[27] utilizationEnergyMission 151577.30101434
scalar OsgEarthNet.uav[27] utilizationEnergyMaintenance 84220.903057098
scalar OsgEarthNet.uav[27] utilizationEnergyCharge 234469.40869141
scalar OsgEarthNet.uav[27] utilizationEnergyOverdrawMission 0
scalar OsgEarthNet.uav[27] utilizationEnergyOverdrawMaintenance 0
scalar OsgEarthNet.uav[27] utilizationCountMissions 56
scalar OsgEarthNet.uav[27] utilizationCountManeuversMission 937
scalar OsgEarthNet.uav[27] utilizationCountManeuversMaintenance 113
scalar OsgEarthNet.uav[27] utilizationCountChargeState 56
scalar OsgEarthNet.uav[27] utilizationCountOverdrawnAfterMission 0
scalar OsgEarthNet.uav[27] utilizationCountIdleState 54
scalar OsgEarthNet.uav[27] utilizationFail 0
scalar OsgEarthNet.uav[27] simulationTime 259200
scalar OsgEarthNet.uav[28] utilizationSecMission 40761.077960693
scalar OsgEarthNet.uav[28] utilizationSecMaintenance 17327.982544538
scalar OsgEarthNet.uav[28] utilizationSecCharge 198281.51314748
scalar OsgEarthNet.uav[28] utilizationSecIdle 2829.4253472904
scalar OsgEarthNet.uav[28] utilizationEnergyMission 199161.24292374
scalar OsgEarthNet.uav[28] utilizationEnergyMaintenance 79545.172725678
scalar OsgEarthNet.uav[28] utilizationEnergyCharge 276660.43041992
scalar OsgEarthNet.uav[28] utilizationEnergyOverdrawMission 0
scalar OsgEarthNet.uav[28] utilizationEnergyOverdrawMaintenance 0
scalar OsgEarthNet.uav[28] utilizationCountMissions 61
scalar OsgEarthNet.uav[28] utilizationCountManeuversMission 1318
scalar OsgEarthNet.uav[28] utilizationCountManeuversMaintenance 122
scalar OsgEarthNet.uav[28] utilizationCountChargeState 61
scalar OsgEarthNet.uav[28] utilizationCountOverdrawnAfterMission 0
scalar OsgEarthNet.uav[28] utilizationCountIdleState 14
scalar OsgEarthNet.uav[28] utilizationFail 0
scalar OsgEarthNet.uav[28] simulationTime 259200
scalar OsgEarthNet.uav[29] utilizationSecMission 25680.885632615
scalar OsgEarthNet.uav[29] utilizationSecMaintenance 15865.632702734
scalar OsgEarthNet.uav[29] utilizationSecCharge 152731.47666465
scalar OsgEarthNet.uav[29] utilizationSecIdle 64922.004
scalar OsgEarthNet.uav[29] utilizationEnergyMission 123310.73617554
scalar OsgEarthNet.uav[29] utilizationEnergyMaintenance 75675.928829193
scalar OsgEarthNet.uav[29] utilizationEnergyCharge 197442.56640625
scalar OsgEarthNet.uav[29] utilizationEnergyOverdrawMission 0
scalar OsgEarthNet.uav[29] utilizationEnergyOverdrawMaintenance 0
scalar OsgEarthNet.uav[29] utilizationCountMissions 44
scalar OsgEarthNet.uav[29] utilizationCountManeuversMission 837
scalar OsgEarthNet.uav[29] utilizationCountManeuversMaintenance 88
scalar OsgEarthNet.uav[29] utilizationCountChargeState 44
scalar OsgEarthNet.uav[29] utilizationCountOverdrawnAfterMission 0
scalar OsgEarthNet.uav[29] utilizationCountIdleState 44
scalar OsgEarthNet.uav[29] utilizationFail 0
scalar OsgEarthNet.uav[29] simulationTime 259200
scalar OsgEarthNet.uav[30] utilizationSecMission 25839.744402534
scalar OsgEarthNet.uav[30] utilizationSecMaintenance 16838.251597466
scalar OsgEarthNet.uav[30] utilizationSecCharge 160830
scalar OsgEarthNet.uav[30] utilizationSecIdle 55692.003
scalar OsgEarthNet.uav[30] utilizationEnergyMission 126364.03672791
scalar OsgEarthNet.uav[30] utilizationEnergyMaintenance 79942.939940846
scalar OsgEarthNet.uav[30] utilizationEnergyCharge 206716.62695312
scalar OsgEarthNet.uav[30] utilizationEnergyOverdrawMission 0
scalar OsgEarthNet.uav[30] utilizationEnergyOverdrawMaintenance 0
scalar OsgEarthNet.uav[30] utilizationCountMissions 46
scalar OsgEarthNet.uav[30] utilizationCountManeuversMission 880
scalar OsgEarthNet.uav[30] utilizationCountManeuversMaintenance 93
scalar OsgEarthNet.uav[30] utilizationCountChargeState 46
scalar OsgEarthNet.uav[30] utilizationCountOverdrawnAfterMission 0
scalar OsgEarthNet.uav[30] utilizationCountIdleState 47
scalar OsgEarthNet.uav[30] utilizationFail 0
scalar OsgEarthNet.uav[30] simulationTime 259200
scalar OsgEarthNet.uav[31] utilizationSecMission 31614.829415469
scalar OsgEarthNet.uav[31] utilizationSecMaintenance 16870.78646538
scalar OsgEarthNet.uav[31] utilizationSecCharge 183502.37911915
scalar OsgEarthNet.uav[31] utilizationSecIdle 27212.004
scalar OsgEarthNet.uav[31] utilizationEnergyMission 151113.23672867
scalar OsgEarthNet.uav[31] utilizationEnergyMaintenance 80576.518383026
scalar OsgEarthNet.uav[31] utilizationEnergyCharge 229538.14282227
scalar OsgEarthNet.uav[31] utilizationEnergyOverdrawMission 0
scalar OsgEarthNet.uav[31] utilizationEnergyOverdrawMaintenance 0
scalar OsgEarthNet.uav[31] utilizationCountMissions 57
scalar OsgEarthNet.uav[31] utilizationCountManeuversMission 840
scalar OsgEarthNet.uav[31] utilizationCountManeuversMaintenance 114
scalar OsgEarthNet.uav[31] utilizationCountChargeState 57
scalar OsgEarthNet.uav[31] utilizationCountOverdrawnAfterMission 0
scalar OsgEarthNet.uav[31] utilizationCountIdleState 56
scalar OsgEarthNet.uav[31] utilizationFail 0
scalar OsgEarthNet.uav[31] simulationTime 259200
scalar OsgEarthNet.uav[32] utilizationSecMission 41868.730620213
scalar OsgEarthNet.uav[32] utilizationSecMaintenance 15990.945946694
scalar OsgEarthNet.uav[32] utilizationSecCharge 196821.4742733
scalar OsgEarthNet.uav[32] utilizationSecIdle 4518.8481597938
scalar OsgEarthNet.uav[32] utilizationEnergyMission 204154.7742157
scalar OsgEarthNet.uav[32] utilizationEnergyMaintenance 72846.700283051
scalar OsgEarthNet.uav[32] utilizationEnergyCharge 275159.87939453
scalar OsgEarthNet.uav[32] utilizationEnergyOverdrawMission 0
scalar OsgEarthNet.uav[32] utilizationEnergyOverdrawMaintenance 0
scalar OsgEarthNet.uav[32] utilizationCountMissions 60
scalar OsgEarthNet.uav[32] utilizationCountManeuversMission 1245
scalar OsgEarthNet.uav[32] utilizationCountManeuversMaintenance 120
scalar OsgEarthNet.uav[32] utilizationCountChargeState 60
scalar OsgEarthNet.uav[32] utilizationCountOverdrawnAfterMission 0
scalar OsgEarthNet.uav[32] utilizationCountIdleState 13
scalar OsgEarthNet.uav[32] utilizationFail 0
scalar OsgEarthNet.uav[32] simulationTime 259200
scalar OsgEarthNet.uav[33] utilizationSecMission 24248.126983544
scalar OsgEarthNet.uav[33] utilizationSecMaintenance 16653.604803438
scalar OsgEarthNet.uav[33] utilizationSecCharge 151046.26021302
scalar OsgEarthNet.uav[33] utilizationSecIdle 67252.007
scalar OsgEarthNet.uav[33] utilizationEnergyMission 120764.10279083
scalar OsgEarthNet.uav[33] utilizationEnergyMaintenance 78484.923030853
scalar OsgEarthNet.uav[33] utilizationEnergyCharge 194324.87231445
scalar OsgEarthNet.uav[33] utilizationEnergyOverdrawMission 0
scalar OsgEarthNet.uav[33] utilizationEnergyOverdrawMaintenance 0
scalar OsgEarthNet.uav[33] utilizationCountMissions 44
scalar OsgEarthNet.uav[33] utilizationCountManeuversMission 874
scalar OsgEarthNet.uav[33] utilizationCountManeuversMaintenance 88
scalar OsgEarthNet.uav[33] utilizationCountChargeState 44
scalar OsgEarthNet.uav[33] utilizationCountOverdrawnAfterMission 0
scalar OsgEarthNet.uav[33] utilizationCountIdleState 44
scalar OsgEarthNet.uav[33] utilizationFail 0
scalar OsgEarthNet.uav[33] simulationTime 259200
scalar OsgEarthNet.uav[34] utilizationSecMission 29337.711979681
scalar OsgEarthNet.uav[34] utilizationSecMaintenance 18093.93341744
scalar OsgEarthNet.uav[34] utilizationSecCharge 184760
scalar OsgEarthNet.uav[34] utilizationSecIdle 27008.353602879
scalar OsgEarthNet.uav[34] utilizationEnergyMission 140144.95380022
scalar OsgEarthNet.uav[34] utilizationEnergyMaintenance 86266.335189819
scalar OsgEarthNet.uav[34] utilizationEnergyCharge 228363.76953125
scalar OsgEarthNet.uav[34] utilizationEnergyOverdrawMission 0
scalar OsgEarthNet.uav[34] utilizationEnergyOverdrawMaintenance 0
scalar OsgEarthNet.uav[34] utilizationCountMissions 58
scalar OsgEarthNet.uav[34] utilizationCountManeuversMission 836
scalar OsgEarthNet.uav[34] utilizationCountManeuversMaintenance 117
scalar OsgEarthNet.uav[34] utilizationCountChargeState 58
scalar OsgEarthNet.uav[34] utilizationCountOverdrawnAfterMission 0
scalar OsgEarthNet.uav[34] utilizationCountIdleState 57
scalar OsgEarthNet.uav[34] utilizationFail 0
scalar OsgEarthNet.uav[34] simulationTime 259200
scalar OsgEarthNet.uav[35] utilizationSecMission 41528.301724377
scalar OsgEarthNet.uav[35] utilizationSecMaintenance 16944.938523899
scalar OsgEarthNet.uav[35] utilizationSecCharge 199194.75875172
scalar OsgEarthNet.uav[35] utilizationSecIdle 1532
scalar OsgEarthNet.uav[35] utilizationEnergyMission 201755.93022537
scalar OsgEarthNet.uav[35] utilizationEnergyMaintenance 77481.39289093
scalar OsgEarthNet.uav[35] utilizationEnergyCharge 278376.08007812
scalar OsgEarthNet.uav[35] utilizationEnergyOverdrawMission 0
scalar OsgEarthNet.uav[35] utilizationEnergyOverdrawMaintenance 0
scalar OsgEarthNet.uav[35] utilizationCountMissions 61
scalar OsgEarthNet.uav[35] utilizationCountManeuversMission 1238
scalar OsgEarthNet.uav[35] utilizationCountManeuversMaintenance 122
scalar OsgEarthNet.uav[35] utilizationCountChargeState 61
scalar OsgEarthNet.uav[35] utilizationCountOverdrawnAfterMission 0
scalar OsgEarthNet.uav[35] utilizationCountIdleState 12
scalar OsgEarthNet.uav[35] utilizationFail 0
scalar OsgEarthNet.uav[35] simulationTime 259200
scalar OsgEarthNet.uav[36] utilizationSecMission 28413.237279265
scalar OsgEarthNet.uav[36] utilizationSecMaintenance 15851.241655052
scalar OsgEarthNet.uav[36] utilizationSecCharge 163853.51906568
scalar OsgEarthNet.uav[36] utilizationSecIdle 51082.001
scalar OsgEarthNet.uav[36] utilizationEnergyMission 138085.95201111
scalar OsgEarthNet.uav[36] utilizationEnergyMaintenance 75281.340961456
scalar OsgEarthNet.uav[36] utilizationEnergyCharge 211697.37548828
scalar OsgEarthNet.uav[36] utilizationEnergyOverdrawMission 0
scalar OsgEarthNet.uav[36] utilizationEnergyOverdrawMaintenance 0
scalar OsgEarthNet.uav[36] utilizationCountMissions 47
scalar OsgEarthNet.uav[36] utilizationCountManeuversMission 857
scalar OsgEarthNet.uav[36] utilizationCountManeuversMaintenance 94
scalar OsgEarthNet.uav[36] utilizationCountChargeState 47
scalar OsgEarthNet.uav[36] utilizationCountOverdrawnAfterMission 0
scalar OsgEarthNet.uav[36] utilizationCountIdleState 47
scalar OsgEarthNet.uav[36] utilizationFail 0
scalar OsgEarthNet.uav[36] simulationTime 259200
scalar OsgEarthNet.uav[37] utilizationSecMission 32185.326208811
scalar OsgEarthNet.uav[37] utilizationSecMaintenance 16549.617289326
scalar OsgEarthNet.uav[37] utilizationSecCharge 182467.24990844
scalar OsgEarthNet.uav[37] utilizationSecIdle 27997.80559342
scalar OsgEarthNet.uav[37] utilizationEnergyMission 154038.68750763
scalar OsgEarthNet.uav[37] utilizationEnergyMaintenance 78890.210929871
scalar OsgEarthNet.uav[37] utilizationEnergyCharge 228808.29956055
scalar OsgEarthNet.uav[37] utilizationEnergyOverdrawMission 0
scalar OsgEarthNet.uav[37] utilizationEnergyOverdrawMaintenance 0
scalar OsgEarthNet.uav[37] utilizationCountMissions 57
scalar OsgEarthNet.uav[37] utilizationCountManeuversMission 825
scalar OsgEarthNet.uav[37] utilizationCountManeuversMaintenance 114
scalar OsgEarthNet.uav[37] utilizationCountChargeState 57
scalar OsgEarthNet.uav[37] utilizationCountOverdrawnAfterMission 0
scalar OsgEarthNet.uav[37] utilizationCountIdleState 52
scalar OsgEarthNet.uav[37] utilizationFail 0
scalar OsgEarthNet.uav[37] simulationTime 259200
scalar OsgEarthNet.uav[38] utilizationSecMission 41730.349516781
scalar OsgEarthNet.uav[38] utilizationSecMaintenance 16647.648483219
scalar OsgEarthNet.uav[38] utilizationSecCharge 198780
scalar OsgEarthNet.uav[38] utilizationSecIdle 2042.001
scalar OsgEarthNet.uav[38] utilizationEnergyMission 200648.42685068
scalar OsgEarthNet.uav[38] utilizationEnergyMaintenance 77426.319534302
scalar OsgEarthNet.uav[38] utilizationEnergyCharge 276223.65673828
scalar OsgEarthNet.uav[38] utilizationEnergyOverdrawMission 0
scalar OsgEarthNet.uav[38] utilizationEnergyOverdrawMaintenance 0
scalar OsgEarthNet.uav[38] utilizationCountMissions 60
scalar OsgEarthNet.uav[38] utilizationCountManeuversMission 1270
scalar OsgEarthNet.uav[38] utilizationCountManeuversMaintenance 121
scalar OsgEarthNet.uav[38] utilizationCountChargeState 60
scalar OsgEarthNet.uav[38] utilizationCountOverdrawnAfterMission 0
scalar OsgEarthNet.uav[38] utilizationCountIdleState 13
scalar OsgEarthNet.uav[38] utilizationFail 0
scalar OsgEarthNet.uav[38] simulationTime 259200
scalar OsgEarthNet.uav[39] utilizationSecMission 23417.243792213
scalar OsgEarthNet.uav[39] utilizationSecMaintenance 16396.14327109
scalar OsgEarthNet.uav[39] utilizationSecCharge 148134.5989367
scalar OsgEarthNet.uav[39] utilizationSecIdle 71252.013
scalar OsgEarthNet.uav[39] utilizationEnergyMission 116119.51409531
scalar OsgEarthNet.uav[39] utilizationEnergyMaintenance 77526.336429596
scalar OsgEarthNet.uav[39] utilizationEnergyCharge 190985.78710938
scalar OsgEarthNet.uav[39] utilizationEnergyOverdrawMission 0
scalar OsgEarthNet.uav[39] utilizationEnergyOverdrawMaintenance 0
scalar OsgEarthNet.uav[39] utilizationCountMissions 43
scalar OsgEarthNet.uav[39] utilizationCountManeuversMission 863
scalar OsgEarthNet.uav[39] utilizationCountManeuversMaintenance 86
scalar OsgEarthNet.uav[39] utilizationCountChargeState 43
scalar OsgEarthNet.uav[39] utilizationCountOverdrawnAfterMission 0
scalar OsgEarthNet.uav[39] utilizationCountIdleState 43
scalar OsgEarthNet.uav[39] utilizationFail 0
scalar OsgEarthNet.uav[39] simulationTime 259200
scalar OsgEarthNet.uav[40] utilizationSecMission 27642.761090356
scalar OsgEarthNet.uav[40] utilizationSecMaintenance 16357.855331716
scalar OsgEarthNet.uav[40] utilizationSecCharge 164697.24276478
scalar OsgEarthNet.uav[40] utilizationSecIdle 50502.139813144
scalar OsgEarthNet.uav[40] utilizationEnergyMission 133008.37770081
scalar OsgEarthNet.uav[40] utilizationEnergyMaintenance 76911.077178955
scalar OsgEarthNet.uav[40] utilizationEnergyCharge 212445.51220703
scalar OsgEarthNet.uav[40] utilizationEnergyOverdrawMission 0
scalar OsgEarthNet.uav[40] utilizationEnergyOverdrawMaintenance 0
scalar OsgEarthNet.uav[40] utilizationCountMissions 47
scalar OsgEarthNet.uav[40] utilizationCountManeuversMission 857
scalar OsgEarthNet.uav[40] utilizationCountManeuversMaintenance 94
scalar OsgEarthNet.uav[40] utilizationCountChargeState 47
scalar OsgEarthNet.uav[40] utilizationCountOverdrawnAfterMission 0
scalar OsgEarthNet.uav[40] utilizationCountIdleState 47
scalar OsgEarthNet.uav[40] utilizationFail 0
scalar OsgEarthNet.uav[40] simulationTime 259200
scalar OsgEarthNet.uav[41] utilizationSecMission 31686.619226207
scalar OsgEarthNet.uav[41] utilizationSecMaintenance 17163.830486415
scalar OsgEarthNet.uav[41] utilizationSecCharge 184807.54428738
scalar OsgEarthNet.uav[41] utilizationSecIdle 25542.005
scalar OsgEarthNet.uav[41] utilizationEnergyMission 151605.35475159
scalar OsgEarthNet.uav[41] utilizationEnergyMaintenance 81354.314910889
scalar OsgEarthNet.uav[41] utilizationEnergyCharge 233659.35083008
scalar OsgEarthNet.uav[41] utilizationEnergyOverdrawMission 0
scalar OsgEarthNet.uav[41] utilizationEnergyOverdrawMaintenance 0
scalar OsgEarthNet.uav[41] utilizationCountMissions 56
scalar OsgEarthNet.uav[41] utilizationCountManeuversMission 910
scalar OsgEarthNet.uav[41] utilizationCountManeuversMaintenance 112
scalar OsgEarthNet.uav[41] utilizationCountChargeState 56
scalar OsgEarthNet.uav[41] utilizationCountOverdrawnAfterMission 0
scalar OsgEarthNet.uav[41] utilizationCountIdleState 54
scalar OsgEarthNet.uav[41] utilizationFail 0
scalar OsgEarthNet.uav[41] simulationTime 259200
scalar OsgEarthNet.uav[42] utilizationSecMission 40915.265796198
scalar OsgEarthNet.uav[42] utilizationSecMaintenance 17491.029132999
scalar OsgEarthNet.uav[42] utilizationSecCharge 198471.7020708
scalar OsgEarthNet.uav[42] utilizationSecIdle 2322.002
scalar OsgEarthNet.uav[42] utilizationEnergyMission 199638.85443115
scalar OsgEarthNet.uav[42] utilizationEnergyMaintenance 81248.985267639
scalar OsgEarthNet.uav[42] utilizationEnergyCharge 280032.92608643
scalar OsgEarthNet.uav[42] utilizationEnergyOverdrawMission 0
scalar OsgEarthNet.uav[42] utilizationEnergyOverdrawMaintenance 0
scalar OsgEarthNet.uav[42] utilizationCountMissions 62
scalar OsgEarthNet.uav[42] utilizationCountManeuversMission 1395
scalar OsgEarthNet.uav[42] utilizationCountManeuversMaintenance 124
scalar OsgEarthNet.uav[42] utilizationCountChargeState 62
scalar OsgEarthNet.uav[42] utilizationCountOverdrawnAfterMission 0
scalar OsgEarthNet.uav[42] utilizationCountIdleState 10
scalar OsgEarthNet.uav[42] utilizationFail 0
scalar OsgEarthNet.uav[42] simulationTime 259200
scalar OsgEarthNet.uav[43] utilizationSecMission 39628.287694031
scalar OsgEarthNet.uav[43] utilizationSecMaintenance 17991.644707163
scalar OsgEarthNet.uav[43] utilizationSecCharge 197919.11734314
scalar OsgEarthNet.uav[43] utilizationSecIdle 3660.9492556647
scalar OsgEarthNet.uav[43] utilizationEnergyMission 194492.30185318
scalar OsgEarthNet.uav[43] utilizationEnergyMaintenance 83302.954219818
scalar OsgEarthNet.uav[43] utilizationEnergyCharge 278398.66308594
scalar OsgEarthNet.uav[43] utilizationEnergyOverdrawMission 0
scalar OsgEarthNet.uav[43] utilizationEnergyOverdrawMaintenance 0
scalar OsgEarthNet.uav[43] utilizationCountMissions 61
scalar OsgEarthNet.uav[43] utilizationCountManeuversMission 1329
scalar OsgEarthNet.uav[43] utilizationCountManeuversMaintenance 122
scalar OsgEarthNet.uav[43] utilizationCountChargeState 61
scalar OsgEarthNet.uav[43] utilizationCountOverdrawnAfterMission 0
scalar OsgEarthNet.uav[43] utilizationCountIdleState 8
scalar OsgEarthNet.uav[43] utilizationFail 0
scalar OsgEarthNet.uav[43] simulationTime 259200
scalar OsgEarthNet.uav[44] utilizationSecMission 32252.873640261
scalar OsgEarthNet.uav[44] utilizationSecMaintenance 16401.163465881
scalar OsgEarthNet.uav[44] utilizationSecCharge 183563.95589386
scalar OsgEarthNet.uav[44] utilizationSecIdle 26982.006
scalar OsgEarthNet.uav[44] utilizationEnergyMission 155185.36281967
scalar OsgEarthNet.uav[44] utilizationEnergyMaintenance 78241.597400665
scalar OsgEarthNet.uav[44] utilizationEnergyCharge 232960.83203125
scalar OsgEarthNet.uav[44] utilizationEnergyOverdrawMission 0
scalar OsgEarthNet.uav[44] utilizationEnergyOverdrawMaintenance 0
scalar OsgEarthNet.uav[44] utilizationCountMissions 55
scalar OsgEarthNet.uav[44] utilizationCountManeuversMission 889
scalar OsgEarthNet.uav[44] utilizationCountManeuversMaintenance 110
scalar OsgEarthNet.uav[44] utilizationCountChargeState 55
scalar OsgEarthNet.uav[44] utilizationCountOverdrawnAfterMission 0
scalar OsgEarthNet.uav[44] utilizationCountIdleState 54
scalar OsgEarthNet.uav[44] utilizationFail 0
scalar OsgEarthNet.uav[44] simulationTime 259200
scalar OsgEarthNet.uav[45] utilizationSecMission 40468.747855369
scalar OsgEarthNet.uav[45] utilizationSecMaintenance 17833.676055411
scalar OsgEarthNet.uav[45] utilizationSecCharge 199865.57508922
scalar OsgEarthNet.uav[45] utilizationSecIdle 1032
scalar OsgEarthNet.uav[45] utilizationEnergyMission 197492.56382751
scalar OsgEarthNet.uav[45] utilizationEnergyMaintenance 83306.374549866
scalar OsgEarthNet.uav[45] utilizationEnergyCharge 283593.10205078
scalar OsgEarthNet.uav[45] utilizationEnergyOverdrawMission 0
scalar OsgEarthNet.uav[45] utilizationEnergyOverdrawMaintenance 0
scalar OsgEarthNet.uav[45] utilizationCountMissions 62
scalar OsgEarthNet.uav[45] utilizationCountManeuversMission 1412
scalar OsgEarthNet.uav[45] utilizationCountManeuversMaintenance 123
scalar OsgEarthNet.uav[45] utilizationCountChargeState 62
scalar OsgEarthNet.uav[45] utilizationCountOverdrawnAfterMission 0
scalar OsgEarthNet.uav[45] utilizationCountIdleState 10
scalar OsgEarthNet.uav[45] utilizationFail 0
scalar OsgEarthNet.uav[45] simulationTime 259200
scalar OsgEarthNet.uav[46] utilizationSecMission 28332.503051606
scalar OsgEarthNet.uav[46] utilizationSecMaintenance 16838.379058324
scalar OsgEarthNet.uav[46] utilizationSecCharge 166557.60322912
scalar OsgEarthNet.uav[46] utilizationSecIdle 47471.51366095
scalar OsgEarthNet.uav[46] utilizationEnergyMission 137747.86480713
scalar OsgEarthNet.uav[46] utilizationEnergyMaintenance 79802.417888641
scalar OsgEarthNet.uav[46] utilizationEnergyCharge 215397.6887207
scalar OsgEarthNet.uav[46] utilizationEnergyOverdrawMission 0
scalar OsgEarthNet.uav[46] utilizationEnergyOverdrawMaintenance 0
scalar OsgEarthNet.uav[46] utilizationCountMissions 48
scalar OsgEarthNet.uav[46] utilizationCountManeuversMission 896
scalar OsgEarthNet.uav[46] utilizationCountManeuversMaintenance 96
scalar OsgEarthNet.uav[46] utilizationCountChargeState 48
scalar OsgEarthNet.uav[46] utilizationCountOverdrawnAfterMission 0
scalar OsgEarthNet.uav[46] utilizationCountIdleState 48
scalar OsgEarthNet.uav[46] utilizationFail 0
scalar OsgEarthNet.uav[46] simulationTime 259200
scalar OsgEarthNet.uav[47] utilizationSecMission 30094.331114407
scalar OsgEarthNet.uav[47] utilizationSecMaintenance 18051.498473874
scalar OsgEarthNet.uav[47] utilizationSecCharge 183530.50123373
scalar OsgEarthNet.uav[47] utilizationSecIdle 27523.668177988
scalar OsgEarthNet.uav[47] utilizationEnergyMission 147198.02520752
scalar OsgEarthNet.uav[47] utilizationEnergyMaintenance 85993.826335907
scalar OsgEarthNet.uav[47] utilizationEnergyCharge 231099.4543457
scalar OsgEarthNet.uav[47] utilizationEnergyOverdrawMission 0
scalar OsgEarthNet.uav[47] utilizationEnergyOverdrawMaintenance 0
scalar OsgEarthNet.uav[47] utilizationCountMissions 56
scalar OsgEarthNet.uav[47] utilizationCountManeuversMission 999
scalar OsgEarthNet.uav[47] utilizationCountManeuversMaintenance 112
scalar OsgEarthNet.uav[47] utilizationCountChargeState 56
scalar OsgEarthNet.uav[47] utilizationCountOverdrawnAfterMission 0
scalar OsgEarthNet.uav[47] utilizationCountIdleState 55
scalar OsgEarthNet.uav[47] utilizationFail 0
scalar OsgEarthNet.uav[47] simulationTime 259200
scalar OsgEarthNet.uav[48] utilizationSecMission 39907.493427581
scalar OsgEarthNet.uav[48] utilizationSecMaintenance 18240.503572419
scalar OsgEarthNet.uav[48] utilizationSecCharge 198080
scalar OsgEarthNet.uav[48] utilizationSecIdle 2972.002
scalar OsgEarthNet.uav[48] utilizationEnergyMission 196073.91791413
scalar OsgEarthNet.uav[48] utilizationEnergyMaintenance 84474.830059052
scalar OsgEarthNet.uav[48] utilizationEnergyCharge 278828.40771484
scalar OsgEarthNet.uav[48] utilizationEnergyOverdrawMission 0
scalar OsgEarthNet.uav[48] utilizationEnergyOverdrawMaintenance 0
scalar OsgEarthNet.uav[48] utilizationCountMissions 61
scalar OsgEarthNet.uav[48] utilizationCountManeuversMission 1396
scalar OsgEarthNet.uav[48] utilizationCountManeuversMaintenance 123
scalar OsgEarthNet.uav[48] utilizationCountChargeState 61
scalar OsgEarthNet.uav[48] utilizationCountOverdrawnAfterMission 0
scalar OsgEarthNet.uav[48] utilizationCountIdleState 15
scalar OsgEarthNet.uav[48] utilizationFail 0
scalar OsgEarthNet.uav[48] simulationTime 259200
scalar OsgEarthNet.uav[49] utilizationSecMission 28725.736776643
scalar OsgEarthNet.uav[49] utilizationSecMaintenance 16532.262223357
scalar OsgEarthNet.uav[49] utilizationSecCharge 168100
scalar OsgEarthNet.uav[49] utilizationSecIdle 45842
scalar OsgEarthNet.uav[49] utilizationEnergyMission 138162.48090403
scalar OsgEarthNet.uav[49] utilizationEnergyMaintenance 78438.541271209
scalar OsgEarthNet.uav[49] utilizationEnergyCharge 216310.44189453
scalar OsgEarthNet.uav[49] utilizationEnergyOverdrawMission 0
scalar OsgEarthNet.uav[49] utilizationEnergyOverdrawMaintenance 0
scalar OsgEarthNet.uav[49] utilizationCountMissions 48
scalar OsgEarthNet.uav[49] utilizationCountManeuversMission 876
scalar OsgEarthNet.uav[49] utilizationCountManeuversMaintenance 97
scalar OsgEarthNet.uav[49] utilizationCountChargeState 48
scalar OsgEarthNet.uav[49] utilizationCountOverdrawnAfterMission 0
scalar OsgEarthNet.uav[49] utilizationCountIdleState 49
scalar OsgEarthNet.uav[49] utilizationFail 0
scalar OsgEarthNet.uav[49] simulationTime 259200
scalar OsgEarthNet.uav[50] utilizationSecMission 40793.131015014
scalar OsgEarthNet.uav[50] utilizationSecMaintenance 17724.867984986
scalar OsgEarthNet.uav[50] utilizationSecCharge 199540
scalar OsgEarthNet.uav[50] utilizationSecIdle 1142
scalar OsgEarthNet.uav[50] utilizationEnergyMission 197578.34169388
scalar OsgEarthNet.uav[50] utilizationEnergyMaintenance 81139.540553344
scalar OsgEarthNet.uav[50] utilizationEnergyCharge 278946.52050781
scalar OsgEarthNet.uav[50] utilizationEnergyOverdrawMission 0
scalar OsgEarthNet.uav[50] utilizationEnergyOverdrawMaintenance 0
scalar OsgEarthNet.uav[50] utilizationCountMissions 61
scalar OsgEarthNet.uav[50] utilizationCountManeuversMission 1253
scalar OsgEarthNet.uav[50] utilizationCountManeuversMaintenance 122
scalar OsgEarthNet.uav[50] utilizationCountChargeState 61
scalar OsgEarthNet.uav[50] utilizationCountOverdrawnAfterMission 0
scalar OsgEarthNet.uav[50] utilizationCountIdleState 14
scalar OsgEarthNet.uav[50] utilizationFail 0
scalar OsgEarthNet.uav[50] simulationTime 259200
scalar OsgEarthNet.uav[51] utilizationSecMission 29820.674254309
scalar OsgEarthNet.uav[51] utilizationSecMaintenance 18381.753257733
scalar OsgEarthNet.uav[51] utilizationSecCharge 185581.77397519
scalar OsgEarthNet.uav[51] utilizationSecIdle 25415.797512768
scalar OsgEarthNet.uav[51] utilizationEnergyMission 145194.865242
scalar OsgEarthNet.uav[51] utilizationEnergyMaintenance 87328.243045807
scalar OsgEarthNet.uav[51] utilizationEnergyCharge 231751.62426758
scalar OsgEarthNet.uav[51] utilizationEnergyOverdrawMission 0
scalar OsgEarthNet.uav[51] utilizationEnergyOverdrawMaintenance 0
scalar OsgEarthNet.uav[51] utilizationCountMissions 58
scalar OsgEarthNet.uav[51] utilizationCountManeuversMission 909
scalar OsgEarthNet.uav[51] utilizationCountManeuversMaintenance 116
scalar OsgEarthNet.uav[51] utilizationCountChargeState 58
scalar OsgEarthNet.uav[51] utilizationCountOverdrawnAfterMission 0
scalar OsgEarthNet.uav[51] utilizationCountIdleState 57
scalar OsgEarthNet.uav[51] utilizationFail 0
scalar OsgEarthNet.uav[51] simulationTime 259200
scalar OsgEarthNet.uav[52] utilizationSecMission 42189.939419654
scalar OsgEarthNet.uav[52] utilizationSecMaintenance 15942.700788828
scalar OsgEarthNet.uav[52] utilizationSecCharge 197145.35479152
scalar OsgEarthNet.uav[52] utilizationSecIdle 3922.004
scalar OsgEarthNet.uav[52] utilizationEnergyMission 204056.71422195
scalar OsgEarthNet.uav[52] utilizationEnergyMaintenance 73275.532165527
scalar OsgEarthNet.uav[52] utilizationEnergyCharge 273564.80319214
scalar OsgEarthNet.uav[52] utilizationEnergyOverdrawMission 0
scalar OsgEarthNet.uav[52] utilizationEnergyOverdrawMaintenance 0
scalar OsgEarthNet.uav[52] utilizationCountMissions 60
scalar OsgEarthNet.uav[52] utilizationCountManeuversMission 1278
scalar OsgEarthNet.uav[52] utilizationCountManeuversMaintenance 120
scalar OsgEarthNet.uav[52] utilizationCountChargeState 60
scalar OsgEarthNet.uav[52] utilizationCountOverdrawnAfterMission 0
scalar OsgEarthNet.uav[52] utilizationCountIdleState 14
scalar OsgEarthNet.uav[52] utilizationFail 0
scalar OsgEarthNet.uav[52] simulationTime 259200
scalar OsgEarthNet.uav[53] utilizationSecMission 30397.48726105
scalar OsgEarthNet.uav[53] utilizationSecMaintenance 17463.324050057
scalar OsgEarthNet.uav[53] utilizationSecCharge 181654.78837608
scalar OsgEarthNet.uav[53] utilizationSecIdle 29684.399312815
scalar OsgEarthNet.uav[53] utilizationEnergyMission 147257.70501709
scalar OsgEarthNet.uav[53] utilizationEnergyMaintenance 83299.651126862
scalar OsgEarthNet.uav[53] utilizationEnergyCharge 224333.29693604
scalar OsgEarthNet.uav[53] utilizationEnergyOverdrawMission 0
scalar OsgEarthNet.uav[53] utilizationEnergyOverdrawMaintenance 0
scalar OsgEarthNet.uav[53] utilizationCountMissions 58
scalar OsgEarthNet.uav[53] utilizationCountManeuversMission 814
scalar OsgEarthNet.uav[53] utilizationCountManeuversMaintenance 116
scalar OsgEarthNet.uav[53] utilizationCountChargeState 58
scalar OsgEarthNet.uav[53] utilizationCountOverdrawnAfterMission 0
scalar OsgEarthNet.uav[53] utilizationCountIdleState 58
scalar OsgEarthNet.uav[53] utilizationFail 0
scalar OsgEarthNet.uav[53] simulationTime 259200
scalar OsgEarthNet.uav[54] utilizationSecMission 31682.369896253
scalar OsgEarthNet.uav[54] utilizationSecMaintenance 17401.70379335
scalar OsgEarthNet.uav[54] utilizationSecCharge 186560
scalar OsgEarthNet.uav[54] utilizationSecIdle 23555.925310397
scalar OsgEarthNet.uav[54] utilizationEnergyMission 151720.88642883
scalar OsgEarthNet.uav[54] utilizationEnergyMaintenance 82030.618450165
scalar OsgEarthNet.uav[54] utilizationEnergyCharge 233221.57470703
scalar OsgEarthNet.uav[54] utilizationEnergyOverdrawMission 0
scalar OsgEarthNet.uav[54] utilizationEnergyOverdrawMaintenance 0
scalar OsgEarthNet.uav[54] utilizationCountMissions 57
scalar OsgEarthNet.uav[54] utilizationCountManeuversMission 894
scalar OsgEarthNet.uav[54] utilizationCountManeuversMaintenance 114
scalar OsgEarthNet.uav[54] utilizationCountChargeState 57
scalar OsgEarthNet.uav[54] utilizationCountOverdrawnAfterMission 0
scalar OsgEarthNet.uav[54] utilizationCountIdleState 57
scalar OsgEarthNet.uav[54] utilizationFail 0
scalar OsgEarthNet.uav[54] simulationTime 259200
scalar OsgEarthNet.uav[55] utilizationSecMission 40779.182272879
scalar OsgEarthNet.uav[55] utilizationSecMaintenance 17575.071004831
scalar OsgEarthNet.uav[55] utilizationSecCharge 197754.0726707
scalar OsgEarthNet.uav[55] utilizationSecIdle 3091.6730515863
scalar OsgEarthNet.uav[55] utilizationEnergyMission 198579.63234329
scalar OsgEarthNet.uav[55] utilizationEnergyMaintenance 81157.635597229
scalar OsgEarthNet.uav[55] utilizationEnergyCharge 277419.77099609
scalar OsgEarthNet.uav[55] utilizationEnergyOverdrawMission 0
scalar OsgEarthNet.uav[55] utilizationEnergyOverdrawMaintenance 0
scalar OsgEarthNet.uav[55] utilizationCountMissions 61
scalar OsgEarthNet.uav[55] utilizationCountManeuversMission 1415
scalar OsgEarthNet.uav[55] utilizationCountManeuversMaintenance 122
scalar OsgEarthNet.uav[55] utilizationCountChargeState 61
scalar OsgEarthNet.uav[55] utilizationCountOverdrawnAfterMission 0
scalar OsgEarthNet.uav[55] utilizationCountIdleState 13
scalar OsgEarthNet.uav[55] utilizationFail 0
scalar OsgEarthNet.uav[55] simulationTime 259200
scalar OsgEarthNet.uav[56] utilizationSecMission 24285.626373223
scalar OsgEarthNet.uav[56] utilizationSecMaintenance 18642.817645959
scalar OsgEarthNet.uav[56] utilizationSecCharge 162110
scalar OsgEarthNet.uav[56] utilizationSecIdle 54161.554980818
scalar OsgEarthNet.uav[56] utilizationEnergyMission 120149.56348419
scalar OsgEarthNet.uav[56] utilizationEnergyMaintenance 88879.070899963
scalar OsgEarthNet.uav[56] utilizationEnergyCharge 209008.19140625
scalar OsgEarthNet.uav[56] utilizationEnergyOverdrawMission 0
scalar OsgEarthNet.uav[56] utilizationEnergyOverdrawMaintenance 0
scalar OsgEarthNet.uav[56] utilizationCountMissions 46
scalar OsgEarthNet.uav[56] utilizationCountManeuversMission 980
scalar OsgEarthNet.uav[56] utilizationCountManeuversMaintenance 92
scalar OsgEarthNet.uav[56] utilizationCountChargeState 46
scalar OsgEarthNet.uav[56] utilizationCountOverdrawnAfterMission 0
scalar OsgEarthNet.uav[56] utilizationCountIdleState 47
scalar OsgEarthNet.uav[56] utilizationFail 0
scalar OsgEarthNet.uav[56] simulationTime 259200
scalar OsgEarthNet.uav[57] utilizationSecMission 32515.808910542
scalar OsgEarthNet.uav[57] utilizationSecMaintenance 17124.673370985
scalar OsgEarthNet.uav[57] utilizationSecCharge 185697.51671847
scalar OsgEarthNet.uav[57] utilizationSecIdle 23862
scalar OsgEarthNet.uav[57] utilizationEnergyMission 155913.63250732
scalar OsgEarthNet.uav[57] utilizationEnergyMaintenance 80769.070201874
scalar OsgEarthNet.uav[57] utilizationEnergyCharge 234644.27050781
scalar OsgEarthNet.uav[57] utilizationEnergyOverdrawMission 0
scalar OsgEarthNet.uav[57] utilizationEnergyOverdrawMaintenance 0
scalar OsgEarthNet.uav[57] utilizationCountMissions 57
scalar OsgEarthNet.uav[57] utilizationCountManeuversMission 884
scalar OsgEarthNet.uav[57] utilizationCountManeuversMaintenance 113
scalar OsgEarthNet.uav[57] utilizationCountChargeState 57
scalar OsgEarthNet.uav[57] utilizationCountOverdrawnAfterMission 0
scalar OsgEarthNet.uav[57] utilizationCountIdleState 53
scalar OsgEarthNet.uav[57] utilizationFail 0
scalar OsgEarthNet.uav[57] simulationTime 259200
scalar OsgEarthNet.uav[58] utilizationSecMission 39707.376806707
scalar OsgEarthNet.uav[58] utilizationSecMaintenance 18112.991112628
scalar OsgEarthNet.uav[58] utilizationSecCharge 198420
scalar OsgEarthNet.uav[58] utilizationSecIdle 2959.6310806652
scalar OsgEarthNet.uav[58] utilizationEnergyMission 194668.01307617
scalar OsgEarthNet.uav[58] utilizationEnergyMaintenance 82575.260005951
scalar OsgEarthNet.uav[58] utilizationEnergyCharge 278162.13085938
scalar OsgEarthNet.uav[58] utilizationEnergyOverdrawMission 0
scalar OsgEarthNet.uav[58] utilizationEnergyOverdrawMaintenance 0
scalar OsgEarthNet.uav[58] utilizationCountMissions 61
scalar OsgEarthNet.uav[58] utilizationCountManeuversMission 1485
scalar OsgEarthNet.uav[58] utilizationCountManeuversMaintenance 123
scalar OsgEarthNet.uav[58] utilizationCountChargeState 61
scalar OsgEarthNet.uav[58] utilizationCountOverdrawnAfterMission 0
scalar OsgEarthNet.uav[58] utilizationCountIdleState 8
scalar OsgEarthNet.uav[58] utilizationFail 0
scalar OsgEarthNet.uav[58] simulationTime 259200
scalar OsgEarthNet.uav[59] utilizationSecMission 28729.772613261
scalar OsgEarthNet.uav[59] utilizationSecMaintenance 15245.581964816
scalar OsgEarthNet.uav[59] utilizationSecCharge 160530
scalar OsgEarthNet.uav[59] utilizationSecIdle 54694.644421923
scalar OsgEarthNet.uav[59] utilizationEnergyMission 136663.54126738
scalar OsgEarthNet.uav[59] utilizationEnergyMaintenance 72446.666919708
scalar OsgEarthNet.uav[59] utilizationEnergyCharge 206527.58740234
scalar OsgEarthNet.uav[59] utilizationEnergyOverdrawMission 0
scalar OsgEarthNet.uav[59] utilizationEnergyOverdrawMaintenance 0
scalar OsgEarthNet.uav[59] utilizationCountMissions 46
scalar OsgEarthNet.uav[59] utilizationCountManeuversMission 821
scalar OsgEarthNet.uav[59] utilizationCountManeuversMaintenance 93
scalar OsgEarthNet.uav[59] utilizationCountChargeState 46
scalar OsgEarthNet.uav[59] utilizationCountOverdrawnAfterMission 0
scalar OsgEarthNet.uav[59] utilizationCountIdleState 47
scalar OsgEarthNet.uav[59] utilizationFail 0
scalar OsgEarthNet.uav[59] simulationTime 259200
scalar OsgEarthNet.uav[60] utilizationSecMission 26259.119249954
scalar OsgEarthNet.uav[60] utilizationSecMaintenance 17597.868272287
scalar OsgEarthNet.uav[60] utilizationSecCharge 163121.00647776
scalar OsgEarthNet.uav[60] utilizationSecIdle 52222.005
scalar OsgEarthNet.uav[60] utilizationEnergyMission 127504.91371155
scalar OsgEarthNet.uav[60] utilizationEnergyMaintenance 83873.326190948
scalar OsgEarthNet.uav[60] utilizationEnergyCharge 210939.5300293
scalar OsgEarthNet.uav[60] utilizationEnergyOverdrawMission 0
scalar OsgEarthNet.uav[60] utilizationEnergyOverdrawMaintenance 0
scalar OsgEarthNet.uav[60] utilizationCountMissions 47
scalar OsgEarthNet.uav[60] utilizationCountManeuversMission 927
scalar OsgEarthNet.uav[60] utilizationCountManeuversMaintenance 94
scalar OsgEarthNet.uav[60] utilizationCountChargeState 47
scalar OsgEarthNet.uav[60] utilizationCountOverdrawnAfterMission 0
scalar OsgEarthNet.uav[60] utilizationCountIdleState 47
scalar OsgEarthNet.uav[60] utilizationFail 0
scalar OsgEarthNet.uav[60] simulationTime 259200
scalar OsgEarthNet.uav[61] utilizationSecMission 30408.677643709
scalar OsgEarthNet.uav[61] utilizationSecMaintenance 18021.917093224
scalar OsgEarthNet.uav[61] utilizationSecCharge 186067.40226307
scalar OsgEarthNet.uav[61] utilizationSecIdle 24702.002
scalar OsgEarthNet.uav[61] utilizationEnergyMission 146852.44431686
scalar OsgEarthNet.uav[61] utilizationEnergyMaintenance 85916.933769226
scalar OsgEarthNet.uav[61] utilizationEnergyCharge 231885.13842773
scalar OsgEarthNet.uav[61] utilizationEnergyOverdrawMission 0
scalar OsgEarthNet.uav[61] utilizationEnergyOverdrawMaintenance 0
scalar OsgEarthNet.uav[61] utilizationCountMissions 58
scalar OsgEarthNet.uav[61] utilizationCountManeuversMission 895
scalar OsgEarthNet.uav[61] utilizationCountManeuversMaintenance 116
scalar OsgEarthNet.uav[61] utilizationCountChargeState 58
scalar OsgEarthNet.uav[61] utilizationCountOverdrawnAfterMission 0
scalar OsgEarthNet.uav[61] utilizationCountIdleState 57
scalar OsgEarthNet.uav[61] utilizationFail 0
scalar OsgEarthNet.uav[61] simulationTime 259200
scalar OsgEarthNet.uav[62] utilizationSecMission 42633.351376807
scalar OsgEarthNet.uav[62] utilizationSecMaintenance 15699.208660348
scalar OsgEarthNet.uav[62] utilizationSecCharge 197555.43596284
scalar OsgEarthNet.uav[62] utilizationSecIdle 3312.003
scalar OsgEarthNet.uav[62] utilizationEnergyMission 205942.39115524
scalar OsgEarthNet.uav[62] utilizationEnergyMaintenance 72043.381149292
scalar OsgEarthNet.uav[62] utilizationEnergyCharge 273808.26855469
scalar OsgEarthNet.uav[62] utilizationEnergyOverdrawMission 0
scalar OsgEarthNet.uav[62] utilizationEnergyOverdrawMaintenance 0
scalar OsgEarthNet.uav[62] utilizationCountMissions 60
scalar OsgEarthNet.uav[62] utilizationCountManeuversMission 1251
scalar OsgEarthNet.uav[62] utilizationCountManeuversMaintenance 120
scalar OsgEarthNet.uav[62] utilizationCountChargeState 60
scalar OsgEarthNet.uav[62] utilizationCountOverdrawnAfterMission 0
scalar OsgEarthNet.uav[62] utilizationCountIdleState 17
scalar OsgEarthNet.uav[62] utilizationFail 0
scalar OsgEarthNet.uav[62] simulationTime 259200
scalar OsgEarthNet.uav[63] utilizationSecMission 28363.495318016
scalar OsgEarthNet.uav[63] utilizationSecMaintenance 15818.149655294
scalar OsgEarthNet.uav[63] utilizationSecCharge 160306.34402669
scalar OsgEarthNet.uav[63] utilizationSecIdle 54712.01
scalar OsgEarthNet.uav[63] utilizationEnergyMission 135647.79809952
scalar OsgEarthNet.uav[63] utilizationEnergyMaintenance 74590.666339874
scalar OsgEarthNet.uav[63] utilizationEnergyCharge 205914.22827148
scalar OsgEarthNet.uav[63] utilizationEnergyOverdrawMission 0
scalar OsgEarthNet.uav[63] utilizationEnergyOverdrawMaintenance 0
scalar OsgEarthNet.uav[63] utilizationCountMissions 47
scalar OsgEarthNet.uav[63] utilizationCountManeuversMission 850
scalar OsgEarthNet.uav[63] utilizationCountManeuversMaintenance 94
scalar OsgEarthNet.uav[63] utilizationCountChargeState 47
scalar OsgEarthNet.uav[63] utilizationCountOverdrawnAfterMission 0
scalar OsgEarthNet.uav[63] utilizationCountIdleState 47
scalar OsgEarthNet.uav[63] utilizationFail 0
scalar OsgEarthNet.uav[63] simulationTime 259200
scalar OsgEarthNet.uav[64] utilizationSecMission 31058.086689129
scalar OsgEarthNet.uav[64] utilizationSecMaintenance 17219.276031443
scalar OsgEarthNet.uav[64] utilizationSecCharge 184212.83607311
scalar OsgEarthNet.uav[64] utilizationSecIdle 26709.800206318
scalar OsgEarthNet.uav[64] utilizationEnergyMission 148828.53887939
scalar OsgEarthNet.uav[64] utilizationEnergyMaintenance 81521.82339859
scalar OsgEarthNet.uav[64] utilizationEnergyCharge 228302.93505859
scalar OsgEarthNet.uav[64] utilizationEnergyOverdrawMission 0
scalar OsgEarthNet.uav[64] utilizationEnergyOverdrawMaintenance 0
scalar OsgEarthNet.uav[64] utilizationCountMissions 58
scalar OsgEarthNet.uav[64] utilizationCountManeuversMission 833
scalar OsgEarthNet.uav[64] utilizationCountManeuversMaintenance 116
scalar OsgEarthNet.uav[64] utilizationCountChargeState 58
scalar OsgEarthNet.uav[64] utilizationCountOverdrawnAfterMission 0
scalar OsgEarthNet.uav[64] utilizationCountIdleState 57
scalar OsgEarthNet.uav[64] utilizationFail 0
scalar OsgEarthNet.uav[64] simulationTime 259200
scalar OsgEarthNet.uav[65] utilizationSecMission 41461.436748688
scalar OsgEarthNet.uav[65] utilizationSecMaintenance 17717.005187017
scalar OsgEarthNet.uav[65] utilizationSecCharge 199229.5570643
scalar OsgEarthNet.uav[65] utilizationSecIdle 792
scalar OsgEarthNet.uav[65] utilizationEnergyMission 202834.23351498
scalar OsgEarthNet.uav[65] utilizationEnergyMaintenance 80983.451637268
scalar OsgEarthNet.uav[65] utilizationEnergyCharge 280648.83398438
scalar OsgEarthNet.uav[65] utilizationEnergyOverdrawMission 0
scalar OsgEarthNet.uav[65] utilizationEnergyOverdrawMaintenance 0
scalar OsgEarthNet.uav[65] utilizationCountMissions 62
scalar OsgEarthNet.uav[65] utilizationCountManeuversMission 1388
scalar OsgEarthNet.uav[65] utilizationCountManeuversMaintenance 123
scalar OsgEarthNet.uav[65] utilizationCountChargeState 62
scalar OsgEarthNet.uav[65] utilizationCountOverdrawnAfterMission 0
scalar OsgEarthNet.uav[65] utilizationCountIdleState 8
scalar OsgEarthNet.uav[65] utilizationFail 0
scalar OsgEarthNet.uav[65] simulationTime 259200
scalar OsgEarthNet.uav[66] utilizationSecMission 30483.982352136
scalar OsgEarthNet.uav[66] utilizationSecMaintenance 16792.262389859
scalar OsgEarthNet.uav[66] utilizationSecCharge 181850.05487292
scalar OsgEarthNet.uav[66] utilizationSecIdle 30073.699385088
scalar OsgEarthNet.uav[66] utilizationEnergyMission 142377.85804749
scalar OsgEarthNet.uav[66] utilizationEnergyMaintenance 80134.857688904
scalar OsgEarthNet.uav[66] utilizationEnergyCharge 224985.79223633
scalar OsgEarthNet.uav[66] utilizationEnergyOverdrawMission 0
scalar OsgEarthNet.uav[66] utilizationEnergyOverdrawMaintenance 0
scalar OsgEarthNet.uav[66] utilizationCountMissions 57
scalar OsgEarthNet.uav[66] utilizationCountManeuversMission 760
scalar OsgEarthNet.uav[66] utilizationCountManeuversMaintenance 114
scalar OsgEarthNet.uav[66] utilizationCountChargeState 57
scalar OsgEarthNet.uav[66] utilizationCountOverdrawnAfterMission 0
scalar OsgEarthNet.uav[66] utilizationCountIdleState 57
scalar OsgEarthNet.uav[66] utilizationFail 0
scalar OsgEarthNet.uav[66] simulationTime 259200
scalar OsgEarthNet.uav[67] utilizationSecMission 29849.756910576
scalar OsgEarthNet.uav[67] utilizationSecMaintenance 18883.293337535
scalar OsgEarthNet.uav[67] utilizationSecCharge 187605.98476622
scalar OsgEarthNet.uav[67] utilizationSecIdle 22860.963985674
scalar OsgEarthNet.uav[67] utilizationEnergyMission 148174.78410721
scalar OsgEarthNet.uav[67] utilizationEnergyMaintenance 89605.154575348
scalar OsgEarthNet.uav[67] utilizationEnergyCharge 235061.09082031
scalar OsgEarthNet.uav[67] utilizationEnergyOverdrawMission 0
scalar OsgEarthNet.uav[67] utilizationEnergyOverdrawMaintenance 0
scalar OsgEarthNet.uav[67] utilizationCountMissions 57
scalar OsgEarthNet.uav[67] utilizationCountManeuversMission 990
scalar OsgEarthNet.uav[67] utilizationCountManeuversMaintenance 114
scalar OsgEarthNet.uav[67] utilizationCountChargeState 57
scalar OsgEarthNet.uav[67] utilizationCountOverdrawnAfterMission 0
scalar OsgEarthNet.uav[67] utilizationCountIdleState 57
scalar OsgEarthNet.uav[67] utilizationFail 0
scalar OsgEarthNet.uav[67] simulationTime 259200
scalar OsgEarthNet.uav[68] utilizationSecMission 42084.166263751
scalar OsgEarthNet.uav[68] utilizationSecMaintenance 16175.80738982
scalar OsgEarthNet.uav[68] utilizationSecCharge 196049.32490919
scalar OsgEarthNet.uav[68] utilizationSecIdle 4890.7004372363
scalar OsgEarthNet.uav[68] utilizationEnergyMission 201560.79412842
scalar OsgEarthNet.uav[68] utilizationEnergyMaintenance 75029.809417725
scalar OsgEarthNet.uav[68] utilizationEnergyCharge 273147.675354
scalar OsgEarthNet.uav[68] utilizationEnergyOverdrawMission 0
scalar OsgEarthNet.uav[68] utilizationEnergyOverdrawMaintenance 0
scalar OsgEarthNet.uav[68] utilizationCountMissions 60
scalar OsgEarthNet.uav[68] utilizationCountManeuversMission 1250
scalar OsgEarthNet.uav[68] utilizationCountManeuversMaintenance 120
scalar OsgEarthNet.uav[68] utilizationCountChargeState 60
scalar OsgEarthNet.uav[68] utilizationCountOverdrawnAfterMission 0
scalar OsgEarthNet.uav[68] utilizationCountIdleState 13
scalar OsgEarthNet.uav[68] utilizationFail 0
scalar OsgEarthNet.uav[68] simulationTime 259200
scalar OsgEarthNet.uav[69] utilizationSecMission 27524.011395517
scalar OsgEarthNet.uav[69] utilizationSecMaintenance 15031.836846017
scalar OsgEarthNet.uav[69] utilizationSecCharge 157840
scalar OsgEarthNet.uav[69] utilizationSecIdle 58804.150758466
scalar OsgEarthNet.uav[69] utilizationEnergyMission 134498.30958176
scalar OsgEarthNet.uav[69] utilizationEnergyMaintenance 71417.996639252
scalar OsgEarthNet.uav[69] utilizationEnergyCharge 203253.12158203
scalar OsgEarthNet.uav[69] utilizationEnergyOverdrawMission 0
scalar OsgEarthNet.uav[69] utilizationEnergyOverdrawMaintenance 0
scalar OsgEarthNet.uav[69] utilizationCountMissions 45
scalar OsgEarthNet.uav[69] utilizationCountManeuversMission 799
scalar OsgEarthNet.uav[69] utilizationCountManeuversMaintenance 90
scalar OsgEarthNet.uav[69] utilizationCountChargeState 45
scalar OsgEarthNet.uav[69] utilizationCountOverdrawnAfterMission 0
scalar OsgEarthNet.uav[69] utilizationCountIdleState 46
scalar OsgEarthNet.uav[69] utilizationFail 0
scalar OsgEarthNet.uav[69] simulationTime 259200
scalar OsgEarthNet.uav[70] utilizationSecMission 26939.635327455
scalar OsgEarthNet.uav[70] utilizationSecMaintenance 18066.48332159
scalar OsgEarthNet.uav[70] utilizationSecCharge 165711.86935096
scalar OsgEarthNet.uav[70] utilizationSecIdle 48482.011
scalar OsgEarthNet.uav[70] utilizationEnergyMission 131627.43003082
scalar OsgEarthNet.uav[70] utilizationEnergyMaintenance 86276.495117187
scalar OsgEarthNet.uav[70] utilizationEnergyCharge 213794.80883789
scalar OsgEarthNet.uav[70] utilizationEnergyOverdrawMission 0
scalar OsgEarthNet.uav[70] utilizationEnergyOverdrawMaintenance 0
scalar OsgEarthNet.uav[70] utilizationCountMissions 48
scalar OsgEarthNet.uav[70] utilizationCountManeuversMission 952
scalar OsgEarthNet.uav[70] utilizationCountManeuversMaintenance 96
scalar OsgEarthNet.uav[70] utilizationCountChargeState 48
scalar OsgEarthNet.uav[70] utilizationCountOverdrawnAfterMission 0
scalar OsgEarthNet.uav[70] utilizationCountIdleState 48
scalar OsgEarthNet.uav[70] utilizationFail 0
scalar OsgEarthNet.uav[70] simulationTime 259200
scalar OsgEarthNet.uav[71] utilizationSecMission 41340.360388114
scalar OsgEarthNet.uav[71] utilizationSecMaintenance 16523.273306928
scalar OsgEarthNet.uav[71] utilizationSecCharge 196630.92221627
scalar OsgEarthNet.uav[71] utilizationSecIdle 4705.4430886909
scalar OsgEarthNet.uav[71] utilizationEnergyMission 200141.65188599
scalar OsgEarthNet.uav[71] utilizationEnergyMaintenance 75689.668579102
scalar OsgEarthNet.uav[71] utilizationEnergyCharge 275769.54492188
scalar OsgEarthNet.uav[71] utilizationEnergyOverdrawMission 0
scalar OsgEarthNet.uav[71] utilizationEnergyOverdrawMaintenance 0
scalar OsgEarthNet.uav[71] utilizationCountMissions 60
scalar OsgEarthNet.uav[71] utilizationCountManeuversMission 1363
scalar OsgEarthNet.uav[71] utilizationCountManeuversMaintenance 120
scalar OsgEarthNet.uav[71] utilizationCountChargeState 60
scalar OsgEarthNet.uav[71] utilizationCountOverdrawnAfterMission 0
scalar OsgEarthNet.uav[71] utilizationCountIdleState 14
scalar OsgEarthNet.uav[71] utilizationFail 0
scalar OsgEarthNet.uav[71] simulationTime 259200
scalar OsgEarthNet.cs[0] usedPower 3983542.1915969
scalar OsgEarthNet.cs[0] chargedPower 3983542.1915969
scalar OsgEarthNet.cs[0] chargedMobileNodes 875
scalar OsgEarthNet.cs[0] reservations 887
scalar OsgEarthNet.cs[1] usedPower 5726774.5814897
scalar OsgEarthNet.cs[1] chargedPower 5726774.5814897
scalar OsgEarthNet.cs[1] chargedMobileNodes 1376
scalar OsgEarthNet.cs[1] reservations 1419
scalar OsgEarthNet.cs[2] usedPower 6963888.1243685
scalar OsgEarthNet.cs[2] chargedPower 6963888.1243685
scalar OsgEarthNet.cs[2] chargedMobileNodes 290
scalar OsgEarthNet.cs[2] reservations 1529

