version 2
run Szenario_Hotel_Gabelbach-15-20180722-00:09:06-28564
attr configname Szenario_Hotel_Gabelbach
attr datetime 20180722-00:09:06
attr experiment Szenario_Hotel_Gabelbach
attr inifile omnetpp.ini
attr iterationvars "$replM=2, $biWeight=0.35, $replSearchM=1, $numUAVs=150"
attr iterationvarsf replM=2,biWeight=0.35,replSearchM=1,numUAVs=150-
attr measurement "$replM=2, $biWeight=0.35, $replSearchM=1, $numUAVs=150"
attr network OsgEarthNet
attr processid 28564
attr repetition 15
attr replication #15
attr resultdir results
attr runnumber 15
attr seedset 15
itervar biWeight 0.35
itervar numUAVs 150
itervar replM 2
itervar replSearchM 1
param *.osgEarthScene.scene "\"Szenario_Hotel_Gabelbach.earth\""
param *.playgroundLatitude 50.6830269
param *.playgroundLongitude 10.8538055
param *.playgroundWidth 3500m
param *.playgroundHeight 3500m
param *.cs[0].posX 3537m
param *.cs[0].posY 965m
param *.cs[0].posZ 538m
param *.cs[1].posX 312m
param *.cs[1].posY 1262m
param *.cs[1].posZ 539m
param *.cs[2].posX 2185m
param *.cs[2].posY 3026m
param *.cs[2].posZ 777m
param *.cs[3].posX 10m
param *.cs[3].posY 2200m
param *.cs[3].posZ 560m
param *.cs[4].posX 750m
param *.cs[4].posY 200m
param *.cs[4].posZ 540m
param *.cs[5].posX 2450m
param *.cs[5].posY 180m
param *.cs[5].posZ 524m
param *.cs[6].posX 3140m
param *.cs[6].posY 1790m
param *.cs[6].posZ 606m
param *.numCSs 3
param *.uav[*].replacementMethod 2
param *.uav[*].weightedSumWeight 0.35
param *.missionControl.replacementSearchMethod 1
param *.numUAVs 150
param *.*.timeStep 10s
param *.uav[*].commandPreviewCommandCount 20
param *.missionControl.missionFiles "\"missions\\\\Szenario_WB_Hotel_Gabelbach_Mission_Hotel.waypoints,missions\\\\Szenario_WB_Hotel_Gabelbach_Mission_Kickelhahn.waypoints,missions\\\\Szenario_WB_Hotel_Gabelbach_Mission_Ilmenau_Sportplatz.waypoints,missions\\\\Szenario_WB_Hotel_Gabelbach_Mission_Manebach_Mitte.waypoints,missions\\\\Szenario_WB_Hotel_Gabelbach_Mission_Manebach_Sued.waypoints,missions\\\\Szenario_WB_Hotel_Gabelbach_Hover_HoheSchlaufe.waypoints,missions\\\\Szenario_WB_Hotel_Gabelbach_Hover_Kickelhahn.waypoints,missions\\\\Szenario_WB_Hotel_Gabelbach_Hover_Gabelbachskopf.waypoints,missions\\\\Szenario_WB_Hotel_Gabelbach_Hover_Dachskopf.waypoints\""
param *.uav[0].startX 3537m
param *.uav[0].startY 965m
param *.uav[0].startZ 539m
param *.uav[1].startX 312m
param *.uav[1].startY 1262m
param *.uav[1].startZ 540m
param *.uav[2].startX 2185m
param *.uav[2].startY 3026m
param *.uav[2].startZ 778m
param *.uav[3].startX 3537m
param *.uav[3].startY 965m
param *.uav[3].startZ 539m
param *.uav[4].startX 312m
param *.uav[4].startY 1262m
param *.uav[4].startZ 540m
param *.uav[5].startX 2185m
param *.uav[5].startY 3026m
param *.uav[5].startZ 778m
param *.uav[6].startX 3537m
param *.uav[6].startY 965m
param *.uav[6].startZ 539m
param *.uav[7].startX 312m
param *.uav[7].startY 1262m
param *.uav[7].startZ 540m
param *.uav[8].startX 2185m
param *.uav[8].startY 3026m
param *.uav[8].startZ 778m
param *.uav[9].startX 3537m
param *.uav[9].startY 965m
param *.uav[9].startZ 539m
param *.uav[10].startX 3537m
param *.uav[10].startY 965m
param *.uav[10].startZ 539m
param *.uav[11].startX 312m
param *.uav[11].startY 1262m
param *.uav[11].startZ 540m
param *.uav[12].startX 2185m
param *.uav[12].startY 3026m
param *.uav[12].startZ 778m
param *.uav[13].startX 3537m
param *.uav[13].startY 965m
param *.uav[13].startZ 539m
param *.uav[14].startX 312m
param *.uav[14].startY 1262m
param *.uav[14].startZ 540m
param *.uav[15].startX 2185m
param *.uav[15].startY 3026m
param *.uav[15].startZ 778m
param *.uav[16].startX 3537m
param *.uav[16].startY 965m
param *.uav[16].startZ 539m
param *.uav[17].startX 312m
param *.uav[17].startY 1262m
param *.uav[17].startZ 540m
param *.uav[18].startX 2185m
param *.uav[18].startY 3026m
param *.uav[18].startZ 778m
param *.uav[19].startX 3537m
param *.uav[19].startY 965m
param *.uav[19].startZ 539m
param *.uav[20].startX 3537m
param *.uav[20].startY 965m
param *.uav[20].startZ 539m
param *.uav[21].startX 312m
param *.uav[21].startY 1262m
param *.uav[21].startZ 540m
param *.uav[22].startX 2185m
param *.uav[22].startY 3026m
param *.uav[22].startZ 778m
param *.uav[23].startX 3537m
param *.uav[23].startY 965m
param *.uav[23].startZ 539m
param *.uav[24].startX 312m
param *.uav[24].startY 1262m
param *.uav[24].startZ 540m
param *.uav[25].startX 2185m
param *.uav[25].startY 3026m
param *.uav[25].startZ 778m
param *.uav[26].startX 3537m
param *.uav[26].startY 965m
param *.uav[26].startZ 539m
param *.uav[27].startX 312m
param *.uav[27].startY 1262m
param *.uav[27].startZ 540m
param *.uav[28].startX 2185m
param *.uav[28].startY 3026m
param *.uav[28].startZ 778m
param *.uav[29].startX 3537m
param *.uav[29].startY 965m
param *.uav[29].startZ 539m
param *.uav[30].startX 3537m
param *.uav[30].startY 965m
param *.uav[30].startZ 539m
param *.uav[31].startX 312m
param *.uav[31].startY 1262m
param *.uav[31].startZ 540m
param *.uav[32].startX 2185m
param *.uav[32].startY 3026m
param *.uav[32].startZ 778m
param *.uav[33].startX 3537m
param *.uav[33].startY 965m
param *.uav[33].startZ 539m
param *.uav[34].startX 312m
param *.uav[34].startY 1262m
param *.uav[34].startZ 540m
param *.uav[35].startX 2185m
param *.uav[35].startY 3026m
param *.uav[35].startZ 778m
param *.uav[36].startX 3537m
param *.uav[36].startY 965m
param *.uav[36].startZ 539m
param *.uav[37].startX 312m
param *.uav[37].startY 1262m
param *.uav[37].startZ 540m
param *.uav[38].startX 2185m
param *.uav[38].startY 3026m
param *.uav[38].startZ 778m
param *.uav[39].startX 3537m
param *.uav[39].startY 965m
param *.uav[39].startZ 539m
param *.uav[40].startX 3537m
param *.uav[40].startY 965m
param *.uav[40].startZ 539m
param *.uav[41].startX 312m
param *.uav[41].startY 1262m
param *.uav[41].startZ 540m
param *.uav[42].startX 2185m
param *.uav[42].startY 3026m
param *.uav[42].startZ 778m
param *.uav[43].startX 3537m
param *.uav[43].startY 965m
param *.uav[43].startZ 539m
param *.uav[44].startX 312m
param *.uav[44].startY 1262m
param *.uav[44].startZ 540m
param *.uav[45].startX 2185m
param *.uav[45].startY 3026m
param *.uav[45].startZ 778m
param *.uav[46].startX 3537m
param *.uav[46].startY 965m
param *.uav[46].startZ 539m
param *.uav[47].startX 312m
param *.uav[47].startY 1262m
param *.uav[47].startZ 540m
param *.uav[48].startX 2185m
param *.uav[48].startY 3026m
param *.uav[48].startZ 778m
param *.uav[49].startX 3537m
param *.uav[49].startY 965m
param *.uav[49].startZ 539m
param *.uav[50].startX 3537m
param *.uav[50].startY 965m
param *.uav[50].startZ 539m
param *.uav[51].startX 312m
param *.uav[51].startY 1262m
param *.uav[51].startZ 540m
param *.uav[52].startX 2185m
param *.uav[52].startY 3026m
param *.uav[52].startZ 778m
param *.uav[53].startX 3537m
param *.uav[53].startY 965m
param *.uav[53].startZ 539m
param *.uav[54].startX 312m
param *.uav[54].startY 1262m
param *.uav[54].startZ 540m
param *.uav[55].startX 2185m
param *.uav[55].startY 3026m
param *.uav[55].startZ 778m
param *.uav[56].startX 3537m
param *.uav[56].startY 965m
param *.uav[56].startZ 539m
param *.uav[57].startX 312m
param *.uav[57].startY 1262m
param *.uav[57].startZ 540m
param *.uav[58].startX 2185m
param *.uav[58].startY 3026m
param *.uav[58].startZ 778m
param *.uav[59].startX 3537m
param *.uav[59].startY 965m
param *.uav[59].startZ 539m
param *.uav[60].startX 3537m
param *.uav[60].startY 965m
param *.uav[60].startZ 539m
param *.uav[61].startX 312m
param *.uav[61].startY 1262m
param *.uav[61].startZ 540m
param *.uav[62].startX 2185m
param *.uav[62].startY 3026m
param *.uav[62].startZ 778m
param *.uav[63].startX 3537m
param *.uav[63].startY 965m
param *.uav[63].startZ 539m
param *.uav[64].startX 312m
param *.uav[64].startY 1262m
param *.uav[64].startZ 540m
param *.uav[65].startX 2185m
param *.uav[65].startY 3026m
param *.uav[65].startZ 778m
param *.uav[66].startX 3537m
param *.uav[66].startY 965m
param *.uav[66].startZ 539m
param *.uav[67].startX 312m
param *.uav[67].startY 1262m
param *.uav[67].startZ 540m
param *.uav[68].startX 2185m
param *.uav[68].startY 3026m
param *.uav[68].startZ 778m
param *.uav[69].startX 3537m
param *.uav[69].startY 965m
param *.uav[69].startZ 539m
param *.uav[70].startX 3537m
param *.uav[70].startY 965m
param *.uav[70].startZ 539m
param *.uav[71].startX 312m
param *.uav[71].startY 1262m
param *.uav[71].startZ 540m
param *.uav[72].startX 2185m
param *.uav[72].startY 3026m
param *.uav[72].startZ 778m
param *.uav[73].startX 3537m
param *.uav[73].startY 965m
param *.uav[73].startZ 539m
param *.uav[74].startX 312m
param *.uav[74].startY 1262m
param *.uav[74].startZ 540m
param *.uav[75].startX 2185m
param *.uav[75].startY 3026m
param *.uav[75].startZ 778m
param *.uav[76].startX 3537m
param *.uav[76].startY 965m
param *.uav[76].startZ 539m
param *.uav[77].startX 312m
param *.uav[77].startY 1262m
param *.uav[77].startZ 540m
param *.uav[78].startX 2185m
param *.uav[78].startY 3026m
param *.uav[78].startZ 778m
param *.uav[79].startX 3537m
param *.uav[79].startY 965m
param *.uav[79].startZ 539m
param *.uav[80].startX 3537m
param *.uav[80].startY 965m
param *.uav[80].startZ 539m
param *.uav[81].startX 312m
param *.uav[81].startY 1262m
param *.uav[81].startZ 540m
param *.uav[82].startX 2185m
param *.uav[82].startY 3026m
param *.uav[82].startZ 778m
param *.uav[83].startX 3537m
param *.uav[83].startY 965m
param *.uav[83].startZ 539m
param *.uav[84].startX 312m
param *.uav[84].startY 1262m
param *.uav[84].startZ 540m
param *.uav[85].startX 2185m
param *.uav[85].startY 3026m
param *.uav[85].startZ 778m
param *.uav[86].startX 3537m
param *.uav[86].startY 965m
param *.uav[86].startZ 539m
param *.uav[87].startX 312m
param *.uav[87].startY 1262m
param *.uav[87].startZ 540m
param *.uav[88].startX 2185m
param *.uav[88].startY 3026m
param *.uav[88].startZ 778m
param *.uav[89].startX 3537m
param *.uav[89].startY 965m
param *.uav[89].startZ 539m
param *.uav[90].startX 3537m
param *.uav[90].startY 965m
param *.uav[90].startZ 539m
param *.uav[91].startX 312m
param *.uav[91].startY 1262m
param *.uav[91].startZ 540m
param *.uav[92].startX 2185m
param *.uav[92].startY 3026m
param *.uav[92].startZ 778m
param *.uav[93].startX 3537m
param *.uav[93].startY 965m
param *.uav[93].startZ 539m
param *.uav[94].startX 312m
param *.uav[94].startY 1262m
param *.uav[94].startZ 540m
param *.uav[95].startX 2185m
param *.uav[95].startY 3026m
param *.uav[95].startZ 778m
param *.uav[96].startX 3537m
param *.uav[96].startY 965m
param *.uav[96].startZ 539m
param *.uav[97].startX 312m
param *.uav[97].startY 1262m
param *.uav[97].startZ 540m
param *.uav[98].startX 2185m
param *.uav[98].startY 3026m
param *.uav[98].startZ 778m
param *.uav[99].startX 3537m
param *.uav[99].startY 965m
param *.uav[99].startZ 539m
param *.osgEarthScene.scene "\"boston.earth\""
param *.playgroundLatitude 42.3558
param *.playgroundLongitude -71.0677
param *.playgroundWidth 400m
param *.playgroundHeight 200m
param *.channelController.connectionColor "\"#0000FF40\""
param *.channelController.showConnections false
param *.uav[*].modelURL "\"quadrocopter.small.obj.15.scale.0,0,90.rot\""
param *.uav[*].labelColor "\"#FF7C00CC\""
param *.uav[*].label2Color "\"#FF7C00EE\""
param *.uav[*].batteryCapacity 5200mAh
param *.uav[*].batteryRemaining uav[index].batteryCapacity
param *.uav[*].predictionQuantile 0.95
param *.uav[*].replacementMethod 2
param *.uav[*].weightedSumWeight 0.5
param *.cs[*].modelURL "\"chargingstation_v1.osgt.2.scale.0,0,0.rot.0,0,-15e-1.trans\""
param *.cs[*].spotsWaiting 999
param *.cs[*].spotsCharging 999
param *.cs[*].chargeEffectivenessPercentage 100
param *.cs[*].nonLinearPhaseStartPercentage 85
param *.cs[*].chargeCurrent 6.0A
param *.cs[*].prioritizeFastCharge true
param *.missionControl.replacementSearchMethod 0
param *.*.timeStep 9s

scalar OsgEarthNet.uav[0] utilizationSecMission 460
scalar OsgEarthNet.uav[0] utilizationSecMaintenance 447.1303002674
scalar OsgEarthNet.uav[0] utilizationSecCharge 3500
scalar OsgEarthNet.uav[0] utilizationSecIdle 254792.86869973
scalar OsgEarthNet.uav[0] utilizationEnergyMission 2113.3852386475
scalar OsgEarthNet.uav[0] utilizationEnergyMaintenance 2186.2724113464
scalar OsgEarthNet.uav[0] utilizationEnergyCharge 4564.9731445312
scalar OsgEarthNet.uav[0] utilizationEnergyOverdrawMission 0
scalar OsgEarthNet.uav[0] utilizationEnergyOverdrawMaintenance 0
scalar OsgEarthNet.uav[0] utilizationCountMissions 1
scalar OsgEarthNet.uav[0] utilizationCountManeuversMission 23
scalar OsgEarthNet.uav[0] utilizationCountManeuversMaintenance 2
scalar OsgEarthNet.uav[0] utilizationCountChargeState 1
scalar OsgEarthNet.uav[0] utilizationCountOverdrawnAfterMission 0
scalar OsgEarthNet.uav[0] utilizationCountIdleState 2
scalar OsgEarthNet.uav[0] utilizationFail 0
scalar OsgEarthNet.uav[0] simulationTime 259200
scalar OsgEarthNet.uav[1] utilizationSecMission 27701.616119481
scalar OsgEarthNet.uav[1] utilizationSecMaintenance 15039.149886252
scalar OsgEarthNet.uav[1] utilizationSecCharge 154214.62110475
scalar OsgEarthNet.uav[1] utilizationSecIdle 62244.611889516
scalar OsgEarthNet.uav[1] utilizationEnergyMission 134884.19238281
scalar OsgEarthNet.uav[1] utilizationEnergyMaintenance 69618.283294678
scalar OsgEarthNet.uav[1] utilizationEnergyCharge 201996.17358398
scalar OsgEarthNet.uav[1] utilizationEnergyOverdrawMission 0
scalar OsgEarthNet.uav[1] utilizationEnergyOverdrawMaintenance 0
scalar OsgEarthNet.uav[1] utilizationCountMissions 47
scalar OsgEarthNet.uav[1] utilizationCountManeuversMission 861
scalar OsgEarthNet.uav[1] utilizationCountManeuversMaintenance 94
scalar OsgEarthNet.uav[1] utilizationCountChargeState 47
scalar OsgEarthNet.uav[1] utilizationCountOverdrawnAfterMission 0
scalar OsgEarthNet.uav[1] utilizationCountIdleState 33
scalar OsgEarthNet.uav[1] utilizationFail 0
scalar OsgEarthNet.uav[1] simulationTime 259200
scalar OsgEarthNet.uav[2] utilizationSecMission 41381.163976274
scalar OsgEarthNet.uav[2] utilizationSecMaintenance 17237.305057794
scalar OsgEarthNet.uav[2] utilizationSecCharge 198045.2055865
scalar OsgEarthNet.uav[2] utilizationSecIdle 2536.3243794327
scalar OsgEarthNet.uav[2] utilizationEnergyMission 200459.30631638
scalar OsgEarthNet.uav[2] utilizationEnergyMaintenance 79041.433498383
scalar OsgEarthNet.uav[2] utilizationEnergyCharge 279364.38818359
scalar OsgEarthNet.uav[2] utilizationEnergyOverdrawMission 0
scalar OsgEarthNet.uav[2] utilizationEnergyOverdrawMaintenance 0
scalar OsgEarthNet.uav[2] utilizationCountMissions 61
scalar OsgEarthNet.uav[2] utilizationCountManeuversMission 1290
scalar OsgEarthNet.uav[2] utilizationCountManeuversMaintenance 122
scalar OsgEarthNet.uav[2] utilizationCountChargeState 61
scalar OsgEarthNet.uav[2] utilizationCountOverdrawnAfterMission 0
scalar OsgEarthNet.uav[2] utilizationCountIdleState 12
scalar OsgEarthNet.uav[2] utilizationFail 0
scalar OsgEarthNet.uav[2] simulationTime 259200
scalar OsgEarthNet.uav[3] utilizationSecMission 760.62515258028
scalar OsgEarthNet.uav[3] utilizationSecMaintenance 280.27216773088
scalar OsgEarthNet.uav[3] utilizationSecCharge 3650
scalar OsgEarthNet.uav[3] utilizationSecIdle 254509.10167969
scalar OsgEarthNet.uav[3] utilizationEnergyMission 3605.1405181885
scalar OsgEarthNet.uav[3] utilizationEnergyMaintenance 1249.7105827332
scalar OsgEarthNet.uav[3] utilizationEnergyCharge 4854.8530273438
scalar OsgEarthNet.uav[3] utilizationEnergyOverdrawMission 0
scalar OsgEarthNet.uav[3] utilizationEnergyOverdrawMaintenance 0
scalar OsgEarthNet.uav[3] utilizationCountMissions 1
scalar OsgEarthNet.uav[3] utilizationCountManeuversMission 12
scalar OsgEarthNet.uav[3] utilizationCountManeuversMaintenance 2
scalar OsgEarthNet.uav[3] utilizationCountChargeState 1
scalar OsgEarthNet.uav[3] utilizationCountOverdrawnAfterMission 0
scalar OsgEarthNet.uav[3] utilizationCountIdleState 2
scalar OsgEarthNet.uav[3] utilizationFail 0
scalar OsgEarthNet.uav[3] simulationTime 259200
scalar OsgEarthNet.uav[4] utilizationSecMission 18152.632946402
scalar OsgEarthNet.uav[4] utilizationSecMaintenance 11537.724876874
scalar OsgEarthNet.uav[4] utilizationSecCharge 112940
scalar OsgEarthNet.uav[4] utilizationSecIdle 116569.64117672
scalar OsgEarthNet.uav[4] utilizationEnergyMission 89227.337192535
scalar OsgEarthNet.uav[4] utilizationEnergyMaintenance 54858.17017746
scalar OsgEarthNet.uav[4] utilizationEnergyCharge 143938.04370117
scalar OsgEarthNet.uav[4] utilizationEnergyOverdrawMission 0
scalar OsgEarthNet.uav[4] utilizationEnergyOverdrawMaintenance 0
scalar OsgEarthNet.uav[4] utilizationCountMissions 33
scalar OsgEarthNet.uav[4] utilizationCountManeuversMission 641
scalar OsgEarthNet.uav[4] utilizationCountManeuversMaintenance 66
scalar OsgEarthNet.uav[4] utilizationCountChargeState 33
scalar OsgEarthNet.uav[4] utilizationCountOverdrawnAfterMission 0
scalar OsgEarthNet.uav[4] utilizationCountIdleState 34
scalar OsgEarthNet.uav[4] utilizationFail 0
scalar OsgEarthNet.uav[4] simulationTime 259200
scalar OsgEarthNet.uav[5] utilizationSecMission 40809.371701552
scalar OsgEarthNet.uav[5] utilizationSecMaintenance 17714.335357024
scalar OsgEarthNet.uav[5] utilizationSecCharge 195466.66086076
scalar OsgEarthNet.uav[5] utilizationSecIdle 5209.6310806652
scalar OsgEarthNet.uav[5] utilizationEnergyMission 195670.44266129
scalar OsgEarthNet.uav[5] utilizationEnergyMaintenance 80545.590389252
scalar OsgEarthNet.uav[5] utilizationEnergyCharge 275866.21987915
scalar OsgEarthNet.uav[5] utilizationEnergyOverdrawMission 0
scalar OsgEarthNet.uav[5] utilizationEnergyOverdrawMaintenance 0
scalar OsgEarthNet.uav[5] utilizationCountMissions 61
scalar OsgEarthNet.uav[5] utilizationCountManeuversMission 1224
scalar OsgEarthNet.uav[5] utilizationCountManeuversMaintenance 122
scalar OsgEarthNet.uav[5] utilizationCountChargeState 61
scalar OsgEarthNet.uav[5] utilizationCountOverdrawnAfterMission 0
scalar OsgEarthNet.uav[5] utilizationCountIdleState 18
scalar OsgEarthNet.uav[5] utilizationFail 0
scalar OsgEarthNet.uav[5] simulationTime 259200
scalar OsgEarthNet.uav[6] utilizationSecMission 760.62515258028
scalar OsgEarthNet.uav[6] utilizationSecMaintenance 202.91610409653
scalar OsgEarthNet.uav[6] utilizationSecCharge 3600
scalar OsgEarthNet.uav[6] utilizationSecIdle 254636.45774332
scalar OsgEarthNet.uav[6] utilizationEnergyMission 3705.0982666016
scalar OsgEarthNet.uav[6] utilizationEnergyMaintenance 983.93419647217
scalar OsgEarthNet.uav[6] utilizationEnergyCharge 4689.0356445312
scalar OsgEarthNet.uav[6] utilizationEnergyOverdrawMission 0
scalar OsgEarthNet.uav[6] utilizationEnergyOverdrawMaintenance 0
scalar OsgEarthNet.uav[6] utilizationCountMissions 1
scalar OsgEarthNet.uav[6] utilizationCountManeuversMission 12
scalar OsgEarthNet.uav[6] utilizationCountManeuversMaintenance 2
scalar OsgEarthNet.uav[6] utilizationCountChargeState 1
scalar OsgEarthNet.uav[6] utilizationCountOverdrawnAfterMission 0
scalar OsgEarthNet.uav[6] utilizationCountIdleState 2
scalar OsgEarthNet.uav[6] utilizationFail 0
scalar OsgEarthNet.uav[6] simulationTime 259200
scalar OsgEarthNet.uav[7] utilizationSecMission 12177.398518375
scalar OsgEarthNet.uav[7] utilizationSecMaintenance 8252.6596212897
scalar OsgEarthNet.uav[7] utilizationSecCharge 80150
scalar OsgEarthNet.uav[7] utilizationSecIdle 158619.94086033
scalar OsgEarthNet.uav[7] utilizationEnergyMission 60269.854640961
scalar OsgEarthNet.uav[7] utilizationEnergyMaintenance 39279.141410828
scalar OsgEarthNet.uav[7] utilizationEnergyCharge 99361.170898438
scalar OsgEarthNet.uav[7] utilizationEnergyOverdrawMission 0
scalar OsgEarthNet.uav[7] utilizationEnergyOverdrawMaintenance 0
scalar OsgEarthNet.uav[7] utilizationCountMissions 25
scalar OsgEarthNet.uav[7] utilizationCountManeuversMission 378
scalar OsgEarthNet.uav[7] utilizationCountManeuversMaintenance 50
scalar OsgEarthNet.uav[7] utilizationCountChargeState 25
scalar OsgEarthNet.uav[7] utilizationCountOverdrawnAfterMission 0
scalar OsgEarthNet.uav[7] utilizationCountIdleState 26
scalar OsgEarthNet.uav[7] utilizationFail 0
scalar OsgEarthNet.uav[7] simulationTime 259200
scalar OsgEarthNet.uav[8] utilizationSecMission 41191.439565311
scalar OsgEarthNet.uav[8] utilizationSecMaintenance 18217.106475972
scalar OsgEarthNet.uav[8] utilizationSecCharge 197170
scalar OsgEarthNet.uav[8] utilizationSecIdle 2621.4529587171
scalar OsgEarthNet.uav[8] utilizationEnergyMission 200825.40159332
scalar OsgEarthNet.uav[8] utilizationEnergyMaintenance 84529.015434265
scalar OsgEarthNet.uav[8] utilizationEnergyCharge 280189.69677734
scalar OsgEarthNet.uav[8] utilizationEnergyOverdrawMission 0
scalar OsgEarthNet.uav[8] utilizationEnergyOverdrawMaintenance 0
scalar OsgEarthNet.uav[8] utilizationCountMissions 61
scalar OsgEarthNet.uav[8] utilizationCountManeuversMission 1251
scalar OsgEarthNet.uav[8] utilizationCountManeuversMaintenance 123
scalar OsgEarthNet.uav[8] utilizationCountChargeState 61
scalar OsgEarthNet.uav[8] utilizationCountOverdrawnAfterMission 0
scalar OsgEarthNet.uav[8] utilizationCountIdleState 12
scalar OsgEarthNet.uav[8] utilizationFail 0
scalar OsgEarthNet.uav[8] simulationTime 259200
scalar OsgEarthNet.uav[9] utilizationSecMission 2901.2503051606
scalar OsgEarthNet.uav[9] utilizationSecMaintenance 1728.3661742395
scalar OsgEarthNet.uav[9] utilizationSecCharge 17360
scalar OsgEarthNet.uav[9] utilizationSecIdle 237210.3825206
scalar OsgEarthNet.uav[9] utilizationEnergyMission 14413.634937286
scalar OsgEarthNet.uav[9] utilizationEnergyMaintenance 8200.7468223571
scalar OsgEarthNet.uav[9] utilizationEnergyCharge 22403.061523438
scalar OsgEarthNet.uav[9] utilizationEnergyOverdrawMission 0
scalar OsgEarthNet.uav[9] utilizationEnergyOverdrawMaintenance 0
scalar OsgEarthNet.uav[9] utilizationCountMissions 5
scalar OsgEarthNet.uav[9] utilizationCountManeuversMission 93
scalar OsgEarthNet.uav[9] utilizationCountManeuversMaintenance 10
scalar OsgEarthNet.uav[9] utilizationCountChargeState 5
scalar OsgEarthNet.uav[9] utilizationCountOverdrawnAfterMission 0
scalar OsgEarthNet.uav[9] utilizationCountIdleState 6
scalar OsgEarthNet.uav[9] utilizationFail 0
scalar OsgEarthNet.uav[9] simulationTime 259200
scalar OsgEarthNet.uav[10] utilizationSecMission 2080.6251525803
scalar OsgEarthNet.uav[10] utilizationSecMaintenance 1622.5472860722
scalar OsgEarthNet.uav[10] utilizationSecCharge 14150
scalar OsgEarthNet.uav[10] utilizationSecIdle 241346.82656135
scalar OsgEarthNet.uav[10] utilizationEnergyMission 10251.817302704
scalar OsgEarthNet.uav[10] utilizationEnergyMaintenance 7835.8484954834
scalar OsgEarthNet.uav[10] utilizationEnergyCharge 18407.621582031
scalar OsgEarthNet.uav[10] utilizationEnergyOverdrawMission 0
scalar OsgEarthNet.uav[10] utilizationEnergyOverdrawMaintenance 0
scalar OsgEarthNet.uav[10] utilizationCountMissions 4
scalar OsgEarthNet.uav[10] utilizationCountManeuversMission 78
scalar OsgEarthNet.uav[10] utilizationCountManeuversMaintenance 8
scalar OsgEarthNet.uav[10] utilizationCountChargeState 4
scalar OsgEarthNet.uav[10] utilizationCountOverdrawnAfterMission 0
scalar OsgEarthNet.uav[10] utilizationCountIdleState 5
scalar OsgEarthNet.uav[10] utilizationFail 0
scalar OsgEarthNet.uav[10] simulationTime 259200
scalar OsgEarthNet.uav[11] utilizationSecMission 15790.098714624
scalar OsgEarthNet.uav[11] utilizationSecMaintenance 10571.664415043
scalar OsgEarthNet.uav[11] utilizationSecCharge 102540
scalar OsgEarthNet.uav[11] utilizationSecIdle 130298.23587033
scalar OsgEarthNet.uav[11] utilizationEnergyMission 77132.57541275
scalar OsgEarthNet.uav[11] utilizationEnergyMaintenance 50428.575286865
scalar OsgEarthNet.uav[11] utilizationEnergyCharge 126978.23388672
scalar OsgEarthNet.uav[11] utilizationEnergyOverdrawMission 0
scalar OsgEarthNet.uav[11] utilizationEnergyOverdrawMaintenance 0
scalar OsgEarthNet.uav[11] utilizationCountMissions 32
scalar OsgEarthNet.uav[11] utilizationCountManeuversMission 499
scalar OsgEarthNet.uav[11] utilizationCountManeuversMaintenance 64
scalar OsgEarthNet.uav[11] utilizationCountChargeState 32
scalar OsgEarthNet.uav[11] utilizationCountOverdrawnAfterMission 0
scalar OsgEarthNet.uav[11] utilizationCountIdleState 33
scalar OsgEarthNet.uav[11] utilizationFail 0
scalar OsgEarthNet.uav[11] simulationTime 259200
scalar OsgEarthNet.uav[12] utilizationSecMission 40221.407717366
scalar OsgEarthNet.uav[12] utilizationSecMaintenance 17689.165935343
scalar OsgEarthNet.uav[12] utilizationSecCharge 198150
scalar OsgEarthNet.uav[12] utilizationSecIdle 3139.4253472904
scalar OsgEarthNet.uav[12] utilizationEnergyMission 196546.56719006
scalar OsgEarthNet.uav[12] utilizationEnergyMaintenance 82418.597606659
scalar OsgEarthNet.uav[12] utilizationEnergyCharge 278384.51416016
scalar OsgEarthNet.uav[12] utilizationEnergyOverdrawMission 0
scalar OsgEarthNet.uav[12] utilizationEnergyOverdrawMaintenance 3.5862050056458
scalar OsgEarthNet.uav[12] utilizationCountMissions 60
scalar OsgEarthNet.uav[12] utilizationCountManeuversMission 1246
scalar OsgEarthNet.uav[12] utilizationCountManeuversMaintenance 121
scalar OsgEarthNet.uav[12] utilizationCountChargeState 60
scalar OsgEarthNet.uav[12] utilizationCountOverdrawnAfterMission 1
scalar OsgEarthNet.uav[12] utilizationCountIdleState 15
scalar OsgEarthNet.uav[12] utilizationFail 0
scalar OsgEarthNet.uav[12] simulationTime 259200
scalar OsgEarthNet.uav[13] utilizationSecMission 2000
scalar OsgEarthNet.uav[13] utilizationSecMaintenance 1789.4254808164
scalar OsgEarthNet.uav[13] utilizationSecCharge 14020
scalar OsgEarthNet.uav[13] utilizationSecIdle 241390.57351918
scalar OsgEarthNet.uav[13] utilizationEnergyMission 10471.980304718
scalar OsgEarthNet.uav[13] utilizationEnergyMaintenance 8614.3828582763
scalar OsgEarthNet.uav[13] utilizationEnergyCharge 18122.830566406
scalar OsgEarthNet.uav[13] utilizationEnergyOverdrawMission 0
scalar OsgEarthNet.uav[13] utilizationEnergyOverdrawMaintenance 0
scalar OsgEarthNet.uav[13] utilizationCountMissions 4
scalar OsgEarthNet.uav[13] utilizationCountManeuversMission 100
scalar OsgEarthNet.uav[13] utilizationCountManeuversMaintenance 8
scalar OsgEarthNet.uav[13] utilizationCountChargeState 4
scalar OsgEarthNet.uav[13] utilizationCountOverdrawnAfterMission 0
scalar OsgEarthNet.uav[13] utilizationCountIdleState 5
scalar OsgEarthNet.uav[13] utilizationFail 0
scalar OsgEarthNet.uav[13] simulationTime 259200
scalar OsgEarthNet.uav[14] utilizationSecMission 14091.709655231
scalar OsgEarthNet.uav[14] utilizationSecMaintenance 10500.059338065
scalar OsgEarthNet.uav[14] utilizationSecCharge 96990
scalar OsgEarthNet.uav[14] utilizationSecIdle 137618.2300067
scalar OsgEarthNet.uav[14] utilizationEnergyMission 67620.185317993
scalar OsgEarthNet.uav[14] utilizationEnergyMaintenance 50596.260498047
scalar OsgEarthNet.uav[14] utilizationEnergyCharge 119114.2409668
scalar OsgEarthNet.uav[14] utilizationEnergyOverdrawMission 0
scalar OsgEarthNet.uav[14] utilizationEnergyOverdrawMaintenance 0
scalar OsgEarthNet.uav[14] utilizationCountMissions 31
scalar OsgEarthNet.uav[14] utilizationCountManeuversMission 495
scalar OsgEarthNet.uav[14] utilizationCountManeuversMaintenance 62
scalar OsgEarthNet.uav[14] utilizationCountChargeState 31
scalar OsgEarthNet.uav[14] utilizationCountOverdrawnAfterMission 0
scalar OsgEarthNet.uav[14] utilizationCountIdleState 32
scalar OsgEarthNet.uav[14] utilizationFail 0
scalar OsgEarthNet.uav[14] simulationTime 259200
scalar OsgEarthNet.uav[15] utilizationSecMission 42637.193419373
scalar OsgEarthNet.uav[15] utilizationSecMaintenance 16747.274082222
scalar OsgEarthNet.uav[15] utilizationSecCharge 197146.35638799
scalar OsgEarthNet.uav[15] utilizationSecIdle 2669.1751104107
scalar OsgEarthNet.uav[15] utilizationEnergyMission 203799.41968536
scalar OsgEarthNet.uav[15] utilizationEnergyMaintenance 75835.910808563
scalar OsgEarthNet.uav[15] utilizationEnergyCharge 277956.04589844
scalar OsgEarthNet.uav[15] utilizationEnergyOverdrawMission 0
scalar OsgEarthNet.uav[15] utilizationEnergyOverdrawMaintenance 0
scalar OsgEarthNet.uav[15] utilizationCountMissions 61
scalar OsgEarthNet.uav[15] utilizationCountManeuversMission 1257
scalar OsgEarthNet.uav[15] utilizationCountManeuversMaintenance 122
scalar OsgEarthNet.uav[15] utilizationCountChargeState 61
scalar OsgEarthNet.uav[15] utilizationCountOverdrawnAfterMission 0
scalar OsgEarthNet.uav[15] utilizationCountIdleState 14
scalar OsgEarthNet.uav[15] utilizationFail 0
scalar OsgEarthNet.uav[15] simulationTime 259200
scalar OsgEarthNet.uav[16] utilizationSecMission 1521.2503051606
scalar OsgEarthNet.uav[16] utilizationSecMaintenance 396.10231423291
scalar OsgEarthNet.uav[16] utilizationSecCharge 7140
scalar OsgEarthNet.uav[16] utilizationSecIdle 250142.64638061
scalar OsgEarthNet.uav[16] utilizationEnergyMission 7228.2652435303
scalar OsgEarthNet.uav[16] utilizationEnergyMaintenance 1930.9718971252
scalar OsgEarthNet.uav[16] utilizationEnergyCharge 9192.708984375
scalar OsgEarthNet.uav[16] utilizationEnergyOverdrawMission 0
scalar OsgEarthNet.uav[16] utilizationEnergyOverdrawMaintenance 0
scalar OsgEarthNet.uav[16] utilizationCountMissions 2
scalar OsgEarthNet.uav[16] utilizationCountManeuversMission 24
scalar OsgEarthNet.uav[16] utilizationCountManeuversMaintenance 4
scalar OsgEarthNet.uav[16] utilizationCountChargeState 2
scalar OsgEarthNet.uav[16] utilizationCountOverdrawnAfterMission 0
scalar OsgEarthNet.uav[16] utilizationCountIdleState 3
scalar OsgEarthNet.uav[16] utilizationFail 0
scalar OsgEarthNet.uav[16] simulationTime 259200
scalar OsgEarthNet.uav[17] utilizationSecMission 13505.813992224
scalar OsgEarthNet.uav[17] utilizationSecMaintenance 10222.180007776
scalar OsgEarthNet.uav[17] utilizationSecCharge 90370
scalar OsgEarthNet.uav[17] utilizationSecIdle 145102.005
scalar OsgEarthNet.uav[17] utilizationEnergyMission 67232.260276794
scalar OsgEarthNet.uav[17] utilizationEnergyMaintenance 48443.278879532
scalar OsgEarthNet.uav[17] utilizationEnergyCharge 110605.35961914
scalar OsgEarthNet.uav[17] utilizationEnergyOverdrawMission 0
scalar OsgEarthNet.uav[17] utilizationEnergyOverdrawMaintenance 0
scalar OsgEarthNet.uav[17] utilizationCountMissions 30
scalar OsgEarthNet.uav[17] utilizationCountManeuversMission 510
scalar OsgEarthNet.uav[17] utilizationCountManeuversMaintenance 60
scalar OsgEarthNet.uav[17] utilizationCountChargeState 29
scalar OsgEarthNet.uav[17] utilizationCountOverdrawnAfterMission 0
scalar OsgEarthNet.uav[17] utilizationCountIdleState 30
scalar OsgEarthNet.uav[17] utilizationFail 0
scalar OsgEarthNet.uav[17] simulationTime 259200
scalar OsgEarthNet.uav[18] utilizationSecMission 41505.070737405
scalar OsgEarthNet.uav[18] utilizationSecMaintenance 17183.465373102
scalar OsgEarthNet.uav[18] utilizationSecCharge 195912.0045414
scalar OsgEarthNet.uav[18] utilizationSecIdle 4599.4583480894
scalar OsgEarthNet.uav[18] utilizationEnergyMission 196889.15958786
scalar OsgEarthNet.uav[18] utilizationEnergyMaintenance 79155.189754486
scalar OsgEarthNet.uav[18] utilizationEnergyCharge 276082.92871094
scalar OsgEarthNet.uav[18] utilizationEnergyOverdrawMission 0
scalar OsgEarthNet.uav[18] utilizationEnergyOverdrawMaintenance 0
scalar OsgEarthNet.uav[18] utilizationCountMissions 60
scalar OsgEarthNet.uav[18] utilizationCountManeuversMission 1167
scalar OsgEarthNet.uav[18] utilizationCountManeuversMaintenance 120
scalar OsgEarthNet.uav[18] utilizationCountChargeState 60
scalar OsgEarthNet.uav[18] utilizationCountOverdrawnAfterMission 0
scalar OsgEarthNet.uav[18] utilizationCountIdleState 15
scalar OsgEarthNet.uav[18] utilizationFail 0
scalar OsgEarthNet.uav[18] simulationTime 259200
scalar OsgEarthNet.uav[19] utilizationSecMission 2171.6174189903
scalar OsgEarthNet.uav[19] utilizationSecMaintenance 622.38052412714
scalar OsgEarthNet.uav[19] utilizationSecCharge 10370
scalar OsgEarthNet.uav[19] utilizationSecIdle 246036.00105688
scalar OsgEarthNet.uav[19] utilizationEnergyMission 10332.452987671
scalar OsgEarthNet.uav[19] utilizationEnergyMaintenance 2925.3901824951
scalar OsgEarthNet.uav[19] utilizationEnergyCharge 13308.954101562
scalar OsgEarthNet.uav[19] utilizationEnergyOverdrawMission 0
scalar OsgEarthNet.uav[19] utilizationEnergyOverdrawMaintenance 0
scalar OsgEarthNet.uav[19] utilizationCountMissions 3
scalar OsgEarthNet.uav[19] utilizationCountManeuversMission 35
scalar OsgEarthNet.uav[19] utilizationCountManeuversMaintenance 6
scalar OsgEarthNet.uav[19] utilizationCountChargeState 3
scalar OsgEarthNet.uav[19] utilizationCountOverdrawnAfterMission 0
scalar OsgEarthNet.uav[19] utilizationCountIdleState 4
scalar OsgEarthNet.uav[19] utilizationFail 0
scalar OsgEarthNet.uav[19] simulationTime 259200
scalar OsgEarthNet.uav[20] utilizationSecMission 3080.6251525803
scalar OsgEarthNet.uav[20] utilizationSecMaintenance 2517.4107397715
scalar OsgEarthNet.uav[20] utilizationSecCharge 21000
scalar OsgEarthNet.uav[20] utilizationSecIdle 232601.96310765
scalar OsgEarthNet.uav[20] utilizationEnergyMission 14827.951030731
scalar OsgEarthNet.uav[20] utilizationEnergyMaintenance 12238.76007843
scalar OsgEarthNet.uav[20] utilizationEnergyCharge 27141.397460938
scalar OsgEarthNet.uav[20] utilizationEnergyOverdrawMission 0
scalar OsgEarthNet.uav[20] utilizationEnergyOverdrawMaintenance 0
scalar OsgEarthNet.uav[20] utilizationCountMissions 6
scalar OsgEarthNet.uav[20] utilizationCountManeuversMission 128
scalar OsgEarthNet.uav[20] utilizationCountManeuversMaintenance 12
scalar OsgEarthNet.uav[20] utilizationCountChargeState 6
scalar OsgEarthNet.uav[20] utilizationCountOverdrawnAfterMission 0
scalar OsgEarthNet.uav[20] utilizationCountIdleState 7
scalar OsgEarthNet.uav[20] utilizationFail 0
scalar OsgEarthNet.uav[20] simulationTime 259200
scalar OsgEarthNet.uav[21] utilizationSecMission 13135.916680605
scalar OsgEarthNet.uav[21] utilizationSecMaintenance 8522.074319395
scalar OsgEarthNet.uav[21] utilizationSecCharge 82650
scalar OsgEarthNet.uav[21] utilizationSecIdle 154892.008
scalar OsgEarthNet.uav[21] utilizationEnergyMission 63693.052825262
scalar OsgEarthNet.uav[21] utilizationEnergyMaintenance 40977.597454071
scalar OsgEarthNet.uav[21] utilizationEnergyCharge 104045.32666016
scalar OsgEarthNet.uav[21] utilizationEnergyOverdrawMission 0
scalar OsgEarthNet.uav[21] utilizationEnergyOverdrawMaintenance 0
scalar OsgEarthNet.uav[21] utilizationCountMissions 25
scalar OsgEarthNet.uav[21] utilizationCountManeuversMission 415
scalar OsgEarthNet.uav[21] utilizationCountManeuversMaintenance 51
scalar OsgEarthNet.uav[21] utilizationCountChargeState 25
scalar OsgEarthNet.uav[21] utilizationCountOverdrawnAfterMission 0
scalar OsgEarthNet.uav[21] utilizationCountIdleState 26
scalar OsgEarthNet.uav[21] utilizationFail 0
scalar OsgEarthNet.uav[21] simulationTime 259200
scalar OsgEarthNet.uav[22] utilizationSecMission 40213.093054394
scalar OsgEarthNet.uav[22] utilizationSecMaintenance 17262.755132678
scalar OsgEarthNet.uav[22] utilizationSecCharge 195128.40212023
scalar OsgEarthNet.uav[22] utilizationSecIdle 6595.7486927025
scalar OsgEarthNet.uav[22] utilizationEnergyMission 196244.0311203
scalar OsgEarthNet.uav[22] utilizationEnergyMaintenance 79031.576152802
scalar OsgEarthNet.uav[22] utilizationEnergyCharge 276500.22900391
scalar OsgEarthNet.uav[22] utilizationEnergyOverdrawMission 0
scalar OsgEarthNet.uav[22] utilizationEnergyOverdrawMaintenance 0
scalar OsgEarthNet.uav[22] utilizationCountMissions 60
scalar OsgEarthNet.uav[22] utilizationCountManeuversMission 1322
scalar OsgEarthNet.uav[22] utilizationCountManeuversMaintenance 120
scalar OsgEarthNet.uav[22] utilizationCountChargeState 60
scalar OsgEarthNet.uav[22] utilizationCountOverdrawnAfterMission 0
scalar OsgEarthNet.uav[22] utilizationCountIdleState 17
scalar OsgEarthNet.uav[22] utilizationFail 0
scalar OsgEarthNet.uav[22] simulationTime 259200
scalar OsgEarthNet.uav[23] utilizationSecMission 40758.090280203
scalar OsgEarthNet.uav[23] utilizationSecMaintenance 18669.908719797
scalar OsgEarthNet.uav[23] utilizationSecCharge 198890
scalar OsgEarthNet.uav[23] utilizationSecIdle 882
scalar OsgEarthNet.uav[23] utilizationEnergyMission 199733.765272
scalar OsgEarthNet.uav[23] utilizationEnergyMaintenance 85538.975379944
scalar OsgEarthNet.uav[23] utilizationEnergyCharge 282001.33691406
scalar OsgEarthNet.uav[23] utilizationEnergyOverdrawMission 0
scalar OsgEarthNet.uav[23] utilizationEnergyOverdrawMaintenance 0
scalar OsgEarthNet.uav[23] utilizationCountMissions 62
scalar OsgEarthNet.uav[23] utilizationCountManeuversMission 1313
scalar OsgEarthNet.uav[23] utilizationCountManeuversMaintenance 124
scalar OsgEarthNet.uav[23] utilizationCountChargeState 62
scalar OsgEarthNet.uav[23] utilizationCountOverdrawnAfterMission 0
scalar OsgEarthNet.uav[23] utilizationCountIdleState 6
scalar OsgEarthNet.uav[23] utilizationFail 0
scalar OsgEarthNet.uav[23] simulationTime 259200
scalar OsgEarthNet.uav[24] utilizationSecMission 12528.059753355
scalar OsgEarthNet.uav[24] utilizationSecMaintenance 9093.9397983004
scalar OsgEarthNet.uav[24] utilizationSecCharge 85520
scalar OsgEarthNet.uav[24] utilizationSecIdle 152057.99944834
scalar OsgEarthNet.uav[24] utilizationEnergyMission 60361.602352142
scalar OsgEarthNet.uav[24] utilizationEnergyMaintenance 43976.060054779
scalar OsgEarthNet.uav[24] utilizationEnergyCharge 103951.4387207
scalar OsgEarthNet.uav[24] utilizationEnergyOverdrawMission 0
scalar OsgEarthNet.uav[24] utilizationEnergyOverdrawMaintenance 0
scalar OsgEarthNet.uav[24] utilizationCountMissions 28
scalar OsgEarthNet.uav[24] utilizationCountManeuversMission 387
scalar OsgEarthNet.uav[24] utilizationCountManeuversMaintenance 56
scalar OsgEarthNet.uav[24] utilizationCountChargeState 28
scalar OsgEarthNet.uav[24] utilizationCountOverdrawnAfterMission 0
scalar OsgEarthNet.uav[24] utilizationCountIdleState 29
scalar OsgEarthNet.uav[24] utilizationFail 0
scalar OsgEarthNet.uav[24] simulationTime 259200
scalar OsgEarthNet.uav[25] utilizationSecMission 4676.049952721
scalar OsgEarthNet.uav[25] utilizationSecMaintenance 3040.4662375583
scalar OsgEarthNet.uav[25] utilizationSecCharge 28200
scalar OsgEarthNet.uav[25] utilizationSecIdle 223283.48280972
scalar OsgEarthNet.uav[25] utilizationEnergyMission 22787.008617401
scalar OsgEarthNet.uav[25] utilizationEnergyMaintenance 14219.916240692
scalar OsgEarthNet.uav[25] utilizationEnergyCharge 36558.065429688
scalar OsgEarthNet.uav[25] utilizationEnergyOverdrawMission 0
scalar OsgEarthNet.uav[25] utilizationEnergyOverdrawMaintenance 0
scalar OsgEarthNet.uav[25] utilizationCountMissions 8
scalar OsgEarthNet.uav[25] utilizationCountManeuversMission 140
scalar OsgEarthNet.uav[25] utilizationCountManeuversMaintenance 16
scalar OsgEarthNet.uav[25] utilizationCountChargeState 8
scalar OsgEarthNet.uav[25] utilizationCountOverdrawnAfterMission 0
scalar OsgEarthNet.uav[25] utilizationCountIdleState 9
scalar OsgEarthNet.uav[25] utilizationFail 0
scalar OsgEarthNet.uav[25] simulationTime 259200
scalar OsgEarthNet.uav[26] utilizationSecMission 2100.6251525803
scalar OsgEarthNet.uav[26] utilizationSecMaintenance 1622.5472860721
scalar OsgEarthNet.uav[26] utilizationSecCharge 14050
scalar OsgEarthNet.uav[26] utilizationSecIdle 241426.82656135
scalar OsgEarthNet.uav[26] utilizationEnergyMission 11116.042873383
scalar OsgEarthNet.uav[26] utilizationEnergyMaintenance 7739.4838104248
scalar OsgEarthNet.uav[26] utilizationEnergyCharge 18181.947753906
scalar OsgEarthNet.uav[26] utilizationEnergyOverdrawMission 0
scalar OsgEarthNet.uav[26] utilizationEnergyOverdrawMaintenance 0
scalar OsgEarthNet.uav[26] utilizationCountMissions 4
scalar OsgEarthNet.uav[26] utilizationCountManeuversMission 79
scalar OsgEarthNet.uav[26] utilizationCountManeuversMaintenance 8
scalar OsgEarthNet.uav[26] utilizationCountChargeState 4
scalar OsgEarthNet.uav[26] utilizationCountOverdrawnAfterMission 0
scalar OsgEarthNet.uav[26] utilizationCountIdleState 5
scalar OsgEarthNet.uav[26] utilizationFail 0
scalar OsgEarthNet.uav[26] simulationTime 259200
scalar OsgEarthNet.uav[27] utilizationSecMission 16269.603444115
scalar OsgEarthNet.uav[27] utilizationSecMaintenance 11093.036405165
scalar OsgEarthNet.uav[27] utilizationSecCharge 104865.35515072
scalar OsgEarthNet.uav[27] utilizationSecIdle 126972.004
scalar OsgEarthNet.uav[27] utilizationEnergyMission 79016.626716614
scalar OsgEarthNet.uav[27] utilizationEnergyMaintenance 52112.456699371
scalar OsgEarthNet.uav[27] utilizationEnergyCharge 127432.26098633
scalar OsgEarthNet.uav[27] utilizationEnergyOverdrawMission 0
scalar OsgEarthNet.uav[27] utilizationEnergyOverdrawMaintenance 0
scalar OsgEarthNet.uav[27] utilizationCountMissions 35
scalar OsgEarthNet.uav[27] utilizationCountManeuversMission 448
scalar OsgEarthNet.uav[27] utilizationCountManeuversMaintenance 70
scalar OsgEarthNet.uav[27] utilizationCountChargeState 35
scalar OsgEarthNet.uav[27] utilizationCountOverdrawnAfterMission 0
scalar OsgEarthNet.uav[27] utilizationCountIdleState 35
scalar OsgEarthNet.uav[27] utilizationFail 0
scalar OsgEarthNet.uav[27] simulationTime 259200
scalar OsgEarthNet.uav[28] utilizationSecMission 40951.605002773
scalar OsgEarthNet.uav[28] utilizationSecMaintenance 17482.58486542
scalar OsgEarthNet.uav[28] utilizationSecCharge 197714.13608022
scalar OsgEarthNet.uav[28] utilizationSecIdle 3051.6730515863
scalar OsgEarthNet.uav[28] utilizationEnergyMission 200818.9134407
scalar OsgEarthNet.uav[28] utilizationEnergyMaintenance 80986.715126038
scalar OsgEarthNet.uav[28] utilizationEnergyCharge 281814.50097656
scalar OsgEarthNet.uav[28] utilizationEnergyOverdrawMission 0
scalar OsgEarthNet.uav[28] utilizationEnergyOverdrawMaintenance 0
scalar OsgEarthNet.uav[28] utilizationCountMissions 61
scalar OsgEarthNet.uav[28] utilizationCountManeuversMission 1251
scalar OsgEarthNet.uav[28] utilizationCountManeuversMaintenance 122
scalar OsgEarthNet.uav[28] utilizationCountChargeState 61
scalar OsgEarthNet.uav[28] utilizationCountOverdrawnAfterMission 0
scalar OsgEarthNet.uav[28] utilizationCountIdleState 8
scalar OsgEarthNet.uav[28] utilizationFail 0
scalar OsgEarthNet.uav[28] simulationTime 259200
scalar OsgEarthNet.uav[29] utilizationSecMission 12652.805650837
scalar OsgEarthNet.uav[29] utilizationSecMaintenance 9593.0369944912
scalar OsgEarthNet.uav[29] utilizationSecCharge 84430
scalar OsgEarthNet.uav[29] utilizationSecIdle 152524.15635467
scalar OsgEarthNet.uav[29] utilizationEnergyMission 64466.095256805
scalar OsgEarthNet.uav[29] utilizationEnergyMaintenance 45546.472167969
scalar OsgEarthNet.uav[29] utilizationEnergyCharge 108942.41210938
scalar OsgEarthNet.uav[29] utilizationEnergyOverdrawMission 0
scalar OsgEarthNet.uav[29] utilizationEnergyOverdrawMaintenance 0
scalar OsgEarthNet.uav[29] utilizationCountMissions 24
scalar OsgEarthNet.uav[29] utilizationCountManeuversMission 502
scalar OsgEarthNet.uav[29] utilizationCountManeuversMaintenance 47
scalar OsgEarthNet.uav[29] utilizationCountChargeState 24
scalar OsgEarthNet.uav[29] utilizationCountOverdrawnAfterMission 0
scalar OsgEarthNet.uav[29] utilizationCountIdleState 25
scalar OsgEarthNet.uav[29] utilizationFail 0
scalar OsgEarthNet.uav[29] simulationTime 259200
scalar OsgEarthNet.uav[30] utilizationSecMission 11063.125762901
scalar OsgEarthNet.uav[30] utilizationSecMaintenance 8386.6392196014
scalar OsgEarthNet.uav[30] utilizationSecCharge 71388.216017497
scalar OsgEarthNet.uav[30] utilizationSecIdle 168362.018
scalar OsgEarthNet.uav[30] utilizationEnergyMission 54618.814586639
scalar OsgEarthNet.uav[30] utilizationEnergyMaintenance 40058.199092865
scalar OsgEarthNet.uav[30] utilizationEnergyCharge 92546.212890625
scalar OsgEarthNet.uav[30] utilizationEnergyOverdrawMission 0
scalar OsgEarthNet.uav[30] utilizationEnergyOverdrawMaintenance 0
scalar OsgEarthNet.uav[30] utilizationCountMissions 21
scalar OsgEarthNet.uav[30] utilizationCountManeuversMission 423
scalar OsgEarthNet.uav[30] utilizationCountManeuversMaintenance 42
scalar OsgEarthNet.uav[30] utilizationCountChargeState 21
scalar OsgEarthNet.uav[30] utilizationCountOverdrawnAfterMission 0
scalar OsgEarthNet.uav[30] utilizationCountIdleState 21
scalar OsgEarthNet.uav[30] utilizationFail 0
scalar OsgEarthNet.uav[30] simulationTime 259200
scalar OsgEarthNet.uav[31] utilizationSecMission 13591.502855368
scalar OsgEarthNet.uav[31] utilizationSecMaintenance 9642.5573441943
scalar OsgEarthNet.uav[31] utilizationSecCharge 89993.932800438
scalar OsgEarthNet.uav[31] utilizationSecIdle 145972.006
scalar OsgEarthNet.uav[31] utilizationEnergyMission 65790.939281464
scalar OsgEarthNet.uav[31] utilizationEnergyMaintenance 45911.01789856
scalar OsgEarthNet.uav[31] utilizationEnergyCharge 112513.80175781
scalar OsgEarthNet.uav[31] utilizationEnergyOverdrawMission 0
scalar OsgEarthNet.uav[31] utilizationEnergyOverdrawMaintenance 0
scalar OsgEarthNet.uav[31] utilizationCountMissions 28
scalar OsgEarthNet.uav[31] utilizationCountManeuversMission 493
scalar OsgEarthNet.uav[31] utilizationCountManeuversMaintenance 56
scalar OsgEarthNet.uav[31] utilizationCountChargeState 28
scalar OsgEarthNet.uav[31] utilizationCountOverdrawnAfterMission 0
scalar OsgEarthNet.uav[31] utilizationCountIdleState 28
scalar OsgEarthNet.uav[31] utilizationFail 0
scalar OsgEarthNet.uav[31] simulationTime 259200
scalar OsgEarthNet.uav[32] utilizationSecMission 40015.504749547
scalar OsgEarthNet.uav[32] utilizationSecMaintenance 19233.001061702
scalar OsgEarthNet.uav[32] utilizationSecCharge 198224.04292472
scalar OsgEarthNet.uav[32] utilizationSecIdle 1727.4502640309
scalar OsgEarthNet.uav[32] utilizationEnergyMission 195637.29432678
scalar OsgEarthNet.uav[32] utilizationEnergyMaintenance 88764.064727783
scalar OsgEarthNet.uav[32] utilizationEnergyCharge 280723.61010742
scalar OsgEarthNet.uav[32] utilizationEnergyOverdrawMission 0
scalar OsgEarthNet.uav[32] utilizationEnergyOverdrawMaintenance 0
scalar OsgEarthNet.uav[32] utilizationCountMissions 62
scalar OsgEarthNet.uav[32] utilizationCountManeuversMission 1255
scalar OsgEarthNet.uav[32] utilizationCountManeuversMaintenance 124
scalar OsgEarthNet.uav[32] utilizationCountChargeState 62
scalar OsgEarthNet.uav[32] utilizationCountOverdrawnAfterMission 0
scalar OsgEarthNet.uav[32] utilizationCountIdleState 12
scalar OsgEarthNet.uav[32] utilizationFail 0
scalar OsgEarthNet.uav[32] simulationTime 259200
scalar OsgEarthNet.uav[33] utilizationSecMission 11865.001220642
scalar OsgEarthNet.uav[33] utilizationSecMaintenance 7438.572908519
scalar OsgEarthNet.uav[33] utilizationSecCharge 69194.416870839
scalar OsgEarthNet.uav[33] utilizationSecIdle 170702.008
scalar OsgEarthNet.uav[33] utilizationEnergyMission 56441.443157196
scalar OsgEarthNet.uav[33] utilizationEnergyMaintenance 35199.979812622
scalar OsgEarthNet.uav[33] utilizationEnergyCharge 90592.767822266
scalar OsgEarthNet.uav[33] utilizationEnergyOverdrawMission 0
scalar OsgEarthNet.uav[33] utilizationEnergyOverdrawMaintenance 0
scalar OsgEarthNet.uav[33] utilizationCountMissions 20
scalar OsgEarthNet.uav[33] utilizationCountManeuversMission 385
scalar OsgEarthNet.uav[33] utilizationCountManeuversMaintenance 40
scalar OsgEarthNet.uav[33] utilizationCountChargeState 20
scalar OsgEarthNet.uav[33] utilizationCountOverdrawnAfterMission 0
scalar OsgEarthNet.uav[33] utilizationCountIdleState 20
scalar OsgEarthNet.uav[33] utilizationFail 0
scalar OsgEarthNet.uav[33] simulationTime 259200
scalar OsgEarthNet.uav[34] utilizationSecMission 24555.954116629
scalar OsgEarthNet.uav[34] utilizationSecMaintenance 15612.383403885
scalar OsgEarthNet.uav[34] utilizationSecCharge 151470.69749381
scalar OsgEarthNet.uav[34] utilizationSecIdle 67560.963985674
scalar OsgEarthNet.uav[34] utilizationEnergyMission 119953.20896912
scalar OsgEarthNet.uav[34] utilizationEnergyMaintenance 73093.979217529
scalar OsgEarthNet.uav[34] utilizationEnergyCharge 192965.35766602
scalar OsgEarthNet.uav[34] utilizationEnergyOverdrawMission 0
scalar OsgEarthNet.uav[34] utilizationEnergyOverdrawMaintenance 0
scalar OsgEarthNet.uav[34] utilizationCountMissions 47
scalar OsgEarthNet.uav[34] utilizationCountManeuversMission 817
scalar OsgEarthNet.uav[34] utilizationCountManeuversMaintenance 94
scalar OsgEarthNet.uav[34] utilizationCountChargeState 47
scalar OsgEarthNet.uav[34] utilizationCountOverdrawnAfterMission 0
scalar OsgEarthNet.uav[34] utilizationCountIdleState 41
scalar OsgEarthNet.uav[34] utilizationFail 0
scalar OsgEarthNet.uav[34] simulationTime 259200
scalar OsgEarthNet.uav[35] utilizationSecMission 39457.733780728
scalar OsgEarthNet.uav[35] utilizationSecMaintenance 18676.084769947
scalar OsgEarthNet.uav[35] utilizationSecCharge 196399.85306989
scalar OsgEarthNet.uav[35] utilizationSecIdle 4666.3273794327
scalar OsgEarthNet.uav[35] utilizationEnergyMission 190760.60930634
scalar OsgEarthNet.uav[35] utilizationEnergyMaintenance 86938.962062836
scalar OsgEarthNet.uav[35] utilizationEnergyCharge 278679.55712891
scalar OsgEarthNet.uav[35] utilizationEnergyOverdrawMission 0
scalar OsgEarthNet.uav[35] utilizationEnergyOverdrawMaintenance 0
scalar OsgEarthNet.uav[35] utilizationCountMissions 61
scalar OsgEarthNet.uav[35] utilizationCountManeuversMission 1185
scalar OsgEarthNet.uav[35] utilizationCountManeuversMaintenance 122
scalar OsgEarthNet.uav[35] utilizationCountChargeState 61
scalar OsgEarthNet.uav[35] utilizationCountOverdrawnAfterMission 0
scalar OsgEarthNet.uav[35] utilizationCountIdleState 11
scalar OsgEarthNet.uav[35] utilizationFail 0
scalar OsgEarthNet.uav[35] simulationTime 259200
scalar OsgEarthNet.uav[36] utilizationSecMission 14795.368334472
scalar OsgEarthNet.uav[36] utilizationSecMaintenance 9902.0298148693
scalar OsgEarthNet.uav[36] utilizationSecCharge 90740.77812848
scalar OsgEarthNet.uav[36] utilizationSecIdle 143761.82272218
scalar OsgEarthNet.uav[36] utilizationEnergyMission 72434.051334381
scalar OsgEarthNet.uav[36] utilizationEnergyMaintenance 47434.257743835
scalar OsgEarthNet.uav[36] utilizationEnergyCharge 118191.03100586
scalar OsgEarthNet.uav[36] utilizationEnergyOverdrawMission 0
scalar OsgEarthNet.uav[36] utilizationEnergyOverdrawMaintenance 0
scalar OsgEarthNet.uav[36] utilizationCountMissions 26
scalar OsgEarthNet.uav[36] utilizationCountManeuversMission 510
scalar OsgEarthNet.uav[36] utilizationCountManeuversMaintenance 52
scalar OsgEarthNet.uav[36] utilizationCountChargeState 26
scalar OsgEarthNet.uav[36] utilizationCountOverdrawnAfterMission 0
scalar OsgEarthNet.uav[36] utilizationCountIdleState 26
scalar OsgEarthNet.uav[36] utilizationFail 0
scalar OsgEarthNet.uav[36] simulationTime 259200
scalar OsgEarthNet.uav[37] utilizationSecMission 18815.29230726
scalar OsgEarthNet.uav[37] utilizationSecMaintenance 11646.929687584
scalar OsgEarthNet.uav[37] utilizationSecCharge 115055.0525387
scalar OsgEarthNet.uav[37] utilizationSecIdle 113682.72446646
scalar OsgEarthNet.uav[37] utilizationEnergyMission 90439.56023407
scalar OsgEarthNet.uav[37] utilizationEnergyMaintenance 55030.614192963
scalar OsgEarthNet.uav[37] utilizationEnergyCharge 144010.42138672
scalar OsgEarthNet.uav[37] utilizationEnergyOverdrawMission 0
scalar OsgEarthNet.uav[37] utilizationEnergyOverdrawMaintenance 0
scalar OsgEarthNet.uav[37] utilizationCountMissions 36
scalar OsgEarthNet.uav[37] utilizationCountManeuversMission 554
scalar OsgEarthNet.uav[37] utilizationCountManeuversMaintenance 72
scalar OsgEarthNet.uav[37] utilizationCountChargeState 36
scalar OsgEarthNet.uav[37] utilizationCountOverdrawnAfterMission 0
scalar OsgEarthNet.uav[37] utilizationCountIdleState 36
scalar OsgEarthNet.uav[37] utilizationFail 0
scalar OsgEarthNet.uav[37] simulationTime 259200
scalar OsgEarthNet.uav[38] utilizationSecMission 40763.660203518
scalar OsgEarthNet.uav[38] utilizationSecMaintenance 18230.908901906
scalar OsgEarthNet.uav[38] utilizationSecCharge 196673.42689458
scalar OsgEarthNet.uav[38] utilizationSecIdle 3532.003
scalar OsgEarthNet.uav[38] utilizationEnergyMission 197631.20701981
scalar OsgEarthNet.uav[38] utilizationEnergyMaintenance 85492.620326996
scalar OsgEarthNet.uav[38] utilizationEnergyCharge 280585.10449219
scalar OsgEarthNet.uav[38] utilizationEnergyOverdrawMission 0
scalar OsgEarthNet.uav[38] utilizationEnergyOverdrawMaintenance 0
scalar OsgEarthNet.uav[38] utilizationCountMissions 61
scalar OsgEarthNet.uav[38] utilizationCountManeuversMission 1146
scalar OsgEarthNet.uav[38] utilizationCountManeuversMaintenance 122
scalar OsgEarthNet.uav[38] utilizationCountChargeState 61
scalar OsgEarthNet.uav[38] utilizationCountOverdrawnAfterMission 0
scalar OsgEarthNet.uav[38] utilizationCountIdleState 16
scalar OsgEarthNet.uav[38] utilizationFail 0
scalar OsgEarthNet.uav[38] simulationTime 259200
scalar OsgEarthNet.uav[39] utilizationSecMission 13164.376068062
scalar OsgEarthNet.uav[39] utilizationSecMaintenance 9307.8106886929
scalar OsgEarthNet.uav[39] utilizationSecCharge 84440
scalar OsgEarthNet.uav[39] utilizationSecIdle 152287.81224325
scalar OsgEarthNet.uav[39] utilizationEnergyMission 63623.210762024
scalar OsgEarthNet.uav[39] utilizationEnergyMaintenance 44089.211700439
scalar OsgEarthNet.uav[39] utilizationEnergyCharge 109160.03320312
scalar OsgEarthNet.uav[39] utilizationEnergyOverdrawMission 0
scalar OsgEarthNet.uav[39] utilizationEnergyOverdrawMaintenance 0
scalar OsgEarthNet.uav[39] utilizationCountMissions 24
scalar OsgEarthNet.uav[39] utilizationCountManeuversMission 476
scalar OsgEarthNet.uav[39] utilizationCountManeuversMaintenance 48
scalar OsgEarthNet.uav[39] utilizationCountChargeState 24
scalar OsgEarthNet.uav[39] utilizationCountOverdrawnAfterMission 0
scalar OsgEarthNet.uav[39] utilizationCountIdleState 25
scalar OsgEarthNet.uav[39] utilizationFail 0
scalar OsgEarthNet.uav[39] simulationTime 259200
scalar OsgEarthNet.uav[40] utilizationSecMission 15028.126983544
scalar OsgEarthNet.uav[40] utilizationSecMaintenance 7957.0722323512
scalar OsgEarthNet.uav[40] utilizationSecCharge 84290
scalar OsgEarthNet.uav[40] utilizationSecIdle 151924.79978411
scalar OsgEarthNet.uav[40] utilizationEnergyMission 71359.164222717
scalar OsgEarthNet.uav[40] utilizationEnergyMaintenance 37657.147796631
scalar OsgEarthNet.uav[40] utilizationEnergyCharge 108731.70556641
scalar OsgEarthNet.uav[40] utilizationEnergyOverdrawMission 0
scalar OsgEarthNet.uav[40] utilizationEnergyOverdrawMaintenance 0
scalar OsgEarthNet.uav[40] utilizationCountMissions 24
scalar OsgEarthNet.uav[40] utilizationCountManeuversMission 413
scalar OsgEarthNet.uav[40] utilizationCountManeuversMaintenance 48
scalar OsgEarthNet.uav[40] utilizationCountChargeState 24
scalar OsgEarthNet.uav[40] utilizationCountOverdrawnAfterMission 0
scalar OsgEarthNet.uav[40] utilizationCountIdleState 25
scalar OsgEarthNet.uav[40] utilizationFail 0
scalar OsgEarthNet.uav[40] simulationTime 259200
scalar OsgEarthNet.uav[41] utilizationSecMission 19762.592111011
scalar OsgEarthNet.uav[41] utilizationSecMaintenance 13239.436808569
scalar OsgEarthNet.uav[41] utilizationSecCharge 128070
scalar OsgEarthNet.uav[41] utilizationSecIdle 98127.97008042
scalar OsgEarthNet.uav[41] utilizationEnergyMission 97807.09778595
scalar OsgEarthNet.uav[41] utilizationEnergyMaintenance 62818.254810333
scalar OsgEarthNet.uav[41] utilizationEnergyCharge 160515.54833984
scalar OsgEarthNet.uav[41] utilizationEnergyOverdrawMission 0
scalar OsgEarthNet.uav[41] utilizationEnergyOverdrawMaintenance 0
scalar OsgEarthNet.uav[41] utilizationCountMissions 39
scalar OsgEarthNet.uav[41] utilizationCountManeuversMission 661
scalar OsgEarthNet.uav[41] utilizationCountManeuversMaintenance 78
scalar OsgEarthNet.uav[41] utilizationCountChargeState 39
scalar OsgEarthNet.uav[41] utilizationCountOverdrawnAfterMission 0
scalar OsgEarthNet.uav[41] utilizationCountIdleState 40
scalar OsgEarthNet.uav[41] utilizationFail 0
scalar OsgEarthNet.uav[41] simulationTime 259200
scalar OsgEarthNet.uav[42] utilizationSecMission 32388.006934907
scalar OsgEarthNet.uav[42] utilizationSecMaintenance 16095.864973472
scalar OsgEarthNet.uav[42] utilizationSecCharge 167256.29027758
scalar OsgEarthNet.uav[42] utilizationSecIdle 43459.83681404
scalar OsgEarthNet.uav[42] utilizationEnergyMission 158340.70667648
scalar OsgEarthNet.uav[42] utilizationEnergyMaintenance 76141.279006958
scalar OsgEarthNet.uav[42] utilizationEnergyCharge 232108.69897461
scalar OsgEarthNet.uav[42] utilizationEnergyOverdrawMission 0
scalar OsgEarthNet.uav[42] utilizationEnergyOverdrawMaintenance 0
scalar OsgEarthNet.uav[42] utilizationCountMissions 52
scalar OsgEarthNet.uav[42] utilizationCountManeuversMission 1047
scalar OsgEarthNet.uav[42] utilizationCountManeuversMaintenance 104
scalar OsgEarthNet.uav[42] utilizationCountChargeState 52
scalar OsgEarthNet.uav[42] utilizationCountOverdrawnAfterMission 0
scalar OsgEarthNet.uav[42] utilizationCountIdleState 22
scalar OsgEarthNet.uav[42] utilizationFail 0
scalar OsgEarthNet.uav[42] simulationTime 259200
scalar OsgEarthNet.uav[43] utilizationSecMission 14156.509564553
scalar OsgEarthNet.uav[43] utilizationSecMaintenance 8522.0134593376
scalar OsgEarthNet.uav[43] utilizationSecCharge 84350
scalar OsgEarthNet.uav[43] utilizationSecIdle 152171.47597611
scalar OsgEarthNet.uav[43] utilizationEnergyMission 69066.025215149
scalar OsgEarthNet.uav[43] utilizationEnergyMaintenance 40461.987285614
scalar OsgEarthNet.uav[43] utilizationEnergyCharge 108793.51757812
scalar OsgEarthNet.uav[43] utilizationEnergyOverdrawMission 0
scalar OsgEarthNet.uav[43] utilizationEnergyOverdrawMaintenance 0
scalar OsgEarthNet.uav[43] utilizationCountMissions 24
scalar OsgEarthNet.uav[43] utilizationCountManeuversMission 443
scalar OsgEarthNet.uav[43] utilizationCountManeuversMaintenance 48
scalar OsgEarthNet.uav[43] utilizationCountChargeState 24
scalar OsgEarthNet.uav[43] utilizationCountOverdrawnAfterMission 0
scalar OsgEarthNet.uav[43] utilizationCountIdleState 25
scalar OsgEarthNet.uav[43] utilizationFail 0
scalar OsgEarthNet.uav[43] simulationTime 259200
scalar OsgEarthNet.uav[44] utilizationSecMission 17109.18984439
scalar OsgEarthNet.uav[44] utilizationSecMaintenance 10989.497698258
scalar OsgEarthNet.uav[44] utilizationSecCharge 108011.29118321
scalar OsgEarthNet.uav[44] utilizationSecIdle 123090.02027414
scalar OsgEarthNet.uav[44] utilizationEnergyMission 84991.073055267
scalar OsgEarthNet.uav[44] utilizationEnergyMaintenance 51939.031272888
scalar OsgEarthNet.uav[44] utilizationEnergyCharge 136261.70068359
scalar OsgEarthNet.uav[44] utilizationEnergyOverdrawMission 0
scalar OsgEarthNet.uav[44] utilizationEnergyOverdrawMaintenance 0
scalar OsgEarthNet.uav[44] utilizationCountMissions 33
scalar OsgEarthNet.uav[44] utilizationCountManeuversMission 536
scalar OsgEarthNet.uav[44] utilizationCountManeuversMaintenance 66
scalar OsgEarthNet.uav[44] utilizationCountChargeState 33
scalar OsgEarthNet.uav[44] utilizationCountOverdrawnAfterMission 0
scalar OsgEarthNet.uav[44] utilizationCountIdleState 33
scalar OsgEarthNet.uav[44] utilizationFail 0
scalar OsgEarthNet.uav[44] simulationTime 259200
scalar OsgEarthNet.uav[45] utilizationSecMission 40821.27603301
scalar OsgEarthNet.uav[45] utilizationSecMaintenance 17873.267313586
scalar OsgEarthNet.uav[45] utilizationSecCharge 196650
scalar OsgEarthNet.uav[45] utilizationSecIdle 3855.4556534032
scalar OsgEarthNet.uav[45] utilizationEnergyMission 195789.76191846
scalar OsgEarthNet.uav[45] utilizationEnergyMaintenance 82529.060176849
scalar OsgEarthNet.uav[45] utilizationEnergyCharge 275812.34521484
scalar OsgEarthNet.uav[45] utilizationEnergyOverdrawMission 0
scalar OsgEarthNet.uav[45] utilizationEnergyOverdrawMaintenance 0
scalar OsgEarthNet.uav[45] utilizationCountMissions 60
scalar OsgEarthNet.uav[45] utilizationCountManeuversMission 1147
scalar OsgEarthNet.uav[45] utilizationCountManeuversMaintenance 121
scalar OsgEarthNet.uav[45] utilizationCountChargeState 60
scalar OsgEarthNet.uav[45] utilizationCountOverdrawnAfterMission 0
scalar OsgEarthNet.uav[45] utilizationCountIdleState 18
scalar OsgEarthNet.uav[45] utilizationFail 0
scalar OsgEarthNet.uav[45] simulationTime 259200
scalar OsgEarthNet.uav[46] utilizationSecMission 20580.369555114
scalar OsgEarthNet.uav[46] utilizationSecMaintenance 11534.866755722
scalar OsgEarthNet.uav[46] utilizationSecCharge 119472.76268916
scalar OsgEarthNet.uav[46] utilizationSecIdle 107612
scalar OsgEarthNet.uav[46] utilizationEnergyMission 97516.866107941
scalar OsgEarthNet.uav[46] utilizationEnergyMaintenance 54677.578453064
scalar OsgEarthNet.uav[46] utilizationEnergyCharge 154681.72363281
scalar OsgEarthNet.uav[46] utilizationEnergyOverdrawMission 0
scalar OsgEarthNet.uav[46] utilizationEnergyOverdrawMaintenance 0
scalar OsgEarthNet.uav[46] utilizationCountMissions 34
scalar OsgEarthNet.uav[46] utilizationCountManeuversMission 591
scalar OsgEarthNet.uav[46] utilizationCountManeuversMaintenance 68
scalar OsgEarthNet.uav[46] utilizationCountChargeState 34
scalar OsgEarthNet.uav[46] utilizationCountOverdrawnAfterMission 0
scalar OsgEarthNet.uav[46] utilizationCountIdleState 34
scalar OsgEarthNet.uav[46] utilizationFail 0
scalar OsgEarthNet.uav[46] simulationTime 259200
scalar OsgEarthNet.uav[47] utilizationSecMission 19072.344475756
scalar OsgEarthNet.uav[47] utilizationSecMaintenance 12511.403173674
scalar OsgEarthNet.uav[47] utilizationSecCharge 121510
scalar OsgEarthNet.uav[47] utilizationSecIdle 106106.25135057
scalar OsgEarthNet.uav[47] utilizationEnergyMission 91804.503990173
scalar OsgEarthNet.uav[47] utilizationEnergyMaintenance 59583.989112854
scalar OsgEarthNet.uav[47] utilizationEnergyCharge 150646.6496582
scalar OsgEarthNet.uav[47] utilizationEnergyOverdrawMission 0
scalar OsgEarthNet.uav[47] utilizationEnergyOverdrawMaintenance 0
scalar OsgEarthNet.uav[47] utilizationCountMissions 38
scalar OsgEarthNet.uav[47] utilizationCountManeuversMission 589
scalar OsgEarthNet.uav[47] utilizationCountManeuversMaintenance 76
scalar OsgEarthNet.uav[47] utilizationCountChargeState 38
scalar OsgEarthNet.uav[47] utilizationCountOverdrawnAfterMission 0
scalar OsgEarthNet.uav[47] utilizationCountIdleState 39
scalar OsgEarthNet.uav[47] utilizationFail 0
scalar OsgEarthNet.uav[47] simulationTime 259200
scalar OsgEarthNet.uav[48] utilizationSecMission 42293.388607894
scalar OsgEarthNet.uav[48] utilizationSecMaintenance 15695.48209525
scalar OsgEarthNet.uav[48] utilizationSecCharge 194006.41754508
scalar OsgEarthNet.uav[48] utilizationSecIdle 7204.7107517761
scalar OsgEarthNet.uav[48] utilizationEnergyMission 202195.39130783
scalar OsgEarthNet.uav[48] utilizationEnergyMaintenance 72074.828159332
scalar OsgEarthNet.uav[48] utilizationEnergyCharge 272184.02441406
scalar OsgEarthNet.uav[48] utilizationEnergyOverdrawMission 0
scalar OsgEarthNet.uav[48] utilizationEnergyOverdrawMaintenance 0
scalar OsgEarthNet.uav[48] utilizationCountMissions 59
scalar OsgEarthNet.uav[48] utilizationCountManeuversMission 1114
scalar OsgEarthNet.uav[48] utilizationCountManeuversMaintenance 118
scalar OsgEarthNet.uav[48] utilizationCountChargeState 59
scalar OsgEarthNet.uav[48] utilizationCountOverdrawnAfterMission 0
scalar OsgEarthNet.uav[48] utilizationCountIdleState 19
scalar OsgEarthNet.uav[48] utilizationFail 0
scalar OsgEarthNet.uav[48] simulationTime 259200
scalar OsgEarthNet.uav[49] utilizationSecMission 18187.501830963
scalar OsgEarthNet.uav[49] utilizationSecMaintenance 11430.727221189
scalar OsgEarthNet.uav[49] utilizationSecCharge 109640
scalar OsgEarthNet.uav[49] utilizationSecIdle 119941.76994785
scalar OsgEarthNet.uav[49] utilizationEnergyMission 88196.945781708
scalar OsgEarthNet.uav[49] utilizationEnergyMaintenance 53772.033527374
scalar OsgEarthNet.uav[49] utilizationEnergyCharge 141641.16845703
scalar OsgEarthNet.uav[49] utilizationEnergyOverdrawMission 0
scalar OsgEarthNet.uav[49] utilizationEnergyOverdrawMaintenance 0
scalar OsgEarthNet.uav[49] utilizationCountMissions 31
scalar OsgEarthNet.uav[49] utilizationCountManeuversMission 597
scalar OsgEarthNet.uav[49] utilizationCountManeuversMaintenance 62
scalar OsgEarthNet.uav[49] utilizationCountChargeState 31
scalar OsgEarthNet.uav[49] utilizationCountOverdrawnAfterMission 0
scalar OsgEarthNet.uav[49] utilizationCountIdleState 32
scalar OsgEarthNet.uav[49] utilizationFail 0
scalar OsgEarthNet.uav[49] simulationTime 259200
scalar OsgEarthNet.uav[50] utilizationSecMission 16872.821394789
scalar OsgEarthNet.uav[50] utilizationSecMaintenance 11395.161605211
scalar OsgEarthNet.uav[50] utilizationSecCharge 105300
scalar OsgEarthNet.uav[50] utilizationSecIdle 125632.016
scalar OsgEarthNet.uav[50] utilizationEnergyMission 82657.385034235
scalar OsgEarthNet.uav[50] utilizationEnergyMaintenance 54283.997871399
scalar OsgEarthNet.uav[50] utilizationEnergyCharge 135725.71923828
scalar OsgEarthNet.uav[50] utilizationEnergyOverdrawMission 0
scalar OsgEarthNet.uav[50] utilizationEnergyOverdrawMaintenance 0
scalar OsgEarthNet.uav[50] utilizationCountMissions 30
scalar OsgEarthNet.uav[50] utilizationCountManeuversMission 584
scalar OsgEarthNet.uav[50] utilizationCountManeuversMaintenance 61
scalar OsgEarthNet.uav[50] utilizationCountChargeState 30
scalar OsgEarthNet.uav[50] utilizationCountOverdrawnAfterMission 0
scalar OsgEarthNet.uav[50] utilizationCountIdleState 31
scalar OsgEarthNet.uav[50] utilizationFail 0
scalar OsgEarthNet.uav[50] simulationTime 259200
scalar OsgEarthNet.uav[51] utilizationSecMission 17716.903247866
scalar OsgEarthNet.uav[51] utilizationSecMaintenance 12333.422279252
scalar OsgEarthNet.uav[51] utilizationSecCharge 114743.30110258
scalar OsgEarthNet.uav[51] utilizationSecIdle 114406.3723703
scalar OsgEarthNet.uav[51] utilizationEnergyMission 86355.179294586
scalar OsgEarthNet.uav[51] utilizationEnergyMaintenance 58514.903755188
scalar OsgEarthNet.uav[51] utilizationEnergyCharge 141727.6262207
scalar OsgEarthNet.uav[51] utilizationEnergyOverdrawMission 0
scalar OsgEarthNet.uav[51] utilizationEnergyOverdrawMaintenance 0
scalar OsgEarthNet.uav[51] utilizationCountMissions 37
scalar OsgEarthNet.uav[51] utilizationCountManeuversMission 580
scalar OsgEarthNet.uav[51] utilizationCountManeuversMaintenance 74
scalar OsgEarthNet.uav[51] utilizationCountChargeState 37
scalar OsgEarthNet.uav[51] utilizationCountOverdrawnAfterMission 0
scalar OsgEarthNet.uav[51] utilizationCountIdleState 37
scalar OsgEarthNet.uav[51] utilizationFail 0
scalar OsgEarthNet.uav[51] simulationTime 259200
scalar OsgEarthNet.uav[52] utilizationSecMission 41521.239441761
scalar OsgEarthNet.uav[52] utilizationSecMaintenance 17075.865795597
scalar OsgEarthNet.uav[52] utilizationSecCharge 198200.89376264
scalar OsgEarthNet.uav[52] utilizationSecIdle 2402
scalar OsgEarthNet.uav[52] utilizationEnergyMission 200754.33869553
scalar OsgEarthNet.uav[52] utilizationEnergyMaintenance 78615.91796875
scalar OsgEarthNet.uav[52] utilizationEnergyCharge 277270.20361328
scalar OsgEarthNet.uav[52] utilizationEnergyOverdrawMission 0
scalar OsgEarthNet.uav[52] utilizationEnergyOverdrawMaintenance 0
scalar OsgEarthNet.uav[52] utilizationCountMissions 60
scalar OsgEarthNet.uav[52] utilizationCountManeuversMission 1193
scalar OsgEarthNet.uav[52] utilizationCountManeuversMaintenance 120
scalar OsgEarthNet.uav[52] utilizationCountChargeState 60
scalar OsgEarthNet.uav[52] utilizationCountOverdrawnAfterMission 0
scalar OsgEarthNet.uav[52] utilizationCountIdleState 15
scalar OsgEarthNet.uav[52] utilizationFail 0
scalar OsgEarthNet.uav[52] simulationTime 259200
scalar OsgEarthNet.uav[53] utilizationSecMission 14044.376068062
scalar OsgEarthNet.uav[53] utilizationSecMaintenance 9950.6034970276
scalar OsgEarthNet.uav[53] utilizationSecCharge 90890
scalar OsgEarthNet.uav[53] utilizationSecIdle 144315.01943491
scalar OsgEarthNet.uav[53] utilizationEnergyMission 68693.069660187
scalar OsgEarthNet.uav[53] utilizationEnergyMaintenance 47461.787509918
scalar OsgEarthNet.uav[53] utilizationEnergyCharge 117159.640625
scalar OsgEarthNet.uav[53] utilizationEnergyOverdrawMission 0
scalar OsgEarthNet.uav[53] utilizationEnergyOverdrawMaintenance 0
scalar OsgEarthNet.uav[53] utilizationCountMissions 26
scalar OsgEarthNet.uav[53] utilizationCountManeuversMission 520
scalar OsgEarthNet.uav[53] utilizationCountManeuversMaintenance 52
scalar OsgEarthNet.uav[53] utilizationCountChargeState 26
scalar OsgEarthNet.uav[53] utilizationCountOverdrawnAfterMission 0
scalar OsgEarthNet.uav[53] utilizationCountIdleState 27
scalar OsgEarthNet.uav[53] utilizationFail 0
scalar OsgEarthNet.uav[53] simulationTime 259200
scalar OsgEarthNet.uav[54] utilizationSecMission 20935.705906985
scalar OsgEarthNet.uav[54] utilizationSecMaintenance 14495.713158257
scalar OsgEarthNet.uav[54] utilizationSecCharge 137776.57993476
scalar OsgEarthNet.uav[54] utilizationSecIdle 85992
scalar OsgEarthNet.uav[54] utilizationEnergyMission 102583.30423355
scalar OsgEarthNet.uav[54] utilizationEnergyMaintenance 69613.089015961
scalar OsgEarthNet.uav[54] utilizationEnergyCharge 168953.96459961
scalar OsgEarthNet.uav[54] utilizationEnergyOverdrawMission 0
scalar OsgEarthNet.uav[54] utilizationEnergyOverdrawMaintenance 0
scalar OsgEarthNet.uav[54] utilizationCountMissions 45
scalar OsgEarthNet.uav[54] utilizationCountManeuversMission 614
scalar OsgEarthNet.uav[54] utilizationCountManeuversMaintenance 90
scalar OsgEarthNet.uav[54] utilizationCountChargeState 45
scalar OsgEarthNet.uav[54] utilizationCountOverdrawnAfterMission 0
scalar OsgEarthNet.uav[54] utilizationCountIdleState 45
scalar OsgEarthNet.uav[54] utilizationFail 0
scalar OsgEarthNet.uav[54] simulationTime 259200
scalar OsgEarthNet.uav[55] utilizationSecMission 41934.851934551
scalar OsgEarthNet.uav[55] utilizationSecMaintenance 16738.369044794
scalar OsgEarthNet.uav[55] utilizationSecCharge 195410.45264122
scalar OsgEarthNet.uav[55] utilizationSecIdle 5116.3253794327
scalar OsgEarthNet.uav[55] utilizationEnergyMission 200887.46197891
scalar OsgEarthNet.uav[55] utilizationEnergyMaintenance 77183.426895142
scalar OsgEarthNet.uav[55] utilizationEnergyCharge 275356.56298828
scalar OsgEarthNet.uav[55] utilizationEnergyOverdrawMission 0
scalar OsgEarthNet.uav[55] utilizationEnergyOverdrawMaintenance 0
scalar OsgEarthNet.uav[55] utilizationCountMissions 60
scalar OsgEarthNet.uav[55] utilizationCountManeuversMission 1168
scalar OsgEarthNet.uav[55] utilizationCountManeuversMaintenance 120
scalar OsgEarthNet.uav[55] utilizationCountChargeState 60
scalar OsgEarthNet.uav[55] utilizationCountOverdrawnAfterMission 0
scalar OsgEarthNet.uav[55] utilizationCountIdleState 21
scalar OsgEarthNet.uav[55] utilizationFail 0
scalar OsgEarthNet.uav[55] simulationTime 259200
scalar OsgEarthNet.uav[56] utilizationSecMission 18599.635327455
scalar OsgEarthNet.uav[56] utilizationSecMaintenance 9978.3496725452
scalar OsgEarthNet.uav[56] utilizationSecCharge 102020
scalar OsgEarthNet.uav[56] utilizationSecIdle 128602.014
scalar OsgEarthNet.uav[56] utilizationEnergyMission 88606.216724396
scalar OsgEarthNet.uav[56] utilizationEnergyMaintenance 46993.364420484
scalar OsgEarthNet.uav[56] utilizationEnergyCharge 131699.30517578
scalar OsgEarthNet.uav[56] utilizationEnergyOverdrawMission 0
scalar OsgEarthNet.uav[56] utilizationEnergyOverdrawMaintenance 0
scalar OsgEarthNet.uav[56] utilizationCountMissions 30
scalar OsgEarthNet.uav[56] utilizationCountManeuversMission 535
scalar OsgEarthNet.uav[56] utilizationCountManeuversMaintenance 60
scalar OsgEarthNet.uav[56] utilizationCountChargeState 29
scalar OsgEarthNet.uav[56] utilizationCountOverdrawnAfterMission 0
scalar OsgEarthNet.uav[56] utilizationCountIdleState 30
scalar OsgEarthNet.uav[56] utilizationFail 0
scalar OsgEarthNet.uav[56] simulationTime 259200
scalar OsgEarthNet.uav[57] utilizationSecMission 20749.18984439
scalar OsgEarthNet.uav[57] utilizationSecMaintenance 13598.80015561
scalar OsgEarthNet.uav[57] utilizationSecCharge 129520
scalar OsgEarthNet.uav[57] utilizationSecIdle 95332.009
scalar OsgEarthNet.uav[57] utilizationEnergyMission 102271.82761765
scalar OsgEarthNet.uav[57] utilizationEnergyMaintenance 64412.158648361
scalar OsgEarthNet.uav[57] utilizationEnergyCharge 163267.25854492
scalar OsgEarthNet.uav[57] utilizationEnergyOverdrawMission 0
scalar OsgEarthNet.uav[57] utilizationEnergyOverdrawMaintenance 0
scalar OsgEarthNet.uav[57] utilizationCountMissions 40
scalar OsgEarthNet.uav[57] utilizationCountManeuversMission 718
scalar OsgEarthNet.uav[57] utilizationCountManeuversMaintenance 80
scalar OsgEarthNet.uav[57] utilizationCountChargeState 39
scalar OsgEarthNet.uav[57] utilizationCountOverdrawnAfterMission 0
scalar OsgEarthNet.uav[57] utilizationCountIdleState 40
scalar OsgEarthNet.uav[57] utilizationFail 0
scalar OsgEarthNet.uav[57] simulationTime 259200
scalar OsgEarthNet.uav[58] utilizationSecMission 41487.907372703
scalar OsgEarthNet.uav[58] utilizationSecMaintenance 17838.046887395
scalar OsgEarthNet.uav[58] utilizationSecCharge 196012.0427399
scalar OsgEarthNet.uav[58] utilizationSecIdle 3862.002
scalar OsgEarthNet.uav[58] utilizationEnergyMission 200260.58032989
scalar OsgEarthNet.uav[58] utilizationEnergyMaintenance 83190.844478607
scalar OsgEarthNet.uav[58] utilizationEnergyCharge 279052.66772461
scalar OsgEarthNet.uav[58] utilizationEnergyOverdrawMission 0
scalar OsgEarthNet.uav[58] utilizationEnergyOverdrawMaintenance 0
scalar OsgEarthNet.uav[58] utilizationCountMissions 61
scalar OsgEarthNet.uav[58] utilizationCountManeuversMission 1201
scalar OsgEarthNet.uav[58] utilizationCountManeuversMaintenance 122
scalar OsgEarthNet.uav[58] utilizationCountChargeState 61
scalar OsgEarthNet.uav[58] utilizationCountOverdrawnAfterMission 0
scalar OsgEarthNet.uav[58] utilizationCountIdleState 15
scalar OsgEarthNet.uav[58] utilizationFail 0
scalar OsgEarthNet.uav[58] simulationTime 259200
scalar OsgEarthNet.uav[59] utilizationSecMission 16597.759869714
scalar OsgEarthNet.uav[59] utilizationSecMaintenance 9890.6166552787
scalar OsgEarthNet.uav[59] utilizationSecCharge 98550
scalar OsgEarthNet.uav[59] utilizationSecIdle 134161.62247501
scalar OsgEarthNet.uav[59] utilizationEnergyMission 80973.268451691
scalar OsgEarthNet.uav[59] utilizationEnergyMaintenance 47311.089504242
scalar OsgEarthNet.uav[59] utilizationEnergyCharge 127413.42089844
scalar OsgEarthNet.uav[59] utilizationEnergyOverdrawMission 0
scalar OsgEarthNet.uav[59] utilizationEnergyOverdrawMaintenance 0
scalar OsgEarthNet.uav[59] utilizationCountMissions 28
scalar OsgEarthNet.uav[59] utilizationCountManeuversMission 513
scalar OsgEarthNet.uav[59] utilizationCountManeuversMaintenance 56
scalar OsgEarthNet.uav[59] utilizationCountChargeState 28
scalar OsgEarthNet.uav[59] utilizationCountOverdrawnAfterMission 0
scalar OsgEarthNet.uav[59] utilizationCountIdleState 29
scalar OsgEarthNet.uav[59] utilizationFail 0
scalar OsgEarthNet.uav[59] simulationTime 259200
scalar OsgEarthNet.uav[60] utilizationSecMission 18497.243792213
scalar OsgEarthNet.uav[60] utilizationSecMaintenance 11689.128919682
scalar OsgEarthNet.uav[60] utilizationSecCharge 112280
scalar OsgEarthNet.uav[60] utilizationSecIdle 116733.62628811
scalar OsgEarthNet.uav[60] utilizationEnergyMission 90303.561012268
scalar OsgEarthNet.uav[60] utilizationEnergyMaintenance 55146.958786011
scalar OsgEarthNet.uav[60] utilizationEnergyCharge 144446.1328125
scalar OsgEarthNet.uav[60] utilizationEnergyOverdrawMission 0
scalar OsgEarthNet.uav[60] utilizationEnergyOverdrawMaintenance 0
scalar OsgEarthNet.uav[60] utilizationCountMissions 32
scalar OsgEarthNet.uav[60] utilizationCountManeuversMission 617
scalar OsgEarthNet.uav[60] utilizationCountManeuversMaintenance 64
scalar OsgEarthNet.uav[60] utilizationCountChargeState 32
scalar OsgEarthNet.uav[60] utilizationCountOverdrawnAfterMission 0
scalar OsgEarthNet.uav[60] utilizationCountIdleState 33
scalar OsgEarthNet.uav[60] utilizationFail 0
scalar OsgEarthNet.uav[60] simulationTime 259200
scalar OsgEarthNet.uav[61] utilizationSecMission 26688.40941827
scalar OsgEarthNet.uav[61] utilizationSecMaintenance 14037.681847446
scalar OsgEarthNet.uav[61] utilizationSecCharge 146611.90473428
scalar OsgEarthNet.uav[61] utilizationSecIdle 71862.003
scalar OsgEarthNet.uav[61] utilizationEnergyMission 129387.28010559
scalar OsgEarthNet.uav[61] utilizationEnergyMaintenance 65109.933010101
scalar OsgEarthNet.uav[61] utilizationEnergyCharge 192103.05053711
scalar OsgEarthNet.uav[61] utilizationEnergyOverdrawMission 0
scalar OsgEarthNet.uav[61] utilizationEnergyOverdrawMaintenance 0
scalar OsgEarthNet.uav[61] utilizationCountMissions 45
scalar OsgEarthNet.uav[61] utilizationCountManeuversMission 787
scalar OsgEarthNet.uav[61] utilizationCountManeuversMaintenance 90
scalar OsgEarthNet.uav[61] utilizationCountChargeState 45
scalar OsgEarthNet.uav[61] utilizationCountOverdrawnAfterMission 0
scalar OsgEarthNet.uav[61] utilizationCountIdleState 34
scalar OsgEarthNet.uav[61] utilizationFail 0
scalar OsgEarthNet.uav[61] simulationTime 259200
scalar OsgEarthNet.uav[62] utilizationSecMission 41117.328418643
scalar OsgEarthNet.uav[62] utilizationSecMaintenance 16682.628033942
scalar OsgEarthNet.uav[62] utilizationSecCharge 195230
scalar OsgEarthNet.uav[62] utilizationSecIdle 6170.0425474148
scalar OsgEarthNet.uav[62] utilizationEnergyMission 197944.31527131
scalar OsgEarthNet.uav[62] utilizationEnergyMaintenance 76875.665439606
scalar OsgEarthNet.uav[62] utilizationEnergyCharge 273378.56738281
scalar OsgEarthNet.uav[62] utilizationEnergyOverdrawMission 0
scalar OsgEarthNet.uav[62] utilizationEnergyOverdrawMaintenance 0
scalar OsgEarthNet.uav[62] utilizationCountMissions 59
scalar OsgEarthNet.uav[62] utilizationCountManeuversMission 1112
scalar OsgEarthNet.uav[62] utilizationCountManeuversMaintenance 119
scalar OsgEarthNet.uav[62] utilizationCountChargeState 59
scalar OsgEarthNet.uav[62] utilizationCountOverdrawnAfterMission 0
scalar OsgEarthNet.uav[62] utilizationCountIdleState 20
scalar OsgEarthNet.uav[62] utilizationFail 0
scalar OsgEarthNet.uav[62] simulationTime 259200
scalar OsgEarthNet.uav[63] utilizationSecMission 17609.209842993
scalar OsgEarthNet.uav[63] utilizationSecMaintenance 10458.768157007
scalar OsgEarthNet.uav[63] utilizationSecCharge 102530
scalar OsgEarthNet.uav[63] utilizationSecIdle 128602.021
scalar OsgEarthNet.uav[63] utilizationEnergyMission 84060.693209991
scalar OsgEarthNet.uav[63] utilizationEnergyMaintenance 49607.249111175
scalar OsgEarthNet.uav[63] utilizationEnergyCharge 132626.75537109
scalar OsgEarthNet.uav[63] utilizationEnergyOverdrawMission 0
scalar OsgEarthNet.uav[63] utilizationEnergyOverdrawMaintenance 0
scalar OsgEarthNet.uav[63] utilizationCountMissions 29
scalar OsgEarthNet.uav[63] utilizationCountManeuversMission 530
scalar OsgEarthNet.uav[63] utilizationCountManeuversMaintenance 59
scalar OsgEarthNet.uav[63] utilizationCountChargeState 29
scalar OsgEarthNet.uav[63] utilizationCountOverdrawnAfterMission 0
scalar OsgEarthNet.uav[63] utilizationCountIdleState 30
scalar OsgEarthNet.uav[63] utilizationFail 0
scalar OsgEarthNet.uav[63] simulationTime 259200
scalar OsgEarthNet.uav[64] utilizationSecMission 18506.242012886
scalar OsgEarthNet.uav[64] utilizationSecMaintenance 12272.62923644
scalar OsgEarthNet.uav[64] utilizationSecCharge 118009.12075067
scalar OsgEarthNet.uav[64] utilizationSecIdle 110412.007
scalar OsgEarthNet.uav[64] utilizationEnergyMission 91594.438800812
scalar OsgEarthNet.uav[64] utilizationEnergyMaintenance 58009.440383911
scalar OsgEarthNet.uav[64] utilizationEnergyCharge 149284.16479492
scalar OsgEarthNet.uav[64] utilizationEnergyOverdrawMission 0
scalar OsgEarthNet.uav[64] utilizationEnergyOverdrawMaintenance 0
scalar OsgEarthNet.uav[64] utilizationCountMissions 36
scalar OsgEarthNet.uav[64] utilizationCountManeuversMission 628
scalar OsgEarthNet.uav[64] utilizationCountManeuversMaintenance 72
scalar OsgEarthNet.uav[64] utilizationCountChargeState 36
scalar OsgEarthNet.uav[64] utilizationCountOverdrawnAfterMission 0
scalar OsgEarthNet.uav[64] utilizationCountIdleState 36
scalar OsgEarthNet.uav[64] utilizationFail 0
scalar OsgEarthNet.uav[64] simulationTime 259200
scalar OsgEarthNet.uav[65] utilizationSecMission 41261.080263867
scalar OsgEarthNet.uav[65] utilizationSecMaintenance 17919.027115876
scalar OsgEarthNet.uav[65] utilizationSecCharge 196447.88762026
scalar OsgEarthNet.uav[65] utilizationSecIdle 3572.004
[...]
scalar OsgEarthNet.uav[130] utilizationSecIdle 259199.999
scalar OsgEarthNet.uav[130] utilizationEnergyMission 0
scalar OsgEarthNet.uav[130] utilizationEnergyMaintenance 0
scalar OsgEarthNet.uav[130] utilizationEnergyCharge 0
scalar OsgEarthNet.uav[130] utilizationEnergyOverdrawMission 0
scalar OsgEarthNet.uav[130] utilizationEnergyOverdrawMaintenance 0
scalar OsgEarthNet.uav[130] utilizationCountMissions 0
scalar OsgEarthNet.uav[130] utilizationCountManeuversMission 0
scalar OsgEarthNet.uav[130] utilizationCountManeuversMaintenance 0
scalar OsgEarthNet.uav[130] utilizationCountChargeState 0
scalar OsgEarthNet.uav[130] utilizationCountOverdrawnAfterMission 0
scalar OsgEarthNet.uav[130] utilizationCountIdleState 1
scalar OsgEarthNet.uav[130] utilizationFail 0
scalar OsgEarthNet.uav[130] simulationTime 259200
scalar OsgEarthNet.uav[131] utilizationSecMission 0
scalar OsgEarthNet.uav[131] utilizationSecMaintenance 0
scalar OsgEarthNet.uav[131] utilizationSecCharge 0
scalar OsgEarthNet.uav[131] utilizationSecIdle 259199.999
scalar OsgEarthNet.uav[131] utilizationEnergyMission 0
scalar OsgEarthNet.uav[131] utilizationEnergyMaintenance 0
scalar OsgEarthNet.uav[131] utilizationEnergyCharge 0
scalar OsgEarthNet.uav[131] utilizationEnergyOverdrawMission 0
scalar OsgEarthNet.uav[131] utilizationEnergyOverdrawMaintenance 0
scalar OsgEarthNet.uav[131] utilizationCountMissions 0
scalar OsgEarthNet.uav[131] utilizationCountManeuversMission 0
scalar OsgEarthNet.uav[131] utilizationCountManeuversMaintenance 0
scalar OsgEarthNet.uav[131] utilizationCountChargeState 0
scalar OsgEarthNet.uav[131] utilizationCountOverdrawnAfterMission 0
scalar OsgEarthNet.uav[131] utilizationCountIdleState 1
scalar OsgEarthNet.uav[131] utilizationFail 0
scalar OsgEarthNet.uav[131] simulationTime 259200
scalar OsgEarthNet.uav[132] utilizationSecMission 0
scalar OsgEarthNet.uav[132] utilizationSecMaintenance 0
scalar OsgEarthNet.uav[132] utilizationSecCharge 0
scalar OsgEarthNet.uav[132] utilizationSecIdle 259199.999
scalar OsgEarthNet.uav[132] utilizationEnergyMission 0
scalar OsgEarthNet.uav[132] utilizationEnergyMaintenance 0
scalar OsgEarthNet.uav[132] utilizationEnergyCharge 0
scalar OsgEarthNet.uav[132] utilizationEnergyOverdrawMission 0
scalar OsgEarthNet.uav[132] utilizationEnergyOverdrawMaintenance 0
scalar OsgEarthNet.uav[132] utilizationCountMissions 0
scalar OsgEarthNet.uav[132] utilizationCountManeuversMission 0
scalar OsgEarthNet.uav[132] utilizationCountManeuversMaintenance 0
scalar OsgEarthNet.uav[132] utilizationCountChargeState 0
scalar OsgEarthNet.uav[132] utilizationCountOverdrawnAfterMission 0
scalar OsgEarthNet.uav[132] utilizationCountIdleState 1
scalar OsgEarthNet.uav[132] utilizationFail 0
scalar OsgEarthNet.uav[132] simulationTime 259200
scalar OsgEarthNet.uav[133] utilizationSecMission 0
scalar OsgEarthNet.uav[133] utilizationSecMaintenance 0
scalar OsgEarthNet.uav[133] utilizationSecCharge 0
scalar OsgEarthNet.uav[133] utilizationSecIdle 259199.999
scalar OsgEarthNet.uav[133] utilizationEnergyMission 0
scalar OsgEarthNet.uav[133] utilizationEnergyMaintenance 0
scalar OsgEarthNet.uav[133] utilizationEnergyCharge 0
scalar OsgEarthNet.uav[133] utilizationEnergyOverdrawMission 0
scalar OsgEarthNet.uav[133] utilizationEnergyOverdrawMaintenance 0
scalar OsgEarthNet.uav[133] utilizationCountMissions 0
scalar OsgEarthNet.uav[133] utilizationCountManeuversMission 0
scalar OsgEarthNet.uav[133] utilizationCountManeuversMaintenance 0
scalar OsgEarthNet.uav[133] utilizationCountChargeState 0
scalar OsgEarthNet.uav[133] utilizationCountOverdrawnAfterMission 0
scalar OsgEarthNet.uav[133] utilizationCountIdleState 1
scalar OsgEarthNet.uav[133] utilizationFail 0
scalar OsgEarthNet.uav[133] simulationTime 259200
scalar OsgEarthNet.uav[134] utilizationSecMission 0
scalar OsgEarthNet.uav[134] utilizationSecMaintenance 0
scalar OsgEarthNet.uav[134] utilizationSecCharge 0
scalar OsgEarthNet.uav[134] utilizationSecIdle 259199.999
scalar OsgEarthNet.uav[134] utilizationEnergyMission 0
scalar OsgEarthNet.uav[134] utilizationEnergyMaintenance 0
scalar OsgEarthNet.uav[134] utilizationEnergyCharge 0
scalar OsgEarthNet.uav[134] utilizationEnergyOverdrawMission 0
scalar OsgEarthNet.uav[134] utilizationEnergyOverdrawMaintenance 0
scalar OsgEarthNet.uav[134] utilizationCountMissions 0
scalar OsgEarthNet.uav[134] utilizationCountManeuversMission 0
scalar OsgEarthNet.uav[134] utilizationCountManeuversMaintenance 0
scalar OsgEarthNet.uav[134] utilizationCountChargeState 0
scalar OsgEarthNet.uav[134] utilizationCountOverdrawnAfterMission 0
scalar OsgEarthNet.uav[134] utilizationCountIdleState 1
scalar OsgEarthNet.uav[134] utilizationFail 0
scalar OsgEarthNet.uav[134] simulationTime 259200
scalar OsgEarthNet.uav[135] utilizationSecMission 0
scalar OsgEarthNet.uav[135] utilizationSecMaintenance 0
scalar OsgEarthNet.uav[135] utilizationSecCharge 0
scalar OsgEarthNet.uav[135] utilizationSecIdle 259199.999
scalar OsgEarthNet.uav[135] utilizationEnergyMission 0
scalar OsgEarthNet.uav[135] utilizationEnergyMaintenance 0
scalar OsgEarthNet.uav[135] utilizationEnergyCharge 0
scalar OsgEarthNet.uav[135] utilizationEnergyOverdrawMission 0
scalar OsgEarthNet.uav[135] utilizationEnergyOverdrawMaintenance 0
scalar OsgEarthNet.uav[135] utilizationCountMissions 0
scalar OsgEarthNet.uav[135] utilizationCountManeuversMission 0
scalar OsgEarthNet.uav[135] utilizationCountManeuversMaintenance 0
scalar OsgEarthNet.uav[135] utilizationCountChargeState 0
scalar OsgEarthNet.uav[135] utilizationCountOverdrawnAfterMission 0
scalar OsgEarthNet.uav[135] utilizationCountIdleState 1
scalar OsgEarthNet.uav[135] utilizationFail 0
scalar OsgEarthNet.uav[135] simulationTime 259200
scalar OsgEarthNet.uav[136] utilizationSecMission 0
scalar OsgEarthNet.uav[136] utilizationSecMaintenance 0
scalar OsgEarthNet.uav[136] utilizationSecCharge 0
scalar OsgEarthNet.uav[136] utilizationSecIdle 259199.999
scalar OsgEarthNet.uav[136] utilizationEnergyMission 0
scalar OsgEarthNet.uav[136] utilizationEnergyMaintenance 0
scalar OsgEarthNet.uav[136] utilizationEnergyCharge 0
scalar OsgEarthNet.uav[136] utilizationEnergyOverdrawMission 0
scalar OsgEarthNet.uav[136] utilizationEnergyOverdrawMaintenance 0
scalar OsgEarthNet.uav[136] utilizationCountMissions 0
scalar OsgEarthNet.uav[136] utilizationCountManeuversMission 0
scalar OsgEarthNet.uav[136] utilizationCountManeuversMaintenance 0
scalar OsgEarthNet.uav[136] utilizationCountChargeState 0
scalar OsgEarthNet.uav[136] utilizationCountOverdrawnAfterMission 0
scalar OsgEarthNet.uav[136] utilizationCountIdleState 1
scalar OsgEarthNet.uav[136] utilizationFail 0
scalar OsgEarthNet.uav[136] simulationTime 259200
scalar OsgEarthNet.uav[137] utilizationSecMission 0
scalar OsgEarthNet.uav[137] utilizationSecMaintenance 0
scalar OsgEarthNet.uav[137] utilizationSecCharge 0
scalar OsgEarthNet.uav[137] utilizationSecIdle 259199.999
scalar OsgEarthNet.uav[137] utilizationEnergyMission 0
scalar OsgEarthNet.uav[137] utilizationEnergyMaintenance 0
scalar OsgEarthNet.uav[137] utilizationEnergyCharge 0
scalar OsgEarthNet.uav[137] utilizationEnergyOverdrawMission 0
scalar OsgEarthNet.uav[137] utilizationEnergyOverdrawMaintenance 0
scalar OsgEarthNet.uav[137] utilizationCountMissions 0
scalar OsgEarthNet.uav[137] utilizationCountManeuversMission 0
scalar OsgEarthNet.uav[137] utilizationCountManeuversMaintenance 0
scalar OsgEarthNet.uav[137] utilizationCountChargeState 0
scalar OsgEarthNet.uav[137] utilizationCountOverdrawnAfterMission 0
scalar OsgEarthNet.uav[137] utilizationCountIdleState 1
scalar OsgEarthNet.uav[137] utilizationFail 0
scalar OsgEarthNet.uav[137] simulationTime 259200
scalar OsgEarthNet.uav[138] utilizationSecMission 0
scalar OsgEarthNet.uav[138] utilizationSecMaintenance 0
scalar OsgEarthNet.uav[138] utilizationSecCharge 0
scalar OsgEarthNet.uav[138] utilizationSecIdle 259199.999
scalar OsgEarthNet.uav[138] utilizationEnergyMission 0
scalar OsgEarthNet.uav[138] utilizationEnergyMaintenance 0
scalar OsgEarthNet.uav[138] utilizationEnergyCharge 0
scalar OsgEarthNet.uav[138] utilizationEnergyOverdrawMission 0
scalar OsgEarthNet.uav[138] utilizationEnergyOverdrawMaintenance 0
scalar OsgEarthNet.uav[138] utilizationCountMissions 0
scalar OsgEarthNet.uav[138] utilizationCountManeuversMission 0
scalar OsgEarthNet.uav[138] utilizationCountManeuversMaintenance 0
scalar OsgEarthNet.uav[138] utilizationCountChargeState 0
scalar OsgEarthNet.uav[138] utilizationCountOverdrawnAfterMission 0
scalar OsgEarthNet.uav[138] utilizationCountIdleState 1
scalar OsgEarthNet.uav[138] utilizationFail 0
scalar OsgEarthNet.uav[138] simulationTime 259200
scalar OsgEarthNet.uav[139] utilizationSecMission 0
scalar OsgEarthNet.uav[139] utilizationSecMaintenance 0
scalar OsgEarthNet.uav[139] utilizationSecCharge 0
scalar OsgEarthNet.uav[139] utilizationSecIdle 259199.999
scalar OsgEarthNet.uav[139] utilizationEnergyMission 0
scalar OsgEarthNet.uav[139] utilizationEnergyMaintenance 0
scalar OsgEarthNet.uav[139] utilizationEnergyCharge 0
scalar OsgEarthNet.uav[139] utilizationEnergyOverdrawMission 0
scalar OsgEarthNet.uav[139] utilizationEnergyOverdrawMaintenance 0
scalar OsgEarthNet.uav[139] utilizationCountMissions 0
scalar OsgEarthNet.uav[139] utilizationCountManeuversMission 0
scalar OsgEarthNet.uav[139] utilizationCountManeuversMaintenance 0
scalar OsgEarthNet.uav[139] utilizationCountChargeState 0
scalar OsgEarthNet.uav[139] utilizationCountOverdrawnAfterMission 0
scalar OsgEarthNet.uav[139] utilizationCountIdleState 1
scalar OsgEarthNet.uav[139] utilizationFail 0
scalar OsgEarthNet.uav[139] simulationTime 259200
scalar OsgEarthNet.uav[140] utilizationSecMission 0
scalar OsgEarthNet.uav[140] utilizationSecMaintenance 0
scalar OsgEarthNet.uav[140] utilizationSecCharge 0
scalar OsgEarthNet.uav[140] utilizationSecIdle 259199.999
scalar OsgEarthNet.uav[140] utilizationEnergyMission 0
scalar OsgEarthNet.uav[140] utilizationEnergyMaintenance 0
scalar OsgEarthNet.uav[140] utilizationEnergyCharge 0
scalar OsgEarthNet.uav[140] utilizationEnergyOverdrawMission 0
scalar OsgEarthNet.uav[140] utilizationEnergyOverdrawMaintenance 0
scalar OsgEarthNet.uav[140] utilizationCountMissions 0
scalar OsgEarthNet.uav[140] utilizationCountManeuversMission 0
scalar OsgEarthNet.uav[140] utilizationCountManeuversMaintenance 0
scalar OsgEarthNet.uav[140] utilizationCountChargeState 0
scalar OsgEarthNet.uav[140] utilizationCountOverdrawnAfterMission 0
scalar OsgEarthNet.uav[140] utilizationCountIdleState 1
scalar OsgEarthNet.uav[140] utilizationFail 0
scalar OsgEarthNet.uav[140] simulationTime 259200
scalar OsgEarthNet.uav[141] utilizationSecMission 0
scalar OsgEarthNet.uav[141] utilizationSecMaintenance 0
scalar OsgEarthNet.uav[141] utilizationSecCharge 0
scalar OsgEarthNet.uav[141] utilizationSecIdle 259199.999
scalar OsgEarthNet.uav[141] utilizationEnergyMission 0
scalar OsgEarthNet.uav[141] utilizationEnergyMaintenance 0
scalar OsgEarthNet.uav[141] utilizationEnergyCharge 0
scalar OsgEarthNet.uav[141] utilizationEnergyOverdrawMission 0
scalar OsgEarthNet.uav[141] utilizationEnergyOverdrawMaintenance 0
scalar OsgEarthNet.uav[141] utilizationCountMissions 0
scalar OsgEarthNet.uav[141] utilizationCountManeuversMission 0
scalar OsgEarthNet.uav[141] utilizationCountManeuversMaintenance 0
scalar OsgEarthNet.uav[141] utilizationCountChargeState 0
scalar OsgEarthNet.uav[141] utilizationCountOverdrawnAfterMission 0
scalar OsgEarthNet.uav[141] utilizationCountIdleState 1
scalar OsgEarthNet.uav[141] utilizationFail 0
scalar OsgEarthNet.uav[141] simulationTime 259200
scalar OsgEarthNet.uav[142] utilizationSecMission 0
scalar OsgEarthNet.uav[142] utilizationSecMaintenance 0
scalar OsgEarthNet.uav[142] utilizationSecCharge 0
scalar OsgEarthNet.uav[142] utilizationSecIdle 259199.999
scalar OsgEarthNet.uav[142] utilizationEnergyMission 0
scalar OsgEarthNet.uav[142] utilizationEnergyMaintenance 0
scalar OsgEarthNet.uav[142] utilizationEnergyCharge 0
scalar OsgEarthNet.uav[142] utilizationEnergyOverdrawMission 0
scalar OsgEarthNet.uav[142] utilizationEnergyOverdrawMaintenance 0
scalar OsgEarthNet.uav[142] utilizationCountMissions 0
scalar OsgEarthNet.uav[142] utilizationCountManeuversMission 0
scalar OsgEarthNet.uav[142] utilizationCountManeuversMaintenance 0
scalar OsgEarthNet.uav[142] utilizationCountChargeState 0
scalar OsgEarthNet.uav[142] utilizationCountOverdrawnAfterMission 0
scalar OsgEarthNet.uav[142] utilizationCountIdleState 1
scalar OsgEarthNet.uav[142] utilizationFail 0
scalar OsgEarthNet.uav[142] simulationTime 259200
scalar OsgEarthNet.uav[143] utilizationSecMission 0
scalar OsgEarthNet.uav[143] utilizationSecMaintenance 0
scalar OsgEarthNet.uav[143] utilizationSecCharge 0
scalar OsgEarthNet.uav[143] utilizationSecIdle 259199.999
scalar OsgEarthNet.uav[143] utilizationEnergyMission 0
scalar OsgEarthNet.uav[143] utilizationEnergyMaintenance 0
scalar OsgEarthNet.uav[143] utilizationEnergyCharge 0
scalar OsgEarthNet.uav[143] utilizationEnergyOverdrawMission 0
scalar OsgEarthNet.uav[143] utilizationEnergyOverdrawMaintenance 0
scalar OsgEarthNet.uav[143] utilizationCountMissions 0
scalar OsgEarthNet.uav[143] utilizationCountManeuversMission 0
scalar OsgEarthNet.uav[143] utilizationCountManeuversMaintenance 0
scalar OsgEarthNet.uav[143] utilizationCountChargeState 0
scalar OsgEarthNet.uav[143] utilizationCountOverdrawnAfterMission 0
scalar OsgEarthNet.uav[143] utilizationCountIdleState 1
scalar OsgEarthNet.uav[143] utilizationFail 0
scalar OsgEarthNet.uav[143] simulationTime 259200
scalar OsgEarthNet.uav[144] utilizationSecMission 0
scalar OsgEarthNet.uav[144] utilizationSecMaintenance 0
scalar OsgEarthNet.uav[144] utilizationSecCharge 0
scalar OsgEarthNet.uav[144] utilizationSecIdle 259199.999
scalar OsgEarthNet.uav[144] utilizationEnergyMission 0
scalar OsgEarthNet.uav[144] utilizationEnergyMaintenance 0
scalar OsgEarthNet.uav[144] utilizationEnergyCharge 0
scalar OsgEarthNet.uav[144] utilizationEnergyOverdrawMission 0
scalar OsgEarthNet.uav[144] utilizationEnergyOverdrawMaintenance 0
scalar OsgEarthNet.uav[144] utilizationCountMissions 0
scalar OsgEarthNet.uav[144] utilizationCountManeuversMission 0
scalar OsgEarthNet.uav[144] utilizationCountManeuversMaintenance 0
scalar OsgEarthNet.uav[144] utilizationCountChargeState 0
scalar OsgEarthNet.uav[144] utilizationCountOverdrawnAfterMission 0
scalar OsgEarthNet.uav[144] utilizationCountIdleState 1
scalar OsgEarthNet.uav[144] utilizationFail 0
scalar OsgEarthNet.uav[144] simulationTime 259200
scalar OsgEarthNet.uav[145] utilizationSecMission 0
scalar OsgEarthNet.uav[145] utilizationSecMaintenance 0
scalar OsgEarthNet.uav[145] utilizationSecCharge 0
scalar OsgEarthNet.uav[145] utilizationSecIdle 259199.999
scalar OsgEarthNet.uav[145] utilizationEnergyMission 0
scalar OsgEarthNet.uav[145] utilizationEnergyMaintenance 0
scalar OsgEarthNet.uav[145] utilizationEnergyCharge 0
scalar OsgEarthNet.uav[145] utilizationEnergyOverdrawMission 0
scalar OsgEarthNet.uav[145] utilizationEnergyOverdrawMaintenance 0
scalar OsgEarthNet.uav[145] utilizationCountMissions 0
scalar OsgEarthNet.uav[145] utilizationCountManeuversMission 0
scalar OsgEarthNet.uav[145] utilizationCountManeuversMaintenance 0
scalar OsgEarthNet.uav[145] utilizationCountChargeState 0
scalar OsgEarthNet.uav[145] utilizationCountOverdrawnAfterMission 0
scalar OsgEarthNet.uav[145] utilizationCountIdleState 1
scalar OsgEarthNet.uav[145] utilizationFail 0
scalar OsgEarthNet.uav[145] simulationTime 259200
scalar OsgEarthNet.uav[146] utilizationSecMission 0
scalar OsgEarthNet.uav[146] utilizationSecMaintenance 0
scalar OsgEarthNet.uav[146] utilizationSecCharge 0
scalar OsgEarthNet.uav[146] utilizationSecIdle 259199.999
scalar OsgEarthNet.uav[146] utilizationEnergyMission 0
scalar OsgEarthNet.uav[146] utilizationEnergyMaintenance 0
scalar OsgEarthNet.uav[146] utilizationEnergyCharge 0
scalar OsgEarthNet.uav[146] utilizationEnergyOverdrawMission 0
scalar OsgEarthNet.uav[146] utilizationEnergyOverdrawMaintenance 0
scalar OsgEarthNet.uav[146] utilizationCountMissions 0
scalar OsgEarthNet.uav[146] utilizationCountManeuversMission 0
scalar OsgEarthNet.uav[146] utilizationCountManeuversMaintenance 0
scalar OsgEarthNet.uav[146] utilizationCountChargeState 0
scalar OsgEarthNet.uav[146] utilizationCountOverdrawnAfterMission 0
scalar OsgEarthNet.uav[146] utilizationCountIdleState 1
scalar OsgEarthNet.uav[146] utilizationFail 0
scalar OsgEarthNet.uav[146] simulationTime 259200
scalar OsgEarthNet.uav[147] utilizationSecMission 0
scalar OsgEarthNet.uav[147] utilizationSecMaintenance 0
scalar OsgEarthNet.uav[147] utilizationSecCharge 0
scalar OsgEarthNet.uav[147] utilizationSecIdle 259199.999
scalar OsgEarthNet.uav[147] utilizationEnergyMission 0
scalar OsgEarthNet.uav[147] utilizationEnergyMaintenance 0
scalar OsgEarthNet.uav[147] utilizationEnergyCharge 0
scalar OsgEarthNet.uav[147] utilizationEnergyOverdrawMission 0
scalar OsgEarthNet.uav[147] utilizationEnergyOverdrawMaintenance 0
scalar OsgEarthNet.uav[147] utilizationCountMissions 0
scalar OsgEarthNet.uav[147] utilizationCountManeuversMission 0
scalar OsgEarthNet.uav[147] utilizationCountManeuversMaintenance 0
scalar OsgEarthNet.uav[147] utilizationCountChargeState 0
scalar OsgEarthNet.uav[147] utilizationCountOverdrawnAfterMission 0
scalar OsgEarthNet.uav[147] utilizationCountIdleState 1
scalar OsgEarthNet.uav[147] utilizationFail 0
scalar OsgEarthNet.uav[147] simulationTime 259200
scalar OsgEarthNet.uav[148] utilizationSecMission 0
scalar OsgEarthNet.uav[148] utilizationSecMaintenance 0
scalar OsgEarthNet.uav[148] utilizationSecCharge 0
scalar OsgEarthNet.uav[148] utilizationSecIdle 259199.999
scalar OsgEarthNet.uav[148] utilizationEnergyMission 0
scalar OsgEarthNet.uav[148] utilizationEnergyMaintenance 0
scalar OsgEarthNet.uav[148] utilizationEnergyCharge 0
scalar OsgEarthNet.uav[148] utilizationEnergyOverdrawMission 0
scalar OsgEarthNet.uav[148] utilizationEnergyOverdrawMaintenance 0
scalar OsgEarthNet.uav[148] utilizationCountMissions 0
scalar OsgEarthNet.uav[148] utilizationCountManeuversMission 0
scalar OsgEarthNet.uav[148] utilizationCountManeuversMaintenance 0
scalar OsgEarthNet.uav[148] utilizationCountChargeState 0
scalar OsgEarthNet.uav[148] utilizationCountOverdrawnAfterMission 0
scalar OsgEarthNet.uav[148] utilizationCountIdleState 1
scalar OsgEarthNet.uav[148] utilizationFail 0
scalar OsgEarthNet.uav[148] simulationTime 259200
scalar OsgEarthNet.uav[149] utilizationSecMission 0
scalar OsgEarthNet.uav[149] utilizationSecMaintenance 0
scalar OsgEarthNet.uav[149] utilizationSecCharge 0
scalar OsgEarthNet.uav[149] utilizationSecIdle 259199.999
scalar OsgEarthNet.uav[149] utilizationEnergyMission 0
scalar OsgEarthNet.uav[149] utilizationEnergyMaintenance 0
scalar OsgEarthNet.uav[149] utilizationEnergyCharge 0
scalar OsgEarthNet.uav[149] utilizationEnergyOverdrawMission 0
scalar OsgEarthNet.uav[149] utilizationEnergyOverdrawMaintenance 0
scalar OsgEarthNet.uav[149] utilizationCountMissions 0
scalar OsgEarthNet.uav[149] utilizationCountManeuversMission 0
scalar OsgEarthNet.uav[149] utilizationCountManeuversMaintenance 0
scalar OsgEarthNet.uav[149] utilizationCountChargeState 0
scalar OsgEarthNet.uav[149] utilizationCountOverdrawnAfterMission 0
scalar OsgEarthNet.uav[149] utilizationCountIdleState 1
scalar OsgEarthNet.uav[149] utilizationFail 0
scalar OsgEarthNet.uav[149] simulationTime 259200
scalar OsgEarthNet.cs[0] usedPower 4011470.6104714
scalar OsgEarthNet.cs[0] chargedPower 4011470.6104714
scalar OsgEarthNet.cs[0] chargedMobileNodes 877
scalar OsgEarthNet.cs[0] reservations 890
scalar OsgEarthNet.cs[1] usedPower 4137362.24089
scalar OsgEarthNet.cs[1] chargedPower 4137362.24089
scalar OsgEarthNet.cs[1] chargedMobileNodes 1029
scalar OsgEarthNet.cs[1] reservations 1043
scalar OsgEarthNet.cs[2] usedPower 8709777.8845094
scalar OsgEarthNet.cs[2] chargedPower 8709777.8845094
scalar OsgEarthNet.cs[2] chargedMobileNodes 444
scalar OsgEarthNet.cs[2] reservations 1903

