version 2
run Szenario_Hotel_Gabelbach-456-20180719-19:14:50-6456
attr configname Szenario_Hotel_Gabelbach
attr datetime 20180719-19:14:50
attr experiment Szenario_Hotel_Gabelbach
attr inifile omnetpp.ini
attr iterationvars "$replM=2, $biWeight=0.35, $replSearchM=1, $numUAVs=92"
attr iterationvarsf replM=2,biWeight=0.35,replSearchM=1,numUAVs=92-
attr measurement "$replM=2, $biWeight=0.35, $replSearchM=1, $numUAVs=92"
attr network OsgEarthNet
attr processid 6456
attr repetition 0
attr replication #0
attr resultdir results
attr runnumber 456
attr seedset 456
itervar biWeight 0.35
itervar numUAVs 92
itervar replM 2
itervar replSearchM 1
param *.osgEarthScene.scene "\"Szenario_Hotel_Gabelbach.earth\""
param *.playgroundLatitude 50.6830269
param *.playgroundLongitude 10.8538055
param *.playgroundWidth 3500m
param *.playgroundHeight 3500m
param *.cs[0].posX 3537m
param *.cs[0].posY 965m
param *.cs[0].posZ 538m
param *.cs[1].posX 312m
param *.cs[1].posY 1262m
param *.cs[1].posZ 539m
param *.cs[2].posX 2185m
param *.cs[2].posY 3026m
param *.cs[2].posZ 777m
param *.cs[3].posX 10m
param *.cs[3].posY 2200m
param *.cs[3].posZ 560m
param *.cs[4].posX 750m
param *.cs[4].posY 200m
param *.cs[4].posZ 540m
param *.cs[5].posX 2450m
param *.cs[5].posY 180m
param *.cs[5].posZ 524m
param *.cs[6].posX 3140m
param *.cs[6].posY 1790m
param *.cs[6].posZ 606m
param *.numCSs 3
param *.uav[*].replacementMethod 2
param *.uav[*].weightedSumWeight 0.35
param *.missionControl.replacementSearchMethod 1
param *.numUAVs 92
param *.*.timeStep 10s
param *.uav[*].commandPreviewCommandCount 20
param *.missionControl.missionFiles "\"missions\\\\Szenario_WB_Hotel_Gabelbach_Mission_Hotel.waypoints,missions\\\\Szenario_WB_Hotel_Gabelbach_Mission_Kickelhahn.waypoints,missions\\\\Szenario_WB_Hotel_Gabelbach_Mission_Ilmenau_Sportplatz.waypoints,missions\\\\Szenario_WB_Hotel_Gabelbach_Mission_Manebach_Mitte.waypoints,missions\\\\Szenario_WB_Hotel_Gabelbach_Mission_Manebach_Sued.waypoints,missions\\\\Szenario_WB_Hotel_Gabelbach_Hover_HoheSchlaufe.waypoints,missions\\\\Szenario_WB_Hotel_Gabelbach_Hover_Kickelhahn.waypoints,missions\\\\Szenario_WB_Hotel_Gabelbach_Hover_Gabelbachskopf.waypoints,missions\\\\Szenario_WB_Hotel_Gabelbach_Hover_Dachskopf.waypoints\""
param *.uav[0].startX 3537m
param *.uav[0].startY 965m
param *.uav[0].startZ 539m
param *.uav[1].startX 312m
param *.uav[1].startY 1262m
param *.uav[1].startZ 540m
param *.uav[2].startX 2185m
param *.uav[2].startY 3026m
param *.uav[2].startZ 778m
param *.uav[3].startX 3537m
param *.uav[3].startY 965m
param *.uav[3].startZ 539m
param *.uav[4].startX 312m
param *.uav[4].startY 1262m
param *.uav[4].startZ 540m
param *.uav[5].startX 2185m
param *.uav[5].startY 3026m
param *.uav[5].startZ 778m
param *.uav[6].startX 3537m
param *.uav[6].startY 965m
param *.uav[6].startZ 539m
param *.uav[7].startX 312m
param *.uav[7].startY 1262m
param *.uav[7].startZ 540m
param *.uav[8].startX 2185m
param *.uav[8].startY 3026m
param *.uav[8].startZ 778m
param *.uav[9].startX 3537m
param *.uav[9].startY 965m
param *.uav[9].startZ 539m
param *.uav[10].startX 3537m
param *.uav[10].startY 965m
param *.uav[10].startZ 539m
param *.uav[11].startX 312m
param *.uav[11].startY 1262m
param *.uav[11].startZ 540m
param *.uav[12].startX 2185m
param *.uav[12].startY 3026m
param *.uav[12].startZ 778m
param *.uav[13].startX 3537m
param *.uav[13].startY 965m
param *.uav[13].startZ 539m
param *.uav[14].startX 312m
param *.uav[14].startY 1262m
param *.uav[14].startZ 540m
param *.uav[15].startX 2185m
param *.uav[15].startY 3026m
param *.uav[15].startZ 778m
param *.uav[16].startX 3537m
param *.uav[16].startY 965m
param *.uav[16].startZ 539m
param *.uav[17].startX 312m
param *.uav[17].startY 1262m
param *.uav[17].startZ 540m
param *.uav[18].startX 2185m
param *.uav[18].startY 3026m
param *.uav[18].startZ 778m
param *.uav[19].startX 3537m
param *.uav[19].startY 965m
param *.uav[19].startZ 539m
param *.uav[20].startX 3537m
param *.uav[20].startY 965m
param *.uav[20].startZ 539m
param *.uav[21].startX 312m
param *.uav[21].startY 1262m
param *.uav[21].startZ 540m
param *.uav[22].startX 2185m
param *.uav[22].startY 3026m
param *.uav[22].startZ 778m
param *.uav[23].startX 3537m
param *.uav[23].startY 965m
param *.uav[23].startZ 539m
param *.uav[24].startX 312m
param *.uav[24].startY 1262m
param *.uav[24].startZ 540m
param *.uav[25].startX 2185m
param *.uav[25].startY 3026m
param *.uav[25].startZ 778m
param *.uav[26].startX 3537m
param *.uav[26].startY 965m
param *.uav[26].startZ 539m
param *.uav[27].startX 312m
param *.uav[27].startY 1262m
param *.uav[27].startZ 540m
param *.uav[28].startX 2185m
param *.uav[28].startY 3026m
param *.uav[28].startZ 778m
param *.uav[29].startX 3537m
param *.uav[29].startY 965m
param *.uav[29].startZ 539m
param *.uav[30].startX 3537m
param *.uav[30].startY 965m
param *.uav[30].startZ 539m
param *.uav[31].startX 312m
param *.uav[31].startY 1262m
param *.uav[31].startZ 540m
param *.uav[32].startX 2185m
param *.uav[32].startY 3026m
param *.uav[32].startZ 778m
param *.uav[33].startX 3537m
param *.uav[33].startY 965m
param *.uav[33].startZ 539m
param *.uav[34].startX 312m
param *.uav[34].startY 1262m
param *.uav[34].startZ 540m
param *.uav[35].startX 2185m
param *.uav[35].startY 3026m
param *.uav[35].startZ 778m
param *.uav[36].startX 3537m
param *.uav[36].startY 965m
param *.uav[36].startZ 539m
param *.uav[37].startX 312m
param *.uav[37].startY 1262m
param *.uav[37].startZ 540m
param *.uav[38].startX 2185m
param *.uav[38].startY 3026m
param *.uav[38].startZ 778m
param *.uav[39].startX 3537m
param *.uav[39].startY 965m
param *.uav[39].startZ 539m
param *.uav[40].startX 3537m
param *.uav[40].startY 965m
param *.uav[40].startZ 539m
param *.uav[41].startX 312m
param *.uav[41].startY 1262m
param *.uav[41].startZ 540m
param *.uav[42].startX 2185m
param *.uav[42].startY 3026m
param *.uav[42].startZ 778m
param *.uav[43].startX 3537m
param *.uav[43].startY 965m
param *.uav[43].startZ 539m
param *.uav[44].startX 312m
param *.uav[44].startY 1262m
param *.uav[44].startZ 540m
param *.uav[45].startX 2185m
param *.uav[45].startY 3026m
param *.uav[45].startZ 778m
param *.uav[46].startX 3537m
param *.uav[46].startY 965m
param *.uav[46].startZ 539m
param *.uav[47].startX 312m
param *.uav[47].startY 1262m
param *.uav[47].startZ 540m
param *.uav[48].startX 2185m
param *.uav[48].startY 3026m
param *.uav[48].startZ 778m
param *.uav[49].startX 3537m
param *.uav[49].startY 965m
param *.uav[49].startZ 539m
param *.uav[50].startX 3537m
param *.uav[50].startY 965m
param *.uav[50].startZ 539m
param *.uav[51].startX 312m
param *.uav[51].startY 1262m
param *.uav[51].startZ 540m
param *.uav[52].startX 2185m
param *.uav[52].startY 3026m
param *.uav[52].startZ 778m
param *.uav[53].startX 3537m
param *.uav[53].startY 965m
param *.uav[53].startZ 539m
param *.uav[54].startX 312m
param *.uav[54].startY 1262m
param *.uav[54].startZ 540m
param *.uav[55].startX 2185m
param *.uav[55].startY 3026m
param *.uav[55].startZ 778m
param *.uav[56].startX 3537m
param *.uav[56].startY 965m
param *.uav[56].startZ 539m
param *.uav[57].startX 312m
param *.uav[57].startY 1262m
param *.uav[57].startZ 540m
param *.uav[58].startX 2185m
param *.uav[58].startY 3026m
param *.uav[58].startZ 778m
param *.uav[59].startX 3537m
param *.uav[59].startY 965m
param *.uav[59].startZ 539m
param *.uav[60].startX 3537m
param *.uav[60].startY 965m
param *.uav[60].startZ 539m
param *.uav[61].startX 312m
param *.uav[61].startY 1262m
param *.uav[61].startZ 540m
param *.uav[62].startX 2185m
param *.uav[62].startY 3026m
param *.uav[62].startZ 778m
param *.uav[63].startX 3537m
param *.uav[63].startY 965m
param *.uav[63].startZ 539m
param *.uav[64].startX 312m
param *.uav[64].startY 1262m
param *.uav[64].startZ 540m
param *.uav[65].startX 2185m
param *.uav[65].startY 3026m
param *.uav[65].startZ 778m
param *.uav[66].startX 3537m
param *.uav[66].startY 965m
param *.uav[66].startZ 539m
param *.uav[67].startX 312m
param *.uav[67].startY 1262m
param *.uav[67].startZ 540m
param *.uav[68].startX 2185m
param *.uav[68].startY 3026m
param *.uav[68].startZ 778m
param *.uav[69].startX 3537m
param *.uav[69].startY 965m
param *.uav[69].startZ 539m
param *.uav[70].startX 3537m
param *.uav[70].startY 965m
param *.uav[70].startZ 539m
param *.uav[71].startX 312m
param *.uav[71].startY 1262m
param *.uav[71].startZ 540m
param *.uav[72].startX 2185m
param *.uav[72].startY 3026m
param *.uav[72].startZ 778m
param *.uav[73].startX 3537m
param *.uav[73].startY 965m
param *.uav[73].startZ 539m
param *.uav[74].startX 312m
param *.uav[74].startY 1262m
param *.uav[74].startZ 540m
param *.uav[75].startX 2185m
param *.uav[75].startY 3026m
param *.uav[75].startZ 778m
param *.uav[76].startX 3537m
param *.uav[76].startY 965m
param *.uav[76].startZ 539m
param *.uav[77].startX 312m
param *.uav[77].startY 1262m
param *.uav[77].startZ 540m
param *.uav[78].startX 2185m
param *.uav[78].startY 3026m
param *.uav[78].startZ 778m
param *.uav[79].startX 3537m
param *.uav[79].startY 965m
param *.uav[79].startZ 539m
param *.uav[80].startX 3537m
param *.uav[80].startY 965m
param *.uav[80].startZ 539m
param *.uav[81].startX 312m
param *.uav[81].startY 1262m
param *.uav[81].startZ 540m
param *.uav[82].startX 2185m
param *.uav[82].startY 3026m
param *.uav[82].startZ 778m
param *.uav[83].startX 3537m
param *.uav[83].startY 965m
param *.uav[83].startZ 539m
param *.uav[84].startX 312m
param *.uav[84].startY 1262m
param *.uav[84].startZ 540m
param *.uav[85].startX 2185m
param *.uav[85].startY 3026m
param *.uav[85].startZ 778m
param *.uav[86].startX 3537m
param *.uav[86].startY 965m
param *.uav[86].startZ 539m
param *.uav[87].startX 312m
param *.uav[87].startY 1262m
param *.uav[87].startZ 540m
param *.uav[88].startX 2185m
param *.uav[88].startY 3026m
param *.uav[88].startZ 778m
param *.uav[89].startX 3537m
param *.uav[89].startY 965m
param *.uav[89].startZ 539m
param *.uav[90].startX 3537m
param *.uav[90].startY 965m
param *.uav[90].startZ 539m
param *.uav[91].startX 312m
param *.uav[91].startY 1262m
param *.uav[91].startZ 540m
param *.uav[92].startX 2185m
param *.uav[92].startY 3026m
param *.uav[92].startZ 778m
param *.uav[93].startX 3537m
param *.uav[93].startY 965m
param *.uav[93].startZ 539m
param *.uav[94].startX 312m
param *.uav[94].startY 1262m
param *.uav[94].startZ 540m
param *.uav[95].startX 2185m
param *.uav[95].startY 3026m
param *.uav[95].startZ 778m
param *.uav[96].startX 3537m
param *.uav[96].startY 965m
param *.uav[96].startZ 539m
param *.uav[97].startX 312m
param *.uav[97].startY 1262m
param *.uav[97].startZ 540m
param *.uav[98].startX 2185m
param *.uav[98].startY 3026m
param *.uav[98].startZ 778m
param *.uav[99].startX 3537m
param *.uav[99].startY 965m
param *.uav[99].startZ 539m
param *.osgEarthScene.scene "\"boston.earth\""
param *.playgroundLatitude 42.3558
param *.playgroundLongitude -71.0677
param *.playgroundWidth 400m
param *.playgroundHeight 200m
param *.channelController.connectionColor "\"#0000FF40\""
param *.channelController.showConnections false
param *.uav[*].modelURL "\"quadrocopter.small.obj.15.scale.0,0,90.rot\""
param *.uav[*].labelColor "\"#FF7C00CC\""
param *.uav[*].label2Color "\"#FF7C00EE\""
param *.uav[*].batteryCapacity 5200mAh
param *.uav[*].batteryRemaining uav[index].batteryCapacity
param *.uav[*].predictionQuantile 0.95
param *.uav[*].replacementMethod 2
param *.uav[*].weightedSumWeight 0.5
param *.cs[*].modelURL "\"chargingstation_v1.osgt.2.scale.0,0,0.rot.0,0,-15e-1.trans\""
param *.cs[*].spotsWaiting 999
param *.cs[*].spotsCharging 999
param *.cs[*].chargeEffectivenessPercentage 100
param *.cs[*].nonLinearPhaseStartPercentage 85
param *.cs[*].chargeCurrent 6.0A
param *.cs[*].prioritizeFastCharge true
param *.missionControl.replacementSearchMethod 0
param *.*.timeStep 9s

scalar OsgEarthNet.uav[0] utilizationSecMission 760.62515258028
scalar OsgEarthNet.uav[0] utilizationSecMaintenance 202.91610409653
scalar OsgEarthNet.uav[0] utilizationSecCharge 3510
scalar OsgEarthNet.uav[0] utilizationSecIdle 254726.45774332
scalar OsgEarthNet.uav[0] utilizationEnergyMission 3414.9806137085
scalar OsgEarthNet.uav[0] utilizationEnergyMaintenance 989.42922210693
scalar OsgEarthNet.uav[0] utilizationEnergyCharge 4498.8393554688
scalar OsgEarthNet.uav[0] utilizationEnergyOverdrawMission 0
scalar OsgEarthNet.uav[0] utilizationEnergyOverdrawMaintenance 0
scalar OsgEarthNet.uav[0] utilizationCountMissions 1
scalar OsgEarthNet.uav[0] utilizationCountManeuversMission 12
scalar OsgEarthNet.uav[0] utilizationCountManeuversMaintenance 2
scalar OsgEarthNet.uav[0] utilizationCountChargeState 1
scalar OsgEarthNet.uav[0] utilizationCountOverdrawnAfterMission 0
scalar OsgEarthNet.uav[0] utilizationCountIdleState 2
scalar OsgEarthNet.uav[0] utilizationFail 0
scalar OsgEarthNet.uav[0] simulationTime 259200
scalar OsgEarthNet.uav[1] utilizationSecMission 480
scalar OsgEarthNet.uav[1] utilizationSecMaintenance 395.21104267299
scalar OsgEarthNet.uav[1] utilizationSecCharge 3520
scalar OsgEarthNet.uav[1] utilizationSecIdle 254804.78795733
scalar OsgEarthNet.uav[1] utilizationEnergyMission 2472.4396476746
scalar OsgEarthNet.uav[1] utilizationEnergyMaintenance 1887.9108390808
scalar OsgEarthNet.uav[1] utilizationEnergyCharge 4583.0541992188
scalar OsgEarthNet.uav[1] utilizationEnergyOverdrawMission 0
scalar OsgEarthNet.uav[1] utilizationEnergyOverdrawMaintenance 0
scalar OsgEarthNet.uav[1] utilizationCountMissions 1
scalar OsgEarthNet.uav[1] utilizationCountManeuversMission 24
scalar OsgEarthNet.uav[1] utilizationCountManeuversMaintenance 2
scalar OsgEarthNet.uav[1] utilizationCountChargeState 1
scalar OsgEarthNet.uav[1] utilizationCountOverdrawnAfterMission 0
scalar OsgEarthNet.uav[1] utilizationCountIdleState 2
scalar OsgEarthNet.uav[1] utilizationFail 0
scalar OsgEarthNet.uav[1] simulationTime 259200
scalar OsgEarthNet.uav[2] utilizationSecMission 43196.794563118
scalar OsgEarthNet.uav[2] utilizationSecMaintenance 17861.008066156
scalar OsgEarthNet.uav[2] utilizationSecCharge 196450.19337073
scalar OsgEarthNet.uav[2] utilizationSecIdle 1692.003
scalar OsgEarthNet.uav[2] utilizationEnergyMission 207471.71125031
scalar OsgEarthNet.uav[2] utilizationEnergyMaintenance 82419.281280518
scalar OsgEarthNet.uav[2] utilizationEnergyCharge 289661.47851562
scalar OsgEarthNet.uav[2] utilizationEnergyOverdrawMission 0
scalar OsgEarthNet.uav[2] utilizationEnergyOverdrawMaintenance 0
scalar OsgEarthNet.uav[2] utilizationCountMissions 63
scalar OsgEarthNet.uav[2] utilizationCountManeuversMission 1246
scalar OsgEarthNet.uav[2] utilizationCountManeuversMaintenance 126
scalar OsgEarthNet.uav[2] utilizationCountChargeState 63
scalar OsgEarthNet.uav[2] utilizationCountOverdrawnAfterMission 0
scalar OsgEarthNet.uav[2] utilizationCountIdleState 2
scalar OsgEarthNet.uav[2] utilizationFail 0
scalar OsgEarthNet.uav[2] simulationTime 259200
scalar OsgEarthNet.uav[3] utilizationSecMission 760.62515258028
scalar OsgEarthNet.uav[3] utilizationSecMaintenance 202.91610409653
scalar OsgEarthNet.uav[3] utilizationSecCharge 3430
scalar OsgEarthNet.uav[3] utilizationSecIdle 254806.45774332
scalar OsgEarthNet.uav[3] utilizationEnergyMission 3503.9193191528
scalar OsgEarthNet.uav[3] utilizationEnergyMaintenance 980.60634613037
scalar OsgEarthNet.uav[3] utilizationEnergyCharge 4405.1044921875
scalar OsgEarthNet.uav[3] utilizationEnergyOverdrawMission 0
scalar OsgEarthNet.uav[3] utilizationEnergyOverdrawMaintenance 0
scalar OsgEarthNet.uav[3] utilizationCountMissions 1
scalar OsgEarthNet.uav[3] utilizationCountManeuversMission 12
scalar OsgEarthNet.uav[3] utilizationCountManeuversMaintenance 2
scalar OsgEarthNet.uav[3] utilizationCountChargeState 1
scalar OsgEarthNet.uav[3] utilizationCountOverdrawnAfterMission 0
scalar OsgEarthNet.uav[3] utilizationCountIdleState 2
scalar OsgEarthNet.uav[3] utilizationFail 0
scalar OsgEarthNet.uav[3] simulationTime 259200
scalar OsgEarthNet.uav[4] utilizationSecMission 13317.398518375
scalar OsgEarthNet.uav[4] utilizationSecMaintenance 9043.6353252543
scalar OsgEarthNet.uav[4] utilizationSecCharge 85471.64907454
scalar OsgEarthNet.uav[4] utilizationSecIdle 151367.31608183
scalar OsgEarthNet.uav[4] utilizationEnergyMission 64908.366020203
scalar OsgEarthNet.uav[4] utilizationEnergyMaintenance 42907.515426636
scalar OsgEarthNet.uav[4] utilizationEnergyCharge 107204.96313477
scalar OsgEarthNet.uav[4] utilizationEnergyOverdrawMission 0
scalar OsgEarthNet.uav[4] utilizationEnergyOverdrawMaintenance 0
scalar OsgEarthNet.uav[4] utilizationCountMissions 27
scalar OsgEarthNet.uav[4] utilizationCountManeuversMission 435
scalar OsgEarthNet.uav[4] utilizationCountManeuversMaintenance 54
scalar OsgEarthNet.uav[4] utilizationCountChargeState 27
scalar OsgEarthNet.uav[4] utilizationCountOverdrawnAfterMission 0
scalar OsgEarthNet.uav[4] utilizationCountIdleState 27
scalar OsgEarthNet.uav[4] utilizationFail 0
scalar OsgEarthNet.uav[4] simulationTime 259200
scalar OsgEarthNet.uav[5] utilizationSecMission 43255.479103778
scalar OsgEarthNet.uav[5] utilizationSecMaintenance 17412.846844635
scalar OsgEarthNet.uav[5] utilizationSecCharge 196730
scalar OsgEarthNet.uav[5] utilizationSecIdle 1801.6730515863
scalar OsgEarthNet.uav[5] utilizationEnergyMission 209007.53779805
scalar OsgEarthNet.uav[5] utilizationEnergyMaintenance 80519.960830689
scalar OsgEarthNet.uav[5] utilizationEnergyCharge 289330.32324219
scalar OsgEarthNet.uav[5] utilizationEnergyOverdrawMission 0
scalar OsgEarthNet.uav[5] utilizationEnergyOverdrawMaintenance 0
scalar OsgEarthNet.uav[5] utilizationCountMissions 63
scalar OsgEarthNet.uav[5] utilizationCountManeuversMission 1226
scalar OsgEarthNet.uav[5] utilizationCountManeuversMaintenance 127
scalar OsgEarthNet.uav[5] utilizationCountChargeState 63
scalar OsgEarthNet.uav[5] utilizationCountOverdrawnAfterMission 0
scalar OsgEarthNet.uav[5] utilizationCountIdleState 3
scalar OsgEarthNet.uav[5] utilizationFail 0
scalar OsgEarthNet.uav[5] simulationTime 259200
scalar OsgEarthNet.uav[6] utilizationSecMission 15805.626373223
scalar OsgEarthNet.uav[6] utilizationSecMaintenance 10676.413884634
scalar OsgEarthNet.uav[6] utilizationSecCharge 98420
scalar OsgEarthNet.uav[6] utilizationSecIdle 134297.95874214
scalar OsgEarthNet.uav[6] utilizationEnergyMission 76658.579200745
scalar OsgEarthNet.uav[6] utilizationEnergyMaintenance 50620.343154907
scalar OsgEarthNet.uav[6] utilizationEnergyCharge 126524.75048828
scalar OsgEarthNet.uav[6] utilizationEnergyOverdrawMission 0
scalar OsgEarthNet.uav[6] utilizationEnergyOverdrawMaintenance 0
scalar OsgEarthNet.uav[6] utilizationCountMissions 28
scalar OsgEarthNet.uav[6] utilizationCountManeuversMission 556
scalar OsgEarthNet.uav[6] utilizationCountManeuversMaintenance 56
scalar OsgEarthNet.uav[6] utilizationCountChargeState 28
scalar OsgEarthNet.uav[6] utilizationCountOverdrawnAfterMission 0
scalar OsgEarthNet.uav[6] utilizationCountIdleState 29
scalar OsgEarthNet.uav[6] utilizationFail 0
scalar OsgEarthNet.uav[6] simulationTime 259200
scalar OsgEarthNet.uav[7] utilizationSecMission 5379.5047294909
scalar OsgEarthNet.uav[7] utilizationSecMaintenance 4090.5840511402
scalar OsgEarthNet.uav[7] utilizationSecCharge 37200
scalar OsgEarthNet.uav[7] utilizationSecIdle 212529.91021937
scalar OsgEarthNet.uav[7] utilizationEnergyMission 26300.784679413
scalar OsgEarthNet.uav[7] utilizationEnergyMaintenance 19196.119594574
scalar OsgEarthNet.uav[7] utilizationEnergyCharge 45578.283203125
scalar OsgEarthNet.uav[7] utilizationEnergyOverdrawMission 0
scalar OsgEarthNet.uav[7] utilizationEnergyOverdrawMaintenance 0
scalar OsgEarthNet.uav[7] utilizationCountMissions 12
scalar OsgEarthNet.uav[7] utilizationCountManeuversMission 194
scalar OsgEarthNet.uav[7] utilizationCountManeuversMaintenance 24
scalar OsgEarthNet.uav[7] utilizationCountChargeState 12
scalar OsgEarthNet.uav[7] utilizationCountOverdrawnAfterMission 0
scalar OsgEarthNet.uav[7] utilizationCountIdleState 13
scalar OsgEarthNet.uav[7] utilizationFail 0
scalar OsgEarthNet.uav[7] simulationTime 259200
scalar OsgEarthNet.uav[8] utilizationSecMission 42517.480567824
scalar OsgEarthNet.uav[8] utilizationSecMaintenance 18464.348320096
scalar OsgEarthNet.uav[8] utilizationSecCharge 195596.16511208
scalar OsgEarthNet.uav[8] utilizationSecIdle 2622.005
scalar OsgEarthNet.uav[8] utilizationEnergyMission 205611.95677567
scalar OsgEarthNet.uav[8] utilizationEnergyMaintenance 85308.266204834
scalar OsgEarthNet.uav[8] utilizationEnergyCharge 287979.17443848
scalar OsgEarthNet.uav[8] utilizationEnergyOverdrawMission 0
scalar OsgEarthNet.uav[8] utilizationEnergyOverdrawMaintenance 0
scalar OsgEarthNet.uav[8] utilizationCountMissions 64
scalar OsgEarthNet.uav[8] utilizationCountManeuversMission 1337
scalar OsgEarthNet.uav[8] utilizationCountManeuversMaintenance 128
scalar OsgEarthNet.uav[8] utilizationCountChargeState 64
scalar OsgEarthNet.uav[8] utilizationCountOverdrawnAfterMission 0
scalar OsgEarthNet.uav[8] utilizationCountIdleState 3
scalar OsgEarthNet.uav[8] utilizationFail 0
scalar OsgEarthNet.uav[8] simulationTime 259200
scalar OsgEarthNet.uav[9] utilizationSecMission 8982.5006103211
scalar OsgEarthNet.uav[9] utilizationSecMaintenance 6676.423184978
scalar OsgEarthNet.uav[9] utilizationSecCharge 59110
scalar OsgEarthNet.uav[9] utilizationSecIdle 184431.0752047
scalar OsgEarthNet.uav[9] utilizationEnergyMission 44951.225009918
scalar OsgEarthNet.uav[9] utilizationEnergyMaintenance 31681.700328827
scalar OsgEarthNet.uav[9] utilizationEnergyCharge 75871.258789062
scalar OsgEarthNet.uav[9] utilizationEnergyOverdrawMission 0
scalar OsgEarthNet.uav[9] utilizationEnergyOverdrawMaintenance 0
scalar OsgEarthNet.uav[9] utilizationCountMissions 17
scalar OsgEarthNet.uav[9] utilizationCountManeuversMission 345
scalar OsgEarthNet.uav[9] utilizationCountManeuversMaintenance 34
scalar OsgEarthNet.uav[9] utilizationCountChargeState 17
scalar OsgEarthNet.uav[9] utilizationCountOverdrawnAfterMission 0
scalar OsgEarthNet.uav[9] utilizationCountIdleState 18
scalar OsgEarthNet.uav[9] utilizationFail 0
scalar OsgEarthNet.uav[9] simulationTime 259200
scalar OsgEarthNet.uav[10] utilizationSecMission 12115.786674372
scalar OsgEarthNet.uav[10] utilizationSecMaintenance 6737.6894471207
scalar OsgEarthNet.uav[10] utilizationSecCharge 67250
scalar OsgEarthNet.uav[10] utilizationSecIdle 173096.52287851
scalar OsgEarthNet.uav[10] utilizationEnergyMission 58453.126251639
scalar OsgEarthNet.uav[10] utilizationEnergyMaintenance 32043.397293091
scalar OsgEarthNet.uav[10] utilizationEnergyCharge 86828.419921875
scalar OsgEarthNet.uav[10] utilizationEnergyOverdrawMission 0
scalar OsgEarthNet.uav[10] utilizationEnergyOverdrawMaintenance 0
scalar OsgEarthNet.uav[10] utilizationCountMissions 19
scalar OsgEarthNet.uav[10] utilizationCountManeuversMission 372
scalar OsgEarthNet.uav[10] utilizationCountManeuversMaintenance 39
scalar OsgEarthNet.uav[10] utilizationCountChargeState 19
scalar OsgEarthNet.uav[10] utilizationCountOverdrawnAfterMission 0
scalar OsgEarthNet.uav[10] utilizationCountIdleState 20
scalar OsgEarthNet.uav[10] utilizationFail 0
scalar OsgEarthNet.uav[10] simulationTime 259200
scalar OsgEarthNet.uav[11] utilizationSecMission 20197.812118101
scalar OsgEarthNet.uav[11] utilizationSecMaintenance 15089.590014383
scalar OsgEarthNet.uav[11] utilizationSecCharge 139400
scalar OsgEarthNet.uav[11] utilizationSecIdle 84512.596867516
scalar OsgEarthNet.uav[11] utilizationEnergyMission 100131.46238327
scalar OsgEarthNet.uav[11] utilizationEnergyMaintenance 72012.896785736
scalar OsgEarthNet.uav[11] utilizationEnergyCharge 171946.14428711
scalar OsgEarthNet.uav[11] utilizationEnergyOverdrawMission 0
scalar OsgEarthNet.uav[11] utilizationEnergyOverdrawMaintenance 0
scalar OsgEarthNet.uav[11] utilizationCountMissions 44
scalar OsgEarthNet.uav[11] utilizationCountManeuversMission 733
scalar OsgEarthNet.uav[11] utilizationCountManeuversMaintenance 88
scalar OsgEarthNet.uav[11] utilizationCountChargeState 44
scalar OsgEarthNet.uav[11] utilizationCountOverdrawnAfterMission 0
scalar OsgEarthNet.uav[11] utilizationCountIdleState 45
scalar OsgEarthNet.uav[11] utilizationFail 0
scalar OsgEarthNet.uav[11] simulationTime 259200
scalar OsgEarthNet.uav[12] utilizationSecMission 43238.67335796
scalar OsgEarthNet.uav[12] utilizationSecMaintenance 19004.563858919
scalar OsgEarthNet.uav[12] utilizationSecCharge 196274.76078312
scalar OsgEarthNet.uav[12] utilizationSecIdle 682.001
scalar OsgEarthNet.uav[12] utilizationEnergyMission 207775.25185394
scalar OsgEarthNet.uav[12] utilizationEnergyMaintenance 87962.209850311
scalar OsgEarthNet.uav[12] utilizationEnergyCharge 292258.24707031
scalar OsgEarthNet.uav[12] utilizationEnergyOverdrawMission 0
scalar OsgEarthNet.uav[12] utilizationEnergyOverdrawMaintenance 0
scalar OsgEarthNet.uav[12] utilizationCountMissions 65
scalar OsgEarthNet.uav[12] utilizationCountManeuversMission 1270
scalar OsgEarthNet.uav[12] utilizationCountManeuversMaintenance 130
scalar OsgEarthNet.uav[12] utilizationCountChargeState 65
scalar OsgEarthNet.uav[12] utilizationCountOverdrawnAfterMission 0
scalar OsgEarthNet.uav[12] utilizationCountIdleState 4
scalar OsgEarthNet.uav[12] utilizationFail 0
scalar OsgEarthNet.uav[12] simulationTime 259200
scalar OsgEarthNet.uav[13] utilizationSecMission 8474.0089542322
scalar OsgEarthNet.uav[13] utilizationSecMaintenance 5064.6782576941
scalar OsgEarthNet.uav[13] utilizationSecCharge 50000
scalar OsgEarthNet.uav[13] utilizationSecIdle 195661.31178807
scalar OsgEarthNet.uav[13] utilizationEnergyMission 41793.542873383
scalar OsgEarthNet.uav[13] utilizationEnergyMaintenance 23555.988269806
scalar OsgEarthNet.uav[13] utilizationEnergyCharge 64926.8828125
scalar OsgEarthNet.uav[13] utilizationEnergyOverdrawMission 0
scalar OsgEarthNet.uav[13] utilizationEnergyOverdrawMaintenance 0
scalar OsgEarthNet.uav[13] utilizationCountMissions 14
scalar OsgEarthNet.uav[13] utilizationCountManeuversMission 263
scalar OsgEarthNet.uav[13] utilizationCountManeuversMaintenance 28
scalar OsgEarthNet.uav[13] utilizationCountChargeState 14
scalar OsgEarthNet.uav[13] utilizationCountOverdrawnAfterMission 0
scalar OsgEarthNet.uav[13] utilizationCountIdleState 15
scalar OsgEarthNet.uav[13] utilizationFail 0
scalar OsgEarthNet.uav[13] simulationTime 259200
scalar OsgEarthNet.uav[14] utilizationSecMission 14655.322609643
scalar OsgEarthNet.uav[14] utilizationSecMaintenance 9878.246129134
scalar OsgEarthNet.uav[14] utilizationSecCharge 93740
scalar OsgEarthNet.uav[14] utilizationSecIdle 140926.43026122
scalar OsgEarthNet.uav[14] utilizationEnergyMission 71650.831232284
scalar OsgEarthNet.uav[14] utilizationEnergyMaintenance 46537.293239593
scalar OsgEarthNet.uav[14] utilizationEnergyCharge 116695.02636719
scalar OsgEarthNet.uav[14] utilizationEnergyOverdrawMission 0
scalar OsgEarthNet.uav[14] utilizationEnergyOverdrawMaintenance 0
scalar OsgEarthNet.uav[14] utilizationCountMissions 29
scalar OsgEarthNet.uav[14] utilizationCountManeuversMission 475
scalar OsgEarthNet.uav[14] utilizationCountManeuversMaintenance 59
scalar OsgEarthNet.uav[14] utilizationCountChargeState 29
scalar OsgEarthNet.uav[14] utilizationCountOverdrawnAfterMission 0
scalar OsgEarthNet.uav[14] utilizationCountIdleState 30
scalar OsgEarthNet.uav[14] utilizationFail 0
scalar OsgEarthNet.uav[14] simulationTime 259200
scalar OsgEarthNet.uav[15] utilizationSecMission 42254.174685449
scalar OsgEarthNet.uav[15] utilizationSecMaintenance 18509.122577442
scalar OsgEarthNet.uav[15] utilizationSecCharge 195274.69573711
scalar OsgEarthNet.uav[15] utilizationSecIdle 3162.006
scalar OsgEarthNet.uav[15] utilizationEnergyMission 205650.98238373
scalar OsgEarthNet.uav[15] utilizationEnergyMaintenance 85569.820343018
scalar OsgEarthNet.uav[15] utilizationEnergyCharge 289818.90124512
scalar OsgEarthNet.uav[15] utilizationEnergyOverdrawMission 0
scalar OsgEarthNet.uav[15] utilizationEnergyOverdrawMaintenance 0
scalar OsgEarthNet.uav[15] utilizationCountMissions 64
scalar OsgEarthNet.uav[15] utilizationCountManeuversMission 1399
scalar OsgEarthNet.uav[15] utilizationCountManeuversMaintenance 128
scalar OsgEarthNet.uav[15] utilizationCountChargeState 64
scalar OsgEarthNet.uav[15] utilizationCountOverdrawnAfterMission 0
scalar OsgEarthNet.uav[15] utilizationCountIdleState 3
scalar OsgEarthNet.uav[15] utilizationFail 0
scalar OsgEarthNet.uav[15] simulationTime 259200
scalar OsgEarthNet.uav[16] utilizationSecMission 8823.1257629014
scalar OsgEarthNet.uav[16] utilizationSecMaintenance 5887.378619446
scalar OsgEarthNet.uav[16] utilizationSecCharge 55210
scalar OsgEarthNet.uav[16] utilizationSecIdle 189279.49461765
scalar OsgEarthNet.uav[16] utilizationEnergyMission 43261.071537018
scalar OsgEarthNet.uav[16] utilizationEnergyMaintenance 28230.882385254
scalar OsgEarthNet.uav[16] utilizationEnergyCharge 70678.717285156
scalar OsgEarthNet.uav[16] utilizationEnergyOverdrawMission 0
scalar OsgEarthNet.uav[16] utilizationEnergyOverdrawMaintenance 0
scalar OsgEarthNet.uav[16] utilizationCountMissions 16
scalar OsgEarthNet.uav[16] utilizationCountManeuversMission 311
scalar OsgEarthNet.uav[16] utilizationCountManeuversMaintenance 32
scalar OsgEarthNet.uav[16] utilizationCountChargeState 16
scalar OsgEarthNet.uav[16] utilizationCountOverdrawnAfterMission 0
scalar OsgEarthNet.uav[16] utilizationCountIdleState 17
scalar OsgEarthNet.uav[16] utilizationFail 0
scalar OsgEarthNet.uav[16] simulationTime 259200
scalar OsgEarthNet.uav[17] utilizationSecMission 13184.905121989
scalar OsgEarthNet.uav[17] utilizationSecMaintenance 9539.3753803082
scalar OsgEarthNet.uav[17] utilizationSecCharge 89230
scalar OsgEarthNet.uav[17] utilizationSecIdle 147245.7184977
scalar OsgEarthNet.uav[17] utilizationEnergyMission 64930.016716003
scalar OsgEarthNet.uav[17] utilizationEnergyMaintenance 45581.345149994
scalar OsgEarthNet.uav[17] utilizationEnergyCharge 110488.49194336
scalar OsgEarthNet.uav[17] utilizationEnergyOverdrawMission 0
scalar OsgEarthNet.uav[17] utilizationEnergyOverdrawMaintenance 0
scalar OsgEarthNet.uav[17] utilizationCountMissions 28
scalar OsgEarthNet.uav[17] utilizationCountManeuversMission 465
scalar OsgEarthNet.uav[17] utilizationCountManeuversMaintenance 56
scalar OsgEarthNet.uav[17] utilizationCountChargeState 28
scalar OsgEarthNet.uav[17] utilizationCountOverdrawnAfterMission 0
scalar OsgEarthNet.uav[17] utilizationCountIdleState 29
scalar OsgEarthNet.uav[17] utilizationFail 0
scalar OsgEarthNet.uav[17] simulationTime 259200
scalar OsgEarthNet.uav[18] utilizationSecMission 42056.8296486
scalar OsgEarthNet.uav[18] utilizationSecMaintenance 19523.332547313
scalar OsgEarthNet.uav[18] utilizationSecCharge 196822.38654006
scalar OsgEarthNet.uav[18] utilizationSecIdle 797.4502640309
scalar OsgEarthNet.uav[18] utilizationEnergyMission 204090.41137695
scalar OsgEarthNet.uav[18] utilizationEnergyMaintenance 89725.568809509
scalar OsgEarthNet.uav[18] utilizationEnergyCharge 293712.41967773
scalar OsgEarthNet.uav[18] utilizationEnergyOverdrawMission 0
scalar OsgEarthNet.uav[18] utilizationEnergyOverdrawMaintenance 0
scalar OsgEarthNet.uav[18] utilizationCountMissions 65
scalar OsgEarthNet.uav[18] utilizationCountManeuversMission 1403
scalar OsgEarthNet.uav[18] utilizationCountManeuversMaintenance 130
scalar OsgEarthNet.uav[18] utilizationCountChargeState 65
scalar OsgEarthNet.uav[18] utilizationCountOverdrawnAfterMission 0
scalar OsgEarthNet.uav[18] utilizationCountIdleState 2
scalar OsgEarthNet.uav[18] utilizationFail 0
scalar OsgEarthNet.uav[18] simulationTime 259200
scalar OsgEarthNet.uav[19] utilizationSecMission 8503.1257629014
scalar OsgEarthNet.uav[19] utilizationSecMaintenance 5614.6815365344
scalar OsgEarthNet.uav[19] utilizationSecCharge 52920
scalar OsgEarthNet.uav[19] utilizationSecIdle 192162.19170056
scalar OsgEarthNet.uav[19] utilizationEnergyMission 42191.033996582
scalar OsgEarthNet.uav[19] utilizationEnergyMaintenance 26641.347095489
scalar OsgEarthNet.uav[19] utilizationEnergyCharge 68252.281738281
scalar OsgEarthNet.uav[19] utilizationEnergyOverdrawMission 0
scalar OsgEarthNet.uav[19] utilizationEnergyOverdrawMaintenance 0
scalar OsgEarthNet.uav[19] utilizationCountMissions 15
scalar OsgEarthNet.uav[19] utilizationCountManeuversMission 295
scalar OsgEarthNet.uav[19] utilizationCountManeuversMaintenance 30
scalar OsgEarthNet.uav[19] utilizationCountChargeState 15
scalar OsgEarthNet.uav[19] utilizationCountOverdrawnAfterMission 0
scalar OsgEarthNet.uav[19] utilizationCountIdleState 16
scalar OsgEarthNet.uav[19] utilizationFail 0
scalar OsgEarthNet.uav[19] simulationTime 259200
scalar OsgEarthNet.uav[20] utilizationSecMission 17124.371443864
scalar OsgEarthNet.uav[20] utilizationSecMaintenance 10513.944680866
scalar OsgEarthNet.uav[20] utilizationSecCharge 102600
scalar OsgEarthNet.uav[20] utilizationSecIdle 128961.68287527
scalar OsgEarthNet.uav[20] utilizationEnergyMission 84514.806194305
scalar OsgEarthNet.uav[20] utilizationEnergyMaintenance 49679.595302582
scalar OsgEarthNet.uav[20] utilizationEnergyCharge 132652.53222656
scalar OsgEarthNet.uav[20] utilizationEnergyOverdrawMission 0
scalar OsgEarthNet.uav[20] utilizationEnergyOverdrawMaintenance 0
scalar OsgEarthNet.uav[20] utilizationCountMissions 29
scalar OsgEarthNet.uav[20] utilizationCountManeuversMission 558
scalar OsgEarthNet.uav[20] utilizationCountManeuversMaintenance 57
scalar OsgEarthNet.uav[20] utilizationCountChargeState 29
scalar OsgEarthNet.uav[20] utilizationCountOverdrawnAfterMission 0
scalar OsgEarthNet.uav[20] utilizationCountIdleState 30
scalar OsgEarthNet.uav[20] utilizationFail 0
scalar OsgEarthNet.uav[20] simulationTime 259200
scalar OsgEarthNet.uav[21] utilizationSecMission 14960.841620388
scalar OsgEarthNet.uav[21] utilizationSecMaintenance 9987.3503558521
scalar OsgEarthNet.uav[21] utilizationSecCharge 94085.375762536
scalar OsgEarthNet.uav[21] utilizationSecIdle 140166.43126122
scalar OsgEarthNet.uav[21] utilizationEnergyMission 74524.317237854
scalar OsgEarthNet.uav[21] utilizationEnergyMaintenance 46709.62953186
scalar OsgEarthNet.uav[21] utilizationEnergyCharge 120457.56567383
scalar OsgEarthNet.uav[21] utilizationEnergyOverdrawMission 0
scalar OsgEarthNet.uav[21] utilizationEnergyOverdrawMaintenance 0
scalar OsgEarthNet.uav[21] utilizationCountMissions 28
scalar OsgEarthNet.uav[21] utilizationCountManeuversMission 570
scalar OsgEarthNet.uav[21] utilizationCountManeuversMaintenance 56
scalar OsgEarthNet.uav[21] utilizationCountChargeState 28
scalar OsgEarthNet.uav[21] utilizationCountOverdrawnAfterMission 0
scalar OsgEarthNet.uav[21] utilizationCountIdleState 28
scalar OsgEarthNet.uav[21] utilizationFail 0
scalar OsgEarthNet.uav[21] simulationTime 259200
scalar OsgEarthNet.uav[22] utilizationSecMission 42277.547795591
scalar OsgEarthNet.uav[22] utilizationSecMaintenance 19032.289002266
scalar OsgEarthNet.uav[22] utilizationSecCharge 194620.70385405
scalar OsgEarthNet.uav[22] utilizationSecIdle 3269.4583480894
scalar OsgEarthNet.uav[22] utilizationEnergyMission 204018.9404335
scalar OsgEarthNet.uav[22] utilizationEnergyMaintenance 87600.769042969
scalar OsgEarthNet.uav[22] utilizationEnergyCharge 288394.83447266
scalar OsgEarthNet.uav[22] utilizationEnergyOverdrawMission 0
scalar OsgEarthNet.uav[22] utilizationEnergyOverdrawMaintenance 0
scalar OsgEarthNet.uav[22] utilizationCountMissions 63
scalar OsgEarthNet.uav[22] utilizationCountManeuversMission 1230
scalar OsgEarthNet.uav[22] utilizationCountManeuversMaintenance 126
scalar OsgEarthNet.uav[22] utilizationCountChargeState 63
scalar OsgEarthNet.uav[22] utilizationCountOverdrawnAfterMission 0
scalar OsgEarthNet.uav[22] utilizationCountIdleState 5
scalar OsgEarthNet.uav[22] utilizationFail 0
scalar OsgEarthNet.uav[22] simulationTime 259200
scalar OsgEarthNet.uav[23] utilizationSecMission 15785.626373223
scalar OsgEarthNet.uav[23] utilizationSecMaintenance 10676.413884634
scalar OsgEarthNet.uav[23] utilizationSecCharge 98210
scalar OsgEarthNet.uav[23] utilizationSecIdle 134527.95874214
scalar OsgEarthNet.uav[23] utilizationEnergyMission 76279.655860901
scalar OsgEarthNet.uav[23] utilizationEnergyMaintenance 50232.5131073
scalar OsgEarthNet.uav[23] utilizationEnergyCharge 126412.48388672
scalar OsgEarthNet.uav[23] utilizationEnergyOverdrawMission 0
scalar OsgEarthNet.uav[23] utilizationEnergyOverdrawMaintenance 0
scalar OsgEarthNet.uav[23] utilizationCountMissions 28
scalar OsgEarthNet.uav[23] utilizationCountManeuversMission 555
scalar OsgEarthNet.uav[23] utilizationCountManeuversMaintenance 56
scalar OsgEarthNet.uav[23] utilizationCountChargeState 28
scalar OsgEarthNet.uav[23] utilizationCountOverdrawnAfterMission 0
scalar OsgEarthNet.uav[23] utilizationCountIdleState 29
scalar OsgEarthNet.uav[23] utilizationFail 0
scalar OsgEarthNet.uav[23] simulationTime 259200
scalar OsgEarthNet.uav[24] utilizationSecMission 14915.15526795
scalar OsgEarthNet.uav[24] utilizationSecMaintenance 11482.84073205
scalar OsgEarthNet.uav[24] utilizationSecCharge 104190
scalar OsgEarthNet.uav[24] utilizationSecIdle 128612.003
scalar OsgEarthNet.uav[24] utilizationEnergyMission 72069.318656626
scalar OsgEarthNet.uav[24] utilizationEnergyMaintenance 54718.996879578
scalar OsgEarthNet.uav[24] utilizationEnergyCharge 126818.89013672
scalar OsgEarthNet.uav[24] utilizationEnergyOverdrawMission 0
scalar OsgEarthNet.uav[24] utilizationEnergyOverdrawMaintenance 0
scalar OsgEarthNet.uav[24] utilizationCountMissions 34
scalar OsgEarthNet.uav[24] utilizationCountManeuversMission 514
scalar OsgEarthNet.uav[24] utilizationCountManeuversMaintenance 69
scalar OsgEarthNet.uav[24] utilizationCountChargeState 34
scalar OsgEarthNet.uav[24] utilizationCountOverdrawnAfterMission 0
scalar OsgEarthNet.uav[24] utilizationCountIdleState 35
scalar OsgEarthNet.uav[24] utilizationFail 0
scalar OsgEarthNet.uav[24] simulationTime 259200
scalar OsgEarthNet.uav[25] utilizationSecMission 42547.254329662
scalar OsgEarthNet.uav[25] utilizationSecMaintenance 18850.693776945
scalar OsgEarthNet.uav[25] utilizationSecCharge 195492.41981273
scalar OsgEarthNet.uav[25] utilizationSecIdle 2309.6310806652
scalar OsgEarthNet.uav[25] utilizationEnergyMission 206892.17293549
scalar OsgEarthNet.uav[25] utilizationEnergyMaintenance 86827.678009033
scalar OsgEarthNet.uav[25] utilizationEnergyCharge 289250.55541992
scalar OsgEarthNet.uav[25] utilizationEnergyOverdrawMission 0
scalar OsgEarthNet.uav[25] utilizationEnergyOverdrawMaintenance 0
scalar OsgEarthNet.uav[25] utilizationCountMissions 64
scalar OsgEarthNet.uav[25] utilizationCountManeuversMission 1250
scalar OsgEarthNet.uav[25] utilizationCountManeuversMaintenance 128
scalar OsgEarthNet.uav[25] utilizationCountChargeState 64
scalar OsgEarthNet.uav[25] utilizationCountOverdrawnAfterMission 0
scalar OsgEarthNet.uav[25] utilizationCountIdleState 4
scalar OsgEarthNet.uav[25] utilizationFail 0
scalar OsgEarthNet.uav[25] simulationTime 259200
scalar OsgEarthNet.uav[26] utilizationSecMission 15041.351162524
scalar OsgEarthNet.uav[26] utilizationSecMaintenance 8894.2670568818
scalar OsgEarthNet.uav[26] utilizationSecCharge 88670
scalar OsgEarthNet.uav[26] utilizationSecIdle 146594.38078059
scalar OsgEarthNet.uav[26] utilizationEnergyMission 74700.873155404
scalar OsgEarthNet.uav[26] utilizationEnergyMaintenance 42302.412548065
scalar OsgEarthNet.uav[26] utilizationEnergyCharge 114357.42041016
scalar OsgEarthNet.uav[26] utilizationEnergyOverdrawMission 0
scalar OsgEarthNet.uav[26] utilizationEnergyOverdrawMaintenance 0
scalar OsgEarthNet.uav[26] utilizationCountMissions 25
scalar OsgEarthNet.uav[26] utilizationCountManeuversMission 459
scalar OsgEarthNet.uav[26] utilizationCountManeuversMaintenance 51
scalar OsgEarthNet.uav[26] utilizationCountChargeState 25
scalar OsgEarthNet.uav[26] utilizationCountOverdrawnAfterMission 0
scalar OsgEarthNet.uav[26] utilizationCountIdleState 26
scalar OsgEarthNet.uav[26] utilizationFail 0
scalar OsgEarthNet.uav[26] simulationTime 259200
scalar OsgEarthNet.uav[27] utilizationSecMission 19039.644279507
scalar OsgEarthNet.uav[27] utilizationSecMaintenance 12555.227289327
scalar OsgEarthNet.uav[27] utilizationSecCharge 120990
scalar OsgEarthNet.uav[27] utilizationSecIdle 106615.12743117
scalar OsgEarthNet.uav[27] utilizationEnergyMission 92691.219108582
scalar OsgEarthNet.uav[27] utilizationEnergyMaintenance 59712.510066986
scalar OsgEarthNet.uav[27] utilizationEnergyCharge 151719.43286133
scalar OsgEarthNet.uav[27] utilizationEnergyOverdrawMission 0
scalar OsgEarthNet.uav[27] utilizationEnergyOverdrawMaintenance 0
scalar OsgEarthNet.uav[27] utilizationCountMissions 37
scalar OsgEarthNet.uav[27] utilizationCountManeuversMission 647
scalar OsgEarthNet.uav[27] utilizationCountManeuversMaintenance 74
scalar OsgEarthNet.uav[27] utilizationCountChargeState 37
scalar OsgEarthNet.uav[27] utilizationCountOverdrawnAfterMission 0
scalar OsgEarthNet.uav[27] utilizationCountIdleState 38
scalar OsgEarthNet.uav[27] utilizationFail 0
scalar OsgEarthNet.uav[27] simulationTime 259200
scalar OsgEarthNet.uav[28] utilizationSecMission 42675.396297712
scalar OsgEarthNet.uav[28] utilizationSecMaintenance 17066.177102226
scalar OsgEarthNet.uav[28] utilizationSecCharge 195822.67690736
scalar OsgEarthNet.uav[28] utilizationSecIdle 3635.7486927025
scalar OsgEarthNet.uav[28] utilizationEnergyMission 207845.01068497
scalar OsgEarthNet.uav[28] utilizationEnergyMaintenance 78579.566543579
scalar OsgEarthNet.uav[28] utilizationEnergyCharge 284830.77490234
scalar OsgEarthNet.uav[28] utilizationEnergyOverdrawMission 0
scalar OsgEarthNet.uav[28] utilizationEnergyOverdrawMaintenance 0
scalar OsgEarthNet.uav[28] utilizationCountMissions 62
scalar OsgEarthNet.uav[28] utilizationCountManeuversMission 1277
scalar OsgEarthNet.uav[28] utilizationCountManeuversMaintenance 124
scalar OsgEarthNet.uav[28] utilizationCountChargeState 62
scalar OsgEarthNet.uav[28] utilizationCountOverdrawnAfterMission 0
scalar OsgEarthNet.uav[28] utilizationCountIdleState 3
scalar OsgEarthNet.uav[28] utilizationFail 0
scalar OsgEarthNet.uav[28] simulationTime 259200
scalar OsgEarthNet.uav[29] utilizationSecMission 13446.251525803
scalar OsgEarthNet.uav[29] utilizationSecMaintenance 8010.2750897343
scalar OsgEarthNet.uav[29] utilizationSecCharge 81020
scalar OsgEarthNet.uav[29] utilizationSecIdle 156723.47238446
scalar OsgEarthNet.uav[29] utilizationEnergyMission 65025.437107086
scalar OsgEarthNet.uav[29] utilizationEnergyMaintenance 38355.475330353
scalar OsgEarthNet.uav[29] utilizationEnergyCharge 104462.71289062
scalar OsgEarthNet.uav[29] utilizationEnergyOverdrawMission 0
scalar OsgEarthNet.uav[29] utilizationEnergyOverdrawMaintenance 0
scalar OsgEarthNet.uav[29] utilizationCountMissions 23
scalar OsgEarthNet.uav[29] utilizationCountManeuversMission 412
scalar OsgEarthNet.uav[29] utilizationCountManeuversMaintenance 46
scalar OsgEarthNet.uav[29] utilizationCountChargeState 23
scalar OsgEarthNet.uav[29] utilizationCountOverdrawnAfterMission 0
scalar OsgEarthNet.uav[29] utilizationCountIdleState 24
scalar OsgEarthNet.uav[29] utilizationFail 0
scalar OsgEarthNet.uav[29] simulationTime 259200
scalar OsgEarthNet.uav[30] utilizationSecMission 18119.010174875
scalar OsgEarthNet.uav[30] utilizationSecMaintenance 10441.692398947
scalar OsgEarthNet.uav[30] utilizationSecCharge 106140
scalar OsgEarthNet.uav[30] utilizationSecIdle 124499.29642618
scalar OsgEarthNet.uav[30] utilizationEnergyMission 87081.085071564
scalar OsgEarthNet.uav[30] utilizationEnergyMaintenance 49335.978584289
scalar OsgEarthNet.uav[30] utilizationEnergyCharge 137133.10498047
scalar OsgEarthNet.uav[30] utilizationEnergyOverdrawMission 0
scalar OsgEarthNet.uav[30] utilizationEnergyOverdrawMaintenance 0
scalar OsgEarthNet.uav[30] utilizationCountMissions 30
scalar OsgEarthNet.uav[30] utilizationCountManeuversMission 537
scalar OsgEarthNet.uav[30] utilizationCountManeuversMaintenance 60
scalar OsgEarthNet.uav[30] utilizationCountChargeState 30
scalar OsgEarthNet.uav[30] utilizationCountOverdrawnAfterMission 0
scalar OsgEarthNet.uav[30] utilizationCountIdleState 31
scalar OsgEarthNet.uav[30] utilizationFail 0
scalar OsgEarthNet.uav[30] simulationTime 259200
scalar OsgEarthNet.uav[31] utilizationSecMission 16034.864286597
scalar OsgEarthNet.uav[31] utilizationSecMaintenance 12032.063015969
scalar OsgEarthNet.uav[31] utilizationSecCharge 110181.07019071
scalar OsgEarthNet.uav[31] utilizationSecIdle 120952.00150672
scalar OsgEarthNet.uav[31] utilizationEnergyMission 79818.169288635
scalar OsgEarthNet.uav[31] utilizationEnergyMaintenance 57655.058895111
scalar OsgEarthNet.uav[31] utilizationEnergyCharge 135658.26757812
scalar OsgEarthNet.uav[31] utilizationEnergyOverdrawMission 0
scalar OsgEarthNet.uav[31] utilizationEnergyOverdrawMaintenance 0
scalar OsgEarthNet.uav[31] utilizationCountMissions 36
scalar OsgEarthNet.uav[31] utilizationCountManeuversMission 547
scalar OsgEarthNet.uav[31] utilizationCountManeuversMaintenance 72
scalar OsgEarthNet.uav[31] utilizationCountChargeState 36
scalar OsgEarthNet.uav[31] utilizationCountOverdrawnAfterMission 0
scalar OsgEarthNet.uav[31] utilizationCountIdleState 36
scalar OsgEarthNet.uav[31] utilizationFail 0
scalar OsgEarthNet.uav[31] simulationTime 259200
scalar OsgEarthNet.uav[32] utilizationSecMission 42901.260731273
scalar OsgEarthNet.uav[32] utilizationSecMaintenance 18221.275967579
scalar OsgEarthNet.uav[32] utilizationSecCharge 195047.62548711
scalar OsgEarthNet.uav[32] utilizationSecIdle 3029.83681404
scalar OsgEarthNet.uav[32] utilizationEnergyMission 205137.03443146
scalar OsgEarthNet.uav[32] utilizationEnergyMaintenance 83385.876300812
scalar OsgEarthNet.uav[32] utilizationEnergyCharge 288028.15820312
scalar OsgEarthNet.uav[32] utilizationEnergyOverdrawMission 0
scalar OsgEarthNet.uav[32] utilizationEnergyOverdrawMaintenance 0
scalar OsgEarthNet.uav[32] utilizationCountMissions 63
scalar OsgEarthNet.uav[32] utilizationCountManeuversMission 1191
scalar OsgEarthNet.uav[32] utilizationCountManeuversMaintenance 126
scalar OsgEarthNet.uav[32] utilizationCountChargeState 63
scalar OsgEarthNet.uav[32] utilizationCountOverdrawnAfterMission 0
scalar OsgEarthNet.uav[32] utilizationCountIdleState 3
scalar OsgEarthNet.uav[32] utilizationFail 0
scalar OsgEarthNet.uav[32] simulationTime 259200
scalar OsgEarthNet.uav[33] utilizationSecMission 15235.884411973
scalar OsgEarthNet.uav[33] utilizationSecMaintenance 10205.890158027
scalar OsgEarthNet.uav[33] utilizationSecCharge 94820
scalar OsgEarthNet.uav[33] utilizationSecIdle 138938.22443
scalar OsgEarthNet.uav[33] utilizationEnergyMission 75352.839351654
scalar OsgEarthNet.uav[33] utilizationEnergyMaintenance 48312.433639526
scalar OsgEarthNet.uav[33] utilizationEnergyCharge 122142.87304688
scalar OsgEarthNet.uav[33] utilizationEnergyOverdrawMission 0
scalar OsgEarthNet.uav[33] utilizationEnergyOverdrawMaintenance 0
scalar OsgEarthNet.uav[33] utilizationCountMissions 27
scalar OsgEarthNet.uav[33] utilizationCountManeuversMission 523
scalar OsgEarthNet.uav[33] utilizationCountManeuversMaintenance 54
scalar OsgEarthNet.uav[33] utilizationCountChargeState 27
scalar OsgEarthNet.uav[33] utilizationCountOverdrawnAfterMission 0
scalar OsgEarthNet.uav[33] utilizationCountIdleState 28
scalar OsgEarthNet.uav[33] utilizationFail 0
scalar OsgEarthNet.uav[33] simulationTime 259200
scalar OsgEarthNet.uav[34] utilizationSecMission 20278.033338901
scalar OsgEarthNet.uav[34] utilizationSecMaintenance 12646.248036724
scalar OsgEarthNet.uav[34] utilizationSecCharge 123154.65982918
scalar OsgEarthNet.uav[34] utilizationSecIdle 103121.05779519
scalar OsgEarthNet.uav[34] utilizationEnergyMission 98729.879653931
scalar OsgEarthNet.uav[34] utilizationEnergyMaintenance 59710.128070831
scalar OsgEarthNet.uav[34] utilizationEnergyCharge 155138.63220215
scalar OsgEarthNet.uav[34] utilizationEnergyOverdrawMission 0
scalar OsgEarthNet.uav[34] utilizationEnergyOverdrawMaintenance 0
scalar OsgEarthNet.uav[34] utilizationCountMissions 38
scalar OsgEarthNet.uav[34] utilizationCountManeuversMission 628
scalar OsgEarthNet.uav[34] utilizationCountManeuversMaintenance 76
scalar OsgEarthNet.uav[34] utilizationCountChargeState 38
scalar OsgEarthNet.uav[34] utilizationCountOverdrawnAfterMission 0
scalar OsgEarthNet.uav[34] utilizationCountIdleState 38
scalar OsgEarthNet.uav[34] utilizationFail 0
scalar OsgEarthNet.uav[34] simulationTime 259200
scalar OsgEarthNet.uav[35] utilizationSecMission 41325.048303966
scalar OsgEarthNet.uav[35] utilizationSecMaintenance 20006.377101238
scalar OsgEarthNet.uav[35] utilizationSecCharge 195280
scalar OsgEarthNet.uav[35] utilizationSecIdle 2588.5735947964
scalar OsgEarthNet.uav[35] utilizationEnergyMission 200763.38090134
scalar OsgEarthNet.uav[35] utilizationEnergyMaintenance 92952.282969076
scalar OsgEarthNet.uav[35] utilizationEnergyCharge 291203.40136719
scalar OsgEarthNet.uav[35] utilizationEnergyOverdrawMission 0
scalar OsgEarthNet.uav[35] utilizationEnergyOverdrawMaintenance 0
scalar OsgEarthNet.uav[35] utilizationCountMissions 65
scalar OsgEarthNet.uav[35] utilizationCountManeuversMission 1362
scalar OsgEarthNet.uav[35] utilizationCountManeuversMaintenance 130
scalar OsgEarthNet.uav[35] utilizationCountChargeState 64
scalar OsgEarthNet.uav[35] utilizationCountOverdrawnAfterMission 0
scalar OsgEarthNet.uav[35] utilizationCountIdleState 1
scalar OsgEarthNet.uav[35] utilizationFail 0
scalar OsgEarthNet.uav[35] simulationTime 259200
scalar OsgEarthNet.uav[36] utilizationSecMission 15476.618639633
scalar OsgEarthNet.uav[36] utilizationSecMaintenance 9301.2405472231
scalar OsgEarthNet.uav[36] utilizationSecCharge 90110
scalar OsgEarthNet.uav[36] utilizationSecIdle 144312.13981314
scalar OsgEarthNet.uav[36] utilizationEnergyMission 75306.625602722
scalar OsgEarthNet.uav[36] utilizationEnergyMaintenance 44464.774065683
scalar OsgEarthNet.uav[36] utilizationEnergyCharge 115484.89746094
scalar OsgEarthNet.uav[36] utilizationEnergyOverdrawMission 0
scalar OsgEarthNet.uav[36] utilizationEnergyOverdrawMaintenance 0
scalar OsgEarthNet.uav[36] utilizationCountMissions 27
scalar OsgEarthNet.uav[36] utilizationCountManeuversMission 492
scalar OsgEarthNet.uav[36] utilizationCountManeuversMaintenance 54
scalar OsgEarthNet.uav[36] utilizationCountChargeState 26
scalar OsgEarthNet.uav[36] utilizationCountOverdrawnAfterMission 0
scalar OsgEarthNet.uav[36] utilizationCountIdleState 27
scalar OsgEarthNet.uav[36] utilizationFail 0
scalar OsgEarthNet.uav[36] simulationTime 259200
scalar OsgEarthNet.uav[37] utilizationSecMission 18299.149008998
scalar OsgEarthNet.uav[37] utilizationSecMaintenance 12295.331410693
scalar OsgEarthNet.uav[37] utilizationSecCharge 120350
scalar OsgEarthNet.uav[37] utilizationSecIdle 108255.51858031
scalar OsgEarthNet.uav[37] utilizationEnergyMission 88338.136119842
scalar OsgEarthNet.uav[37] utilizationEnergyMaintenance 59456.72346878
scalar OsgEarthNet.uav[37] utilizationEnergyCharge 148215.73266602
scalar OsgEarthNet.uav[37] utilizationEnergyOverdrawMission 0
scalar OsgEarthNet.uav[37] utilizationEnergyOverdrawMaintenance 0
scalar OsgEarthNet.uav[37] utilizationCountMissions 38
scalar OsgEarthNet.uav[37] utilizationCountManeuversMission 535
scalar OsgEarthNet.uav[37] utilizationCountManeuversMaintenance 76
scalar OsgEarthNet.uav[37] utilizationCountChargeState 38
scalar OsgEarthNet.uav[37] utilizationCountOverdrawnAfterMission 0
scalar OsgEarthNet.uav[37] utilizationCountIdleState 39
scalar OsgEarthNet.uav[37] utilizationFail 0
scalar OsgEarthNet.uav[37] simulationTime 259200
scalar OsgEarthNet.uav[38] utilizationSecMission 42659.156393479
scalar OsgEarthNet.uav[38] utilizationSecMaintenance 19306.579120542
scalar OsgEarthNet.uav[38] utilizationSecCharge 197182.26348598
scalar OsgEarthNet.uav[38] utilizationSecIdle 52
scalar OsgEarthNet.uav[38] utilizationEnergyMission 206149.5008812
scalar OsgEarthNet.uav[38] utilizationEnergyMaintenance 88051.943279266
scalar OsgEarthNet.uav[38] utilizationEnergyCharge 292061.42871094
scalar OsgEarthNet.uav[38] utilizationEnergyOverdrawMission 0
scalar OsgEarthNet.uav[38] utilizationEnergyOverdrawMaintenance 0
scalar OsgEarthNet.uav[38] utilizationCountMissions 64
scalar OsgEarthNet.uav[38] utilizationCountManeuversMission 1261
scalar OsgEarthNet.uav[38] utilizationCountManeuversMaintenance 128
scalar OsgEarthNet.uav[38] utilizationCountChargeState 64
scalar OsgEarthNet.uav[38] utilizationCountOverdrawnAfterMission 0
scalar OsgEarthNet.uav[38] utilizationCountIdleState 3
scalar OsgEarthNet.uav[38] utilizationFail 0
scalar OsgEarthNet.uav[38] simulationTime 259200
scalar OsgEarthNet.uav[39] utilizationSecMission 16015.884411973
scalar OsgEarthNet.uav[39] utilizationSecMaintenance 11003.386289757
scalar OsgEarthNet.uav[39] utilizationSecCharge 102200
scalar OsgEarthNet.uav[39] utilizationSecIdle 129980.72829827
scalar OsgEarthNet.uav[39] utilizationEnergyMission 77589.047542572
scalar OsgEarthNet.uav[39] utilizationEnergyMaintenance 52444.753597259
scalar OsgEarthNet.uav[39] utilizationEnergyCharge 131966.19140625
scalar OsgEarthNet.uav[39] utilizationEnergyOverdrawMission 0
scalar OsgEarthNet.uav[39] utilizationEnergyOverdrawMaintenance 0
scalar OsgEarthNet.uav[39] utilizationCountMissions 29
scalar OsgEarthNet.uav[39] utilizationCountManeuversMission 562
scalar OsgEarthNet.uav[39] utilizationCountManeuversMaintenance 58
scalar OsgEarthNet.uav[39] utilizationCountChargeState 29
scalar OsgEarthNet.uav[39] utilizationCountOverdrawnAfterMission 0
scalar OsgEarthNet.uav[39] utilizationCountIdleState 30
scalar OsgEarthNet.uav[39] utilizationFail 0
scalar OsgEarthNet.uav[39] simulationTime 259200
scalar OsgEarthNet.uav[40] utilizationSecMission 17717.243792213
scalar OsgEarthNet.uav[40] utilizationSecMaintenance 11386.43183677
scalar OsgEarthNet.uav[40] utilizationSecCharge 105634.32237102
scalar OsgEarthNet.uav[40] utilizationSecIdle 124462.001
scalar OsgEarthNet.uav[40] utilizationEnergyMission 86390.336818695
scalar OsgEarthNet.uav[40] utilizationEnergyMaintenance 53671.020996094
scalar OsgEarthNet.uav[40] utilizationEnergyCharge 136408.60620117
scalar OsgEarthNet.uav[40] utilizationEnergyOverdrawMission 0
scalar OsgEarthNet.uav[40] utilizationEnergyOverdrawMaintenance 0
scalar OsgEarthNet.uav[40] utilizationCountMissions 31
scalar OsgEarthNet.uav[40] utilizationCountManeuversMission 578
scalar OsgEarthNet.uav[40] utilizationCountManeuversMaintenance 62
scalar OsgEarthNet.uav[40] utilizationCountChargeState 31
scalar OsgEarthNet.uav[40] utilizationCountOverdrawnAfterMission 0
scalar OsgEarthNet.uav[40] utilizationCountIdleState 31
scalar OsgEarthNet.uav[40] utilizationFail 0
scalar OsgEarthNet.uav[40] simulationTime 259200
scalar OsgEarthNet.uav[41] utilizationSecMission 16993.046546128
scalar OsgEarthNet.uav[41] utilizationSecMaintenance 11265.972136773
scalar OsgEarthNet.uav[41] utilizationSecCharge 109710
scalar OsgEarthNet.uav[41] utilizationSecIdle 121230.9803171
scalar OsgEarthNet.uav[41] utilizationEnergyMission 83716.917407989
scalar OsgEarthNet.uav[41] utilizationEnergyMaintenance 54218.778781891
scalar OsgEarthNet.uav[41] utilizationEnergyCharge 136871.34838867
scalar OsgEarthNet.uav[41] utilizationEnergyOverdrawMission 0
scalar OsgEarthNet.uav[41] utilizationEnergyOverdrawMaintenance 0
scalar OsgEarthNet.uav[41] utilizationCountMissions 34
scalar OsgEarthNet.uav[41] utilizationCountManeuversMission 537
scalar OsgEarthNet.uav[41] utilizationCountManeuversMaintenance 68
scalar OsgEarthNet.uav[41] utilizationCountChargeState 34
scalar OsgEarthNet.uav[41] utilizationCountOverdrawnAfterMission 0
scalar OsgEarthNet.uav[41] utilizationCountIdleState 35
scalar OsgEarthNet.uav[41] utilizationFail 0
scalar OsgEarthNet.uav[41] simulationTime 259200
scalar OsgEarthNet.uav[42] utilizationSecMission 43686.825743452
scalar OsgEarthNet.uav[42] utilizationSecMaintenance 18158.765920915
scalar OsgEarthNet.uav[42] utilizationSecCharge 197212.40733563
scalar OsgEarthNet.uav[42] utilizationSecIdle 142
scalar OsgEarthNet.uav[42] utilizationEnergyMission 209695.77902343
scalar OsgEarthNet.uav[42] utilizationEnergyMaintenance 84278.517272949
scalar OsgEarthNet.uav[42] utilizationEnergyCharge 289935.91845703
scalar OsgEarthNet.uav[42] utilizationEnergyOverdrawMission 0
scalar OsgEarthNet.uav[42] utilizationEnergyOverdrawMaintenance 0
scalar OsgEarthNet.uav[42] utilizationCountMissions 64
scalar OsgEarthNet.uav[42] utilizationCountManeuversMission 1236
scalar OsgEarthNet.uav[42] utilizationCountManeuversMaintenance 127
scalar OsgEarthNet.uav[42] utilizationCountChargeState 64
scalar OsgEarthNet.uav[42] utilizationCountOverdrawnAfterMission 0
scalar OsgEarthNet.uav[42] utilizationCountIdleState 3
scalar OsgEarthNet.uav[42] utilizationFail 0
scalar OsgEarthNet.uav[42] simulationTime 259200
scalar OsgEarthNet.uav[43] utilizationSecMission 42222.41575128
scalar OsgEarthNet.uav[43] utilizationSecMaintenance 18697.619004816
scalar OsgEarthNet.uav[43] utilizationSecCharge 194687.61377058
scalar OsgEarthNet.uav[43] utilizationSecIdle 3592.3504733236
scalar OsgEarthNet.uav[43] utilizationEnergyMission 206458.24909592
scalar OsgEarthNet.uav[43] utilizationEnergyMaintenance 86156.933208466
scalar OsgEarthNet.uav[43] utilizationEnergyCharge 288882.47570801
scalar OsgEarthNet.uav[43] utilizationEnergyOverdrawMission 0
scalar OsgEarthNet.uav[43] utilizationEnergyOverdrawMaintenance 0
scalar OsgEarthNet.uav[43] utilizationCountMissions 64
scalar OsgEarthNet.uav[43] utilizationCountManeuversMission 1307
scalar OsgEarthNet.uav[43] utilizationCountManeuversMaintenance 128
scalar OsgEarthNet.uav[43] utilizationCountChargeState 64
scalar OsgEarthNet.uav[43] utilizationCountOverdrawnAfterMission 0
scalar OsgEarthNet.uav[43] utilizationCountIdleState 2
scalar OsgEarthNet.uav[43] utilizationFail 0
scalar OsgEarthNet.uav[43] simulationTime 259200
scalar OsgEarthNet.uav[44] utilizationSecMission 20335.085507397
scalar OsgEarthNet.uav[44] utilizationSecMaintenance 12743.306386237
scalar OsgEarthNet.uav[44] utilizationSecCharge 125320
scalar OsgEarthNet.uav[44] utilizationSecIdle 100801.60710637
scalar OsgEarthNet.uav[44] utilizationEnergyMission 100238.68688583
scalar OsgEarthNet.uav[44] utilizationEnergyMaintenance 59992.072395325
scalar OsgEarthNet.uav[44] utilizationEnergyCharge 157554.88989258
scalar OsgEarthNet.uav[44] utilizationEnergyOverdrawMission 0
scalar OsgEarthNet.uav[44] utilizationEnergyOverdrawMaintenance 0
scalar OsgEarthNet.uav[44] utilizationCountMissions 38
scalar OsgEarthNet.uav[44] utilizationCountManeuversMission 653
scalar OsgEarthNet.uav[44] utilizationCountManeuversMaintenance 76
scalar OsgEarthNet.uav[44] utilizationCountChargeState 38
scalar OsgEarthNet.uav[44] utilizationCountOverdrawnAfterMission 0
scalar OsgEarthNet.uav[44] utilizationCountIdleState 39
scalar OsgEarthNet.uav[44] utilizationFail 0
scalar OsgEarthNet.uav[44] simulationTime 259200
scalar OsgEarthNet.uav[45] utilizationSecMission 42062.365319193
scalar OsgEarthNet.uav[45] utilizationSecMaintenance 18978.208333516
scalar OsgEarthNet.uav[45] utilizationSecCharge 196720
scalar OsgEarthNet.uav[45] utilizationSecIdle 1439.4253472904
scalar OsgEarthNet.uav[45] utilizationEnergyMission 200596.61305817
scalar OsgEarthNet.uav[45] utilizationEnergyMaintenance 87389.589538574
scalar OsgEarthNet.uav[45] utilizationEnergyCharge 291305.14599609
scalar OsgEarthNet.uav[45] utilizationEnergyOverdrawMission 0
scalar OsgEarthNet.uav[45] utilizationEnergyOverdrawMaintenance 0
scalar OsgEarthNet.uav[45] utilizationCountMissions 64
scalar OsgEarthNet.uav[45] utilizationCountManeuversMission 1238
scalar OsgEarthNet.uav[45] utilizationCountManeuversMaintenance 129
scalar OsgEarthNet.uav[45] utilizationCountChargeState 64
scalar OsgEarthNet.uav[45] utilizationCountOverdrawnAfterMission 0
scalar OsgEarthNet.uav[45] utilizationCountIdleState 1
scalar OsgEarthNet.uav[45] utilizationFail 0
scalar OsgEarthNet.uav[45] simulationTime 259200
scalar OsgEarthNet.uav[46] utilizationSecMission 17838.385022294
scalar OsgEarthNet.uav[46] utilizationSecMaintenance 10443.867270296
scalar OsgEarthNet.uav[46] utilizationSecCharge 102974.98074207
scalar OsgEarthNet.uav[46] utilizationSecIdle 127942.76596534
scalar OsgEarthNet.uav[46] utilizationEnergyMission 86256.418159485
scalar OsgEarthNet.uav[46] utilizationEnergyMaintenance 48986.29945755
scalar OsgEarthNet.uav[46] utilizationEnergyCharge 133269.43261719
scalar OsgEarthNet.uav[46] utilizationEnergyOverdrawMission 0
scalar OsgEarthNet.uav[46] utilizationEnergyOverdrawMaintenance 0
scalar OsgEarthNet.uav[46] utilizationCountMissions 30
scalar OsgEarthNet.uav[46] utilizationCountManeuversMission 549
scalar OsgEarthNet.uav[46] utilizationCountManeuversMaintenance 60
scalar OsgEarthNet.uav[46] utilizationCountChargeState 30
scalar OsgEarthNet.uav[46] utilizationCountOverdrawnAfterMission 0
scalar OsgEarthNet.uav[46] utilizationCountIdleState 30
scalar OsgEarthNet.uav[46] utilizationFail 0
scalar OsgEarthNet.uav[46] simulationTime 259200
scalar OsgEarthNet.uav[47] utilizationSecMission 21442.78284985
scalar OsgEarthNet.uav[47] utilizationSecMaintenance 14406.092126011
scalar OsgEarthNet.uav[47] utilizationSecCharge 138819.12402414
scalar OsgEarthNet.uav[47] utilizationSecIdle 84532
scalar OsgEarthNet.uav[47] utilizationEnergyMission 105816.86738968
scalar OsgEarthNet.uav[47] utilizationEnergyMaintenance 68410.467563629
scalar OsgEarthNet.uav[47] utilizationEnergyCharge 173194.96826172
scalar OsgEarthNet.uav[47] utilizationEnergyOverdrawMission 0
scalar OsgEarthNet.uav[47] utilizationEnergyOverdrawMaintenance 0
scalar OsgEarthNet.uav[47] utilizationCountMissions 43
scalar OsgEarthNet.uav[47] utilizationCountManeuversMission 719
scalar OsgEarthNet.uav[47] utilizationCountManeuversMaintenance 85
scalar OsgEarthNet.uav[47] utilizationCountChargeState 43
scalar OsgEarthNet.uav[47] utilizationCountOverdrawnAfterMission 0
scalar OsgEarthNet.uav[47] utilizationCountIdleState 43
scalar OsgEarthNet.uav[47] utilizationFail 0
scalar OsgEarthNet.uav[47] simulationTime 259200
scalar OsgEarthNet.uav[48] utilizationSecMission 43350.047574376
scalar OsgEarthNet.uav[48] utilizationSecMaintenance 18404.93260183
scalar OsgEarthNet.uav[48] utilizationSecCharge 195393.01582379
scalar OsgEarthNet.uav[48] utilizationSecIdle 2052.003
scalar OsgEarthNet.uav[48] utilizationEnergyMission 208577.99711609
scalar OsgEarthNet.uav[48] utilizationEnergyMaintenance 84198.567592621
scalar OsgEarthNet.uav[48] utilizationEnergyCharge 289363.35473633
scalar OsgEarthNet.uav[48] utilizationEnergyOverdrawMission 0
scalar OsgEarthNet.uav[48] utilizationEnergyOverdrawMaintenance 0
scalar OsgEarthNet.uav[48] utilizationCountMissions 64
scalar OsgEarthNet.uav[48] utilizationCountManeuversMission 1343
scalar OsgEarthNet.uav[48] utilizationCountManeuversMaintenance 128
scalar OsgEarthNet.uav[48] utilizationCountChargeState 64
scalar OsgEarthNet.uav[48] utilizationCountOverdrawnAfterMission 0
scalar OsgEarthNet.uav[48] utilizationCountIdleState 2
scalar OsgEarthNet.uav[48] utilizationFail 0
scalar OsgEarthNet.uav[48] simulationTime 259200
scalar OsgEarthNet.uav[49] utilizationSecMission 17975.368334472
scalar OsgEarthNet.uav[49] utilizationSecMaintenance 12781.929874702
scalar OsgEarthNet.uav[49] utilizationSecCharge 114810.69679083
scalar OsgEarthNet.uav[49] utilizationSecIdle 113632.004
scalar OsgEarthNet.uav[49] utilizationEnergyMission 92272.170951843
scalar OsgEarthNet.uav[49] utilizationEnergyMaintenance 60352.405326843
scalar OsgEarthNet.uav[49] utilizationEnergyCharge 148737.66943359
scalar OsgEarthNet.uav[49] utilizationEnergyOverdrawMission 0
scalar OsgEarthNet.uav[49] utilizationEnergyOverdrawMaintenance 0
scalar OsgEarthNet.uav[49] utilizationCountMissions 33
scalar OsgEarthNet.uav[49] utilizationCountManeuversMission 669
scalar OsgEarthNet.uav[49] utilizationCountManeuversMaintenance 66
scalar OsgEarthNet.uav[49] utilizationCountChargeState 33
scalar OsgEarthNet.uav[49] utilizationCountOverdrawnAfterMission 0
scalar OsgEarthNet.uav[49] utilizationCountIdleState 33
scalar OsgEarthNet.uav[49] utilizationFail 0
scalar OsgEarthNet.uav[49] simulationTime 259200
scalar OsgEarthNet.uav[50] utilizationSecMission 16597.868944793
scalar OsgEarthNet.uav[50] utilizationSecMaintenance 9655.1564955697
scalar OsgEarthNet.uav[50] utilizationSecCharge 98820
scalar OsgEarthNet.uav[50] utilizationSecIdle 134126.97355964
scalar OsgEarthNet.uav[50] utilizationEnergyMission 80026.977272034
scalar OsgEarthNet.uav[50] utilizationEnergyMaintenance 45516.60477829
scalar OsgEarthNet.uav[50] utilizationEnergyCharge 127423.54394531
scalar OsgEarthNet.uav[50] utilizationEnergyOverdrawMission 0
scalar OsgEarthNet.uav[50] utilizationEnergyOverdrawMaintenance 0
scalar OsgEarthNet.uav[50] utilizationCountMissions 28
scalar OsgEarthNet.uav[50] utilizationCountManeuversMission 496
scalar OsgEarthNet.uav[50] utilizationCountManeuversMaintenance 56
scalar OsgEarthNet.uav[50] utilizationCountChargeState 28
scalar OsgEarthNet.uav[50] utilizationCountOverdrawnAfterMission 0
scalar OsgEarthNet.uav[50] utilizationCountIdleState 29
scalar OsgEarthNet.uav[50] utilizationFail 0
scalar OsgEarthNet.uav[50] simulationTime 259200
scalar OsgEarthNet.uav[51] utilizationSecMission 20555.085507397
scalar OsgEarthNet.uav[51] utilizationSecMaintenance 13176.911666373
scalar OsgEarthNet.uav[51] utilizationSecCharge 129200
scalar OsgEarthNet.uav[51] utilizationSecIdle 96268.00182623
scalar OsgEarthNet.uav[51] utilizationEnergyMission 100936.11885452
scalar OsgEarthNet.uav[51] utilizationEnergyMaintenance 62443.623202783
scalar OsgEarthNet.uav[51] utilizationEnergyCharge 162348.47216797
scalar OsgEarthNet.uav[51] utilizationEnergyOverdrawMission 0
scalar OsgEarthNet.uav[51] utilizationEnergyOverdrawMaintenance 0
scalar OsgEarthNet.uav[51] utilizationCountMissions 39
scalar OsgEarthNet.uav[51] utilizationCountManeuversMission 664
scalar OsgEarthNet.uav[51] utilizationCountManeuversMaintenance 79
scalar OsgEarthNet.uav[51] utilizationCountChargeState 39
scalar OsgEarthNet.uav[51] utilizationCountOverdrawnAfterMission 0
scalar OsgEarthNet.uav[51] utilizationCountIdleState 40
scalar OsgEarthNet.uav[51] utilizationFail 0
scalar OsgEarthNet.uav[51] simulationTime 259200
scalar OsgEarthNet.uav[52] utilizationSecMission 43666.439078869
scalar OsgEarthNet.uav[52] utilizationSecMaintenance 17516.022260021
scalar OsgEarthNet.uav[52] utilizationSecCharge 195805.53366111
scalar OsgEarthNet.uav[52] utilizationSecIdle 2212.004
scalar OsgEarthNet.uav[52] utilizationEnergyMission 207142.30853271
scalar OsgEarthNet.uav[52] utilizationEnergyMaintenance 81610.949878693
scalar OsgEarthNet.uav[52] utilizationEnergyCharge 286383.63763428
scalar OsgEarthNet.uav[52] utilizationEnergyOverdrawMission 0
scalar OsgEarthNet.uav[52] utilizationEnergyOverdrawMaintenance 0
scalar OsgEarthNet.uav[52] utilizationCountMissions 63
scalar OsgEarthNet.uav[52] utilizationCountManeuversMission 1133
scalar OsgEarthNet.uav[52] utilizationCountManeuversMaintenance 126
scalar OsgEarthNet.uav[52] utilizationCountChargeState 63
scalar OsgEarthNet.uav[52] utilizationCountOverdrawnAfterMission 0
scalar OsgEarthNet.uav[52] utilizationCountIdleState 2
scalar OsgEarthNet.uav[52] utilizationFail 0
scalar OsgEarthNet.uav[52] simulationTime 259200
scalar OsgEarthNet.uav[53] utilizationSecMission 18067.610906043
scalar OsgEarthNet.uav[53] utilizationSecMaintenance 10893.176353908
scalar OsgEarthNet.uav[53] utilizationSecCharge 107357.20574005
scalar OsgEarthNet.uav[53] utilizationSecIdle 122882.006
scalar OsgEarthNet.uav[53] utilizationEnergyMission 87309.499885559
scalar OsgEarthNet.uav[53] utilizationEnergyMaintenance 51684.265216827
scalar OsgEarthNet.uav[53] utilizationEnergyCharge 139270.10595703
scalar OsgEarthNet.uav[53] utilizationEnergyOverdrawMission 0
scalar OsgEarthNet.uav[53] utilizationEnergyOverdrawMaintenance 0
scalar OsgEarthNet.uav[53] utilizationCountMissions 31
scalar OsgEarthNet.uav[53] utilizationCountManeuversMission 574
scalar OsgEarthNet.uav[53] utilizationCountManeuversMaintenance 62
scalar OsgEarthNet.uav[53] utilizationCountChargeState 31
scalar OsgEarthNet.uav[53] utilizationCountOverdrawnAfterMission 0
scalar OsgEarthNet.uav[53] utilizationCountIdleState 31
scalar OsgEarthNet.uav[53] utilizationFail 0
scalar OsgEarthNet.uav[53] simulationTime 259200
scalar OsgEarthNet.uav[54] utilizationSecMission 19466.242012886
scalar OsgEarthNet.uav[54] utilizationSecMaintenance 13073.312775614
scalar OsgEarthNet.uav[54] utilizationSecCharge 126180
scalar OsgEarthNet.uav[54] utilizationSecIdle 100480.4442115
scalar OsgEarthNet.uav[54] utilizationEnergyMission 96042.361343384
scalar OsgEarthNet.uav[54] utilizationEnergyMaintenance 62572.31016922
scalar OsgEarthNet.uav[54] utilizationEnergyCharge 159002.37524414
scalar OsgEarthNet.uav[54] utilizationEnergyOverdrawMission 0
scalar OsgEarthNet.uav[54] utilizationEnergyOverdrawMaintenance 0
scalar OsgEarthNet.uav[54] utilizationCountMissions 38
scalar OsgEarthNet.uav[54] utilizationCountManeuversMission 676
scalar OsgEarthNet.uav[54] utilizationCountManeuversMaintenance 76
scalar OsgEarthNet.uav[54] utilizationCountChargeState 38
scalar OsgEarthNet.uav[54] utilizationCountOverdrawnAfterMission 0
scalar OsgEarthNet.uav[54] utilizationCountIdleState 39
scalar OsgEarthNet.uav[54] utilizationFail 0
scalar OsgEarthNet.uav[54] simulationTime 259200
scalar OsgEarthNet.uav[55] utilizationSecMission 42045.242492956
scalar OsgEarthNet.uav[55] utilizationSecMaintenance 19635.431152081
scalar OsgEarthNet.uav[55] utilizationSecCharge 197467.32535496
scalar OsgEarthNet.uav[55] utilizationSecIdle 52
scalar OsgEarthNet.uav[55] utilizationEnergyMission 203971.19495773
scalar OsgEarthNet.uav[55] utilizationEnergyMaintenance 90419.924537659
scalar OsgEarthNet.uav[55] utilizationEnergyCharge 293851.72998047
scalar OsgEarthNet.uav[55] utilizationEnergyOverdrawMission 0
scalar OsgEarthNet.uav[55] utilizationEnergyOverdrawMaintenance 0
scalar OsgEarthNet.uav[55] utilizationCountMissions 65
scalar OsgEarthNet.uav[55] utilizationCountManeuversMission 1306
scalar OsgEarthNet.uav[55] utilizationCountManeuversMaintenance 130
scalar OsgEarthNet.uav[55] utilizationCountChargeState 65
scalar OsgEarthNet.uav[55] utilizationCountOverdrawnAfterMission 0
scalar OsgEarthNet.uav[55] utilizationCountIdleState 2
scalar OsgEarthNet.uav[55] utilizationFail 0
scalar OsgEarthNet.uav[55] simulationTime 259200
scalar OsgEarthNet.uav[56] utilizationSecMission 19099.010174875
scalar OsgEarthNet.uav[56] utilizationSecMaintenance 11161.821208708
scalar OsgEarthNet.uav[56] utilizationSecCharge 109697.15061642
scalar OsgEarthNet.uav[56] utilizationSecIdle 119242.017
scalar OsgEarthNet.uav[56] utilizationEnergyMission 92309.656299591
scalar OsgEarthNet.uav[56] utilizationEnergyMaintenance 52844.98928833
scalar OsgEarthNet.uav[56] utilizationEnergyCharge 141822.0637207
scalar OsgEarthNet.uav[56] utilizationEnergyOverdrawMission 0
scalar OsgEarthNet.uav[56] utilizationEnergyOverdrawMaintenance 0
scalar OsgEarthNet.uav[56] utilizationCountMissions 32
scalar OsgEarthNet.uav[56] utilizationCountManeuversMission 586
scalar OsgEarthNet.uav[56] utilizationCountManeuversMaintenance 64
scalar OsgEarthNet.uav[56] utilizationCountChargeState 32
scalar OsgEarthNet.uav[56] utilizationCountOverdrawnAfterMission 0
scalar OsgEarthNet.uav[56] utilizationCountIdleState 32
scalar OsgEarthNet.uav[56] utilizationFail 0
scalar OsgEarthNet.uav[56] simulationTime 259200
scalar OsgEarthNet.uav[57] utilizationSecMission 24089.396644253
scalar OsgEarthNet.uav[57] utilizationSecMaintenance 16358.602355747
scalar OsgEarthNet.uav[57] utilizationSecCharge 154240
scalar OsgEarthNet.uav[57] utilizationSecIdle 64512
scalar OsgEarthNet.uav[57] utilizationEnergyMission 118785.57235336
scalar OsgEarthNet.uav[57] utilizationEnergyMaintenance 77521.907569734
scalar OsgEarthNet.uav[57] utilizationEnergyCharge 193478.82373047
scalar OsgEarthNet.uav[57] utilizationEnergyOverdrawMission 0
scalar OsgEarthNet.uav[57] utilizationEnergyOverdrawMaintenance 0
scalar OsgEarthNet.uav[57] utilizationCountMissions 48
scalar OsgEarthNet.uav[57] utilizationCountManeuversMission 862
scalar OsgEarthNet.uav[57] utilizationCountManeuversMaintenance 96
scalar OsgEarthNet.uav[57] utilizationCountChargeState 47
scalar OsgEarthNet.uav[57] utilizationCountOverdrawnAfterMission 0
scalar OsgEarthNet.uav[57] utilizationCountIdleState 48
scalar OsgEarthNet.uav[57] utilizationFail 0
scalar OsgEarthNet.uav[57] simulationTime 259200
scalar OsgEarthNet.uav[58] utilizationSecMission 43699.682175842
scalar OsgEarthNet.uav[58] utilizationSecMaintenance 17671.141713747
scalar OsgEarthNet.uav[58] utilizationSecCharge 196850
scalar OsgEarthNet.uav[58] utilizationSecIdle 979.17511041073
scalar OsgEarthNet.uav[58] utilizationEnergyMission 210969.06678313
scalar OsgEarthNet.uav[58] utilizationEnergyMaintenance 81338.506900787
scalar OsgEarthNet.uav[58] utilizationEnergyCharge 288892.88378906
scalar OsgEarthNet.uav[58] utilizationEnergyOverdrawMission 0
scalar OsgEarthNet.uav[58] utilizationEnergyOverdrawMaintenance 0
scalar OsgEarthNet.uav[58] utilizationCountMissions 63
scalar OsgEarthNet.uav[58] utilizationCountManeuversMission 1274
scalar OsgEarthNet.uav[58] utilizationCountManeuversMaintenance 127
scalar OsgEarthNet.uav[58] utilizationCountChargeState 63
scalar OsgEarthNet.uav[58] utilizationCountOverdrawnAfterMission 0
scalar OsgEarthNet.uav[58] utilizationCountIdleState 3
scalar OsgEarthNet.uav[58] utilizationFail 0
scalar OsgEarthNet.uav[58] simulationTime 259200
scalar OsgEarthNet.uav[59] utilizationSecMission 18596.509564553
scalar OsgEarthNet.uav[59] utilizationSecMaintenance 13083.666729261
scalar OsgEarthNet.uav[59] utilizationSecCharge 116817.81770619
scalar OsgEarthNet.uav[59] utilizationSecIdle 110702.005
scalar OsgEarthNet.uav[59] utilizationEnergyMission 91398.982204437
scalar OsgEarthNet.uav[59] utilizationEnergyMaintenance 62136.833255768
scalar OsgEarthNet.uav[59] utilizationEnergyCharge 151338.62805176
scalar OsgEarthNet.uav[59] utilizationEnergyOverdrawMission 0
scalar OsgEarthNet.uav[59] utilizationEnergyOverdrawMaintenance 0
scalar OsgEarthNet.uav[59] utilizationCountMissions 34
scalar OsgEarthNet.uav[59] utilizationCountManeuversMission 665
scalar OsgEarthNet.uav[59] utilizationCountManeuversMaintenance 68
scalar OsgEarthNet.uav[59] utilizationCountChargeState 34
scalar OsgEarthNet.uav[59] utilizationCountOverdrawnAfterMission 0
scalar OsgEarthNet.uav[59] utilizationCountIdleState 34
scalar OsgEarthNet.uav[59] utilizationFail 0
scalar OsgEarthNet.uav[59] simulationTime 259200
scalar OsgEarthNet.uav[60] utilizationSecMission 16275.993487052
scalar OsgEarthNet.uav[60] utilizationSecMaintenance 10961.990512948
scalar OsgEarthNet.uav[60] utilizationSecCharge 102020
scalar OsgEarthNet.uav[60] utilizationSecIdle 129942.015
scalar OsgEarthNet.uav[60] utilizationEnergyMission 79630.686988831
scalar OsgEarthNet.uav[60] utilizationEnergyMaintenance 52593.336271922
scalar OsgEarthNet.uav[60] utilizationEnergyCharge 131589.52636719
scalar OsgEarthNet.uav[60] utilizationEnergyOverdrawMission 0
scalar OsgEarthNet.uav[60] utilizationEnergyOverdrawMaintenance 0
scalar OsgEarthNet.uav[60] utilizationCountMissions 29
scalar OsgEarthNet.uav[60] utilizationCountManeuversMission 558
scalar OsgEarthNet.uav[60] utilizationCountManeuversMaintenance 59
scalar OsgEarthNet.uav[60] utilizationCountChargeState 29
scalar OsgEarthNet.uav[60] utilizationCountOverdrawnAfterMission 0
scalar OsgEarthNet.uav[60] utilizationCountIdleState 30
scalar OsgEarthNet.uav[60] utilizationFail 0
scalar OsgEarthNet.uav[60] simulationTime 259200
scalar OsgEarthNet.uav[61] utilizationSecMission 21726.448812749
scalar OsgEarthNet.uav[61] utilizationSecMaintenance 15097.862655013
scalar OsgEarthNet.uav[61] utilizationSecCharge 143670
scalar OsgEarthNet.uav[61] utilizationSecIdle 78705.687532238
scalar OsgEarthNet.uav[61] utilizationEnergyMission 108411.21544266
scalar OsgEarthNet.uav[61] utilizationEnergyMaintenance 71406.830154419
scalar OsgEarthNet.uav[61] utilizationEnergyCharge 179719.30200195
scalar OsgEarthNet.uav[61] utilizationEnergyOverdrawMission 0
scalar OsgEarthNet.uav[61] utilizationEnergyOverdrawMaintenance 0
scalar OsgEarthNet.uav[61] utilizationCountMissions 44
scalar OsgEarthNet.uav[61] utilizationCountManeuversMission 766
scalar OsgEarthNet.uav[61] utilizationCountManeuversMaintenance 88
scalar OsgEarthNet.uav[61] utilizationCountChargeState 44
scalar OsgEarthNet.uav[61] utilizationCountOverdrawnAfterMission 0
scalar OsgEarthNet.uav[61] utilizationCountIdleState 45
scalar OsgEarthNet.uav[61] utilizationFail 0
scalar OsgEarthNet.uav[61] simulationTime 259200
scalar OsgEarthNet.uav[62] utilizationSecMission 43239.695714069
scalar OsgEarthNet.uav[62] utilizationSecMaintenance 17958.717265925
scalar OsgEarthNet.uav[62] utilizationSecCharge 196699.58402001
scalar OsgEarthNet.uav[62] utilizationSecIdle 1302.002
scalar OsgEarthNet.uav[62] utilizationEnergyMission 210354.57255173
scalar OsgEarthNet.uav[62] utilizationEnergyMaintenance 82216.185688019
scalar OsgEarthNet.uav[62] utilizationEnergyCharge 289293.265625
scalar OsgEarthNet.uav[62] utilizationEnergyOverdrawMission 0
scalar OsgEarthNet.uav[62] utilizationEnergyOverdrawMaintenance 0
scalar OsgEarthNet.uav[62] utilizationCountMissions 63
scalar OsgEarthNet.uav[62] utilizationCountManeuversMission 1273
scalar OsgEarthNet.uav[62] utilizationCountManeuversMaintenance 126
scalar OsgEarthNet.uav[62] utilizationCountChargeState 63
scalar OsgEarthNet.uav[62] utilizationCountOverdrawnAfterMission 0
scalar OsgEarthNet.uav[62] utilizationCountIdleState 3
scalar OsgEarthNet.uav[62] utilizationFail 0
scalar OsgEarthNet.uav[62] simulationTime 259200
scalar OsgEarthNet.uav[63] utilizationSecMission 15705.626373223
scalar OsgEarthNet.uav[63] utilizationSecMaintenance 10424.343239269
scalar OsgEarthNet.uav[63] utilizationSecCharge 97820
scalar OsgEarthNet.uav[63] utilizationSecIdle 135250.02938751
scalar OsgEarthNet.uav[63] utilizationEnergyMission 77110.677192688
scalar OsgEarthNet.uav[63] utilizationEnergyMaintenance 50104.472957611
scalar OsgEarthNet.uav[63] utilizationEnergyCharge 125589.5859375
scalar OsgEarthNet.uav[63] utilizationEnergyOverdrawMission 0
scalar OsgEarthNet.uav[63] utilizationEnergyOverdrawMaintenance 0
scalar OsgEarthNet.uav[63] utilizationCountMissions 28
scalar OsgEarthNet.uav[63] utilizationCountManeuversMission 551
scalar OsgEarthNet.uav[63] utilizationCountManeuversMaintenance 56
scalar OsgEarthNet.uav[63] utilizationCountChargeState 28
scalar OsgEarthNet.uav[63] utilizationCountOverdrawnAfterMission 0
scalar OsgEarthNet.uav[63] utilizationCountIdleState 29
scalar OsgEarthNet.uav[63] utilizationFail 0
scalar OsgEarthNet.uav[63] simulationTime 259200
scalar OsgEarthNet.uav[64] utilizationSecMission 22028.901373743
scalar OsgEarthNet.uav[64] utilizationSecMaintenance 15116.98060843
scalar OsgEarthNet.uav[64] utilizationSecCharge 144032.11201783
scalar OsgEarthNet.uav[64] utilizationSecIdle 78022.005
scalar OsgEarthNet.uav[64] utilizationEnergyMission 107797.63409042
scalar OsgEarthNet.uav[64] utilizationEnergyMaintenance 70818.930854797
scalar OsgEarthNet.uav[64] utilizationEnergyCharge 177939.67382812
scalar OsgEarthNet.uav[64] utilizationEnergyOverdrawMission 0
scalar OsgEarthNet.uav[64] utilizationEnergyOverdrawMaintenance 0
scalar OsgEarthNet.uav[64] utilizationCountMissions 46
scalar OsgEarthNet.uav[64] utilizationCountManeuversMission 684
scalar OsgEarthNet.uav[64] utilizationCountManeuversMaintenance 92
scalar OsgEarthNet.uav[64] utilizationCountChargeState 46
scalar OsgEarthNet.uav[64] utilizationCountOverdrawnAfterMission 0
scalar OsgEarthNet.uav[64] utilizationCountIdleState 46
scalar OsgEarthNet.uav[64] utilizationFail 0
scalar OsgEarthNet.uav[64] simulationTime 259200
scalar OsgEarthNet.uav[65] utilizationSecMission 42130.931499372
scalar OsgEarthNet.uav[65] utilizationSecMaintenance 19567.533593157
scalar OsgEarthNet.uav[65] utilizationSecCharge 197479.53390747
scalar OsgEarthNet.uav[65] utilizationSecIdle 22
[...]
scalar OsgEarthNet.uav[73] utilizationCountMissions 31
scalar OsgEarthNet.uav[73] utilizationCountManeuversMission 620
scalar OsgEarthNet.uav[73] utilizationCountManeuversMaintenance 62
scalar OsgEarthNet.uav[73] utilizationCountChargeState 31
scalar OsgEarthNet.uav[73] utilizationCountOverdrawnAfterMission 0
scalar OsgEarthNet.uav[73] utilizationCountIdleState 32
scalar OsgEarthNet.uav[73] utilizationFail 0
scalar OsgEarthNet.uav[73] simulationTime 259200
scalar OsgEarthNet.uav[74] utilizationSecMission 23658.446938626
scalar OsgEarthNet.uav[74] utilizationSecMaintenance 15924.178129254
scalar OsgEarthNet.uav[74] utilizationSecCharge 150852.7620426
scalar OsgEarthNet.uav[74] utilizationSecIdle 68764.611889516
scalar OsgEarthNet.uav[74] utilizationEnergyMission 114921.10902405
scalar OsgEarthNet.uav[74] utilizationEnergyMaintenance 75318.570049286
scalar OsgEarthNet.uav[74] utilizationEnergyCharge 187523.33996582
scalar OsgEarthNet.uav[74] utilizationEnergyOverdrawMission 0
scalar OsgEarthNet.uav[74] utilizationEnergyOverdrawMaintenance 0
scalar OsgEarthNet.uav[74] utilizationCountMissions 48
scalar OsgEarthNet.uav[74] utilizationCountManeuversMission 751
scalar OsgEarthNet.uav[74] utilizationCountManeuversMaintenance 96
scalar OsgEarthNet.uav[74] utilizationCountChargeState 48
scalar OsgEarthNet.uav[74] utilizationCountOverdrawnAfterMission 0
scalar OsgEarthNet.uav[74] utilizationCountIdleState 48
scalar OsgEarthNet.uav[74] utilizationFail 0
scalar OsgEarthNet.uav[74] simulationTime 259200
scalar OsgEarthNet.uav[75] utilizationSecMission 44383.678723438
scalar OsgEarthNet.uav[75] utilizationSecMaintenance 17207.026586825
scalar OsgEarthNet.uav[75] utilizationSecCharge 195967.84073102
scalar OsgEarthNet.uav[75] utilizationSecIdle 1641.4529587171
scalar OsgEarthNet.uav[75] utilizationEnergyMission 211481.63865662
scalar OsgEarthNet.uav[75] utilizationEnergyMaintenance 79506.2293396
scalar OsgEarthNet.uav[75] utilizationEnergyCharge 288171.1965332
scalar OsgEarthNet.uav[75] utilizationEnergyOverdrawMission 0
scalar OsgEarthNet.uav[75] utilizationEnergyOverdrawMaintenance 0
scalar OsgEarthNet.uav[75] utilizationCountMissions 63
scalar OsgEarthNet.uav[75] utilizationCountManeuversMission 1180
scalar OsgEarthNet.uav[75] utilizationCountManeuversMaintenance 126
scalar OsgEarthNet.uav[75] utilizationCountChargeState 63
scalar OsgEarthNet.uav[75] utilizationCountOverdrawnAfterMission 0
scalar OsgEarthNet.uav[75] utilizationCountIdleState 3
scalar OsgEarthNet.uav[75] utilizationFail 0
scalar OsgEarthNet.uav[75] simulationTime 259200
scalar OsgEarthNet.uav[76] utilizationSecMission 19698.385022294
scalar OsgEarthNet.uav[76] utilizationSecMaintenance 12310.930179121
scalar OsgEarthNet.uav[76] utilizationSecCharge 116318.67179858
scalar OsgEarthNet.uav[76] utilizationSecIdle 110872.012
scalar OsgEarthNet.uav[76] utilizationEnergyMission 96173.11164093
scalar OsgEarthNet.uav[76] utilizationEnergyMaintenance 58758.782066345
scalar OsgEarthNet.uav[76] utilizationEnergyCharge 150435.10888672
scalar OsgEarthNet.uav[76] utilizationEnergyOverdrawMission 0
scalar OsgEarthNet.uav[76] utilizationEnergyOverdrawMaintenance 0
scalar OsgEarthNet.uav[76] utilizationCountMissions 34
scalar OsgEarthNet.uav[76] utilizationCountManeuversMission 642
scalar OsgEarthNet.uav[76] utilizationCountManeuversMaintenance 68
scalar OsgEarthNet.uav[76] utilizationCountChargeState 34
scalar OsgEarthNet.uav[76] utilizationCountOverdrawnAfterMission 0
scalar OsgEarthNet.uav[76] utilizationCountIdleState 34
scalar OsgEarthNet.uav[76] utilizationFail 0
scalar OsgEarthNet.uav[76] simulationTime 259200
scalar OsgEarthNet.uav[77] utilizationSecMission 22219.355808861
scalar OsgEarthNet.uav[77] utilizationSecMaintenance 15506.34484604
scalar OsgEarthNet.uav[77] utilizationSecCharge 146907.86908388
scalar OsgEarthNet.uav[77] utilizationSecIdle 74566.429261223
scalar OsgEarthNet.uav[77] utilizationEnergyMission 107308.32005692
scalar OsgEarthNet.uav[77] utilizationEnergyMaintenance 74351.746112823
scalar OsgEarthNet.uav[77] utilizationEnergyCharge 182084.55151367
scalar OsgEarthNet.uav[77] utilizationEnergyOverdrawMission 0
scalar OsgEarthNet.uav[77] utilizationEnergyOverdrawMaintenance 0
scalar OsgEarthNet.uav[77] utilizationCountMissions 47
scalar OsgEarthNet.uav[77] utilizationCountManeuversMission 708
scalar OsgEarthNet.uav[77] utilizationCountManeuversMaintenance 94
scalar OsgEarthNet.uav[77] utilizationCountChargeState 47
scalar OsgEarthNet.uav[77] utilizationCountOverdrawnAfterMission 0
scalar OsgEarthNet.uav[77] utilizationCountIdleState 47
scalar OsgEarthNet.uav[77] utilizationFail 0
scalar OsgEarthNet.uav[77] simulationTime 259200
scalar OsgEarthNet.uav[78] utilizationSecMission 42984.82738385
scalar OsgEarthNet.uav[78] utilizationSecMaintenance 18906.98903853
scalar OsgEarthNet.uav[78] utilizationSecCharge 196508.9629637
scalar OsgEarthNet.uav[78] utilizationSecIdle 799.21961391566
scalar OsgEarthNet.uav[78] utilizationEnergyMission 206199.28775406
scalar OsgEarthNet.uav[78] utilizationEnergyMaintenance 87790.20199585
scalar OsgEarthNet.uav[78] utilizationEnergyCharge 292314.89599609
scalar OsgEarthNet.uav[78] utilizationEnergyOverdrawMission 0
scalar OsgEarthNet.uav[78] utilizationEnergyOverdrawMaintenance 0
scalar OsgEarthNet.uav[78] utilizationCountMissions 64
scalar OsgEarthNet.uav[78] utilizationCountManeuversMission 1246
scalar OsgEarthNet.uav[78] utilizationCountManeuversMaintenance 128
scalar OsgEarthNet.uav[78] utilizationCountChargeState 64
scalar OsgEarthNet.uav[78] utilizationCountOverdrawnAfterMission 0
scalar OsgEarthNet.uav[78] utilizationCountIdleState 3
scalar OsgEarthNet.uav[78] utilizationFail 0
scalar OsgEarthNet.uav[78] simulationTime 259200
scalar OsgEarthNet.uav[79] utilizationSecMission 18388.126983544
scalar OsgEarthNet.uav[79] utilizationSecMaintenance 10924.390996903
scalar OsgEarthNet.uav[79] utilizationSecCharge 108042.21044544
scalar OsgEarthNet.uav[79] utilizationSecIdle 121845.27057412
scalar OsgEarthNet.uav[79] utilizationEnergyMission 89256.221450806
scalar OsgEarthNet.uav[79] utilizationEnergyMaintenance 51559.463287353
scalar OsgEarthNet.uav[79] utilizationEnergyCharge 139815.95214844
scalar OsgEarthNet.uav[79] utilizationEnergyOverdrawMission 0
scalar OsgEarthNet.uav[79] utilizationEnergyOverdrawMaintenance 0
scalar OsgEarthNet.uav[79] utilizationCountMissions 31
scalar OsgEarthNet.uav[79] utilizationCountManeuversMission 581
scalar OsgEarthNet.uav[79] utilizationCountManeuversMaintenance 62
scalar OsgEarthNet.uav[79] utilizationCountChargeState 31
scalar OsgEarthNet.uav[79] utilizationCountOverdrawnAfterMission 0
scalar OsgEarthNet.uav[79] utilizationCountIdleState 31
scalar OsgEarthNet.uav[79] utilizationFail 0
scalar OsgEarthNet.uav[79] simulationTime 259200
scalar OsgEarthNet.uav[80] utilizationSecMission 19630.002441285
scalar OsgEarthNet.uav[80] utilizationSecMaintenance 10686.42217504
scalar OsgEarthNet.uav[80] utilizationSecCharge 112270
scalar OsgEarthNet.uav[80] utilizationSecIdle 116613.57438368
scalar OsgEarthNet.uav[80] utilizationEnergyMission 93230.762420654
scalar OsgEarthNet.uav[80] utilizationEnergyMaintenance 50414.845214844
scalar OsgEarthNet.uav[80] utilizationEnergyCharge 144650.82617188
scalar OsgEarthNet.uav[80] utilizationEnergyOverdrawMission 0
scalar OsgEarthNet.uav[80] utilizationEnergyOverdrawMaintenance 0
scalar OsgEarthNet.uav[80] utilizationCountMissions 32
scalar OsgEarthNet.uav[80] utilizationCountManeuversMission 565
scalar OsgEarthNet.uav[80] utilizationCountManeuversMaintenance 64
scalar OsgEarthNet.uav[80] utilizationCountChargeState 32
scalar OsgEarthNet.uav[80] utilizationCountOverdrawnAfterMission 0
scalar OsgEarthNet.uav[80] utilizationCountIdleState 33
scalar OsgEarthNet.uav[80] utilizationFail 0
scalar OsgEarthNet.uav[80] simulationTime 259200
scalar OsgEarthNet.uav[81] utilizationSecMission 21772.123254956
scalar OsgEarthNet.uav[81] utilizationSecMaintenance 16546.306191984
scalar OsgEarthNet.uav[81] utilizationSecCharge 149975.14129184
scalar OsgEarthNet.uav[81] utilizationSecIdle 70906.428261223
scalar OsgEarthNet.uav[81] utilizationEnergyMission 105812.13266373
scalar OsgEarthNet.uav[81] utilizationEnergyMaintenance 78671.506023407
scalar OsgEarthNet.uav[81] utilizationEnergyCharge 185435.67041016
scalar OsgEarthNet.uav[81] utilizationEnergyOverdrawMission 0
scalar OsgEarthNet.uav[81] utilizationEnergyOverdrawMaintenance 0
scalar OsgEarthNet.uav[81] utilizationCountMissions 48
scalar OsgEarthNet.uav[81] utilizationCountManeuversMission 833
scalar OsgEarthNet.uav[81] utilizationCountManeuversMaintenance 96
scalar OsgEarthNet.uav[81] utilizationCountChargeState 48
scalar OsgEarthNet.uav[81] utilizationCountOverdrawnAfterMission 0
scalar OsgEarthNet.uav[81] utilizationCountIdleState 48
scalar OsgEarthNet.uav[81] utilizationFail 0
scalar OsgEarthNet.uav[81] simulationTime 259200
scalar OsgEarthNet.uav[82] utilizationSecMission 43019.958532612
scalar OsgEarthNet.uav[82] utilizationSecMaintenance 18587.415490117
scalar OsgEarthNet.uav[82] utilizationSecCharge 194710.62097727
scalar OsgEarthNet.uav[82] utilizationSecIdle 2882.004
scalar OsgEarthNet.uav[82] utilizationEnergyMission 209594.64684677
scalar OsgEarthNet.uav[82] utilizationEnergyMaintenance 85704.325511932
scalar OsgEarthNet.uav[82] utilizationEnergyCharge 289064.22607422
scalar OsgEarthNet.uav[82] utilizationEnergyOverdrawMission 0
scalar OsgEarthNet.uav[82] utilizationEnergyOverdrawMaintenance 0
scalar OsgEarthNet.uav[82] utilizationCountMissions 64
scalar OsgEarthNet.uav[82] utilizationCountManeuversMission 1381
scalar OsgEarthNet.uav[82] utilizationCountManeuversMaintenance 128
scalar OsgEarthNet.uav[82] utilizationCountChargeState 64
scalar OsgEarthNet.uav[82] utilizationCountOverdrawnAfterMission 0
scalar OsgEarthNet.uav[82] utilizationCountIdleState 3
scalar OsgEarthNet.uav[82] utilizationFail 0
scalar OsgEarthNet.uav[82] simulationTime 259200
scalar OsgEarthNet.uav[83] utilizationSecMission 19008.752136124
scalar OsgEarthNet.uav[83] utilizationSecMaintenance 11117.57720704
scalar OsgEarthNet.uav[83] utilizationSecCharge 111690
scalar OsgEarthNet.uav[83] utilizationSecIdle 117383.66965684
scalar OsgEarthNet.uav[83] utilizationEnergyMission 91381.817951202
scalar OsgEarthNet.uav[83] utilizationEnergyMaintenance 52975.645061493
scalar OsgEarthNet.uav[83] utilizationEnergyCharge 143816.73388672
scalar OsgEarthNet.uav[83] utilizationEnergyOverdrawMission 0
scalar OsgEarthNet.uav[83] utilizationEnergyOverdrawMaintenance 0
scalar OsgEarthNet.uav[83] utilizationCountMissions 32
scalar OsgEarthNet.uav[83] utilizationCountManeuversMission 586
scalar OsgEarthNet.uav[83] utilizationCountManeuversMaintenance 64
scalar OsgEarthNet.uav[83] utilizationCountChargeState 32
scalar OsgEarthNet.uav[83] utilizationCountOverdrawnAfterMission 0
scalar OsgEarthNet.uav[83] utilizationCountIdleState 33
scalar OsgEarthNet.uav[83] utilizationFail 0
scalar OsgEarthNet.uav[83] simulationTime 259200
scalar OsgEarthNet.uav[84] utilizationSecMission 19754.369016088
scalar OsgEarthNet.uav[84] utilizationSecMaintenance 14916.654282775
scalar OsgEarthNet.uav[84] utilizationSecCharge 136182.54943991
scalar OsgEarthNet.uav[84] utilizationSecIdle 88346.426261223
scalar OsgEarthNet.uav[84] utilizationEnergyMission 96831.506282806
scalar OsgEarthNet.uav[84] utilizationEnergyMaintenance 71171.009120941
scalar OsgEarthNet.uav[84] utilizationEnergyCharge 166893.46582031
scalar OsgEarthNet.uav[84] utilizationEnergyOverdrawMission 0
scalar OsgEarthNet.uav[84] utilizationEnergyOverdrawMaintenance 0
scalar OsgEarthNet.uav[84] utilizationCountMissions 45
scalar OsgEarthNet.uav[84] utilizationCountManeuversMission 658
scalar OsgEarthNet.uav[84] utilizationCountManeuversMaintenance 90
scalar OsgEarthNet.uav[84] utilizationCountChargeState 45
scalar OsgEarthNet.uav[84] utilizationCountOverdrawnAfterMission 0
scalar OsgEarthNet.uav[84] utilizationCountIdleState 45
scalar OsgEarthNet.uav[84] utilizationFail 0
scalar OsgEarthNet.uav[84] simulationTime 259200
scalar OsgEarthNet.uav[85] utilizationSecMission 42054.610411456
scalar OsgEarthNet.uav[85] utilizationSecMaintenance 18847.160851779
scalar OsgEarthNet.uav[85] utilizationSecCharge 196102.77208336
scalar OsgEarthNet.uav[85] utilizationSecIdle 2195.4556534032
scalar OsgEarthNet.uav[85] utilizationEnergyMission 204486.49588776
scalar OsgEarthNet.uav[85] utilizationEnergyMaintenance 86370.212867737
scalar OsgEarthNet.uav[85] utilizationEnergyCharge 290655.43041992
scalar OsgEarthNet.uav[85] utilizationEnergyOverdrawMission 0
scalar OsgEarthNet.uav[85] utilizationEnergyOverdrawMaintenance 0
scalar OsgEarthNet.uav[85] utilizationCountMissions 64
scalar OsgEarthNet.uav[85] utilizationCountManeuversMission 1291
scalar OsgEarthNet.uav[85] utilizationCountManeuversMaintenance 128
scalar OsgEarthNet.uav[85] utilizationCountChargeState 64
scalar OsgEarthNet.uav[85] utilizationCountOverdrawnAfterMission 0
scalar OsgEarthNet.uav[85] utilizationCountIdleState 2
scalar OsgEarthNet.uav[85] utilizationFail 0
scalar OsgEarthNet.uav[85] simulationTime 259200
scalar OsgEarthNet.uav[86] utilizationSecMission 19489.486363783
scalar OsgEarthNet.uav[86] utilizationSecMaintenance 10490.524270856
scalar OsgEarthNet.uav[86] utilizationSecCharge 109204.98142955
scalar OsgEarthNet.uav[86] utilizationSecIdle 120015.00693581
scalar OsgEarthNet.uav[86] utilizationEnergyMission 93612.67792511
scalar OsgEarthNet.uav[86] utilizationEnergyMaintenance 49615.690032959
scalar OsgEarthNet.uav[86] utilizationEnergyCharge 140714.69433594
scalar OsgEarthNet.uav[86] utilizationEnergyOverdrawMission 0
scalar OsgEarthNet.uav[86] utilizationEnergyOverdrawMaintenance 0
scalar OsgEarthNet.uav[86] utilizationCountMissions 32
scalar OsgEarthNet.uav[86] utilizationCountManeuversMission 567
scalar OsgEarthNet.uav[86] utilizationCountManeuversMaintenance 64
scalar OsgEarthNet.uav[86] utilizationCountChargeState 32
scalar OsgEarthNet.uav[86] utilizationCountOverdrawnAfterMission 0
scalar OsgEarthNet.uav[86] utilizationCountIdleState 32
scalar OsgEarthNet.uav[86] utilizationFail 0
scalar OsgEarthNet.uav[86] simulationTime 259200
scalar OsgEarthNet.uav[87] utilizationSecMission 22342.592111011
scalar OsgEarthNet.uav[87] utilizationSecMaintenance 14844.558416608
scalar OsgEarthNet.uav[87] utilizationSecCharge 142580.84647238
scalar OsgEarthNet.uav[87] utilizationSecIdle 79432.002
scalar OsgEarthNet.uav[87] utilizationEnergyMission 108927.48881912
scalar OsgEarthNet.uav[87] utilizationEnergyMaintenance 70072.63666153
scalar OsgEarthNet.uav[87] utilizationEnergyCharge 181736.01269531
scalar OsgEarthNet.uav[87] utilizationEnergyOverdrawMission 0
scalar OsgEarthNet.uav[87] utilizationEnergyOverdrawMaintenance 0
scalar OsgEarthNet.uav[87] utilizationCountMissions 43
scalar OsgEarthNet.uav[87] utilizationCountManeuversMission 790
scalar OsgEarthNet.uav[87] utilizationCountManeuversMaintenance 86
scalar OsgEarthNet.uav[87] utilizationCountChargeState 43
scalar OsgEarthNet.uav[87] utilizationCountOverdrawnAfterMission 0
scalar OsgEarthNet.uav[87] utilizationCountIdleState 43
scalar OsgEarthNet.uav[87] utilizationFail 0
scalar OsgEarthNet.uav[87] simulationTime 259200
scalar OsgEarthNet.uav[88] utilizationSecMission 44572.717750948
scalar OsgEarthNet.uav[88] utilizationSecMaintenance 17276.700245658
scalar OsgEarthNet.uav[88] utilizationSecCharge 195778.57900339
scalar OsgEarthNet.uav[88] utilizationSecIdle 1572.002
scalar OsgEarthNet.uav[88] utilizationEnergyMission 210965.54152679
scalar OsgEarthNet.uav[88] utilizationEnergyMaintenance 78584.431293488
scalar OsgEarthNet.uav[88] utilizationEnergyCharge 287807.83691406
scalar OsgEarthNet.uav[88] utilizationEnergyOverdrawMission 0
scalar OsgEarthNet.uav[88] utilizationEnergyOverdrawMaintenance 0
scalar OsgEarthNet.uav[88] utilizationCountMissions 63
scalar OsgEarthNet.uav[88] utilizationCountManeuversMission 1231
scalar OsgEarthNet.uav[88] utilizationCountManeuversMaintenance 126
scalar OsgEarthNet.uav[88] utilizationCountChargeState 63
scalar OsgEarthNet.uav[88] utilizationCountOverdrawnAfterMission 0
scalar OsgEarthNet.uav[88] utilizationCountIdleState 4
scalar OsgEarthNet.uav[88] utilizationFail 0
scalar OsgEarthNet.uav[88] simulationTime 259200
scalar OsgEarthNet.uav[89] utilizationSecMission 44090.155796794
scalar OsgEarthNet.uav[89] utilizationSecMaintenance 18227.843203207
scalar OsgEarthNet.uav[89] utilizationSecCharge 196650
scalar OsgEarthNet.uav[89] utilizationSecIdle 232
scalar OsgEarthNet.uav[89] utilizationEnergyMission 214375.99573898
scalar OsgEarthNet.uav[89] utilizationEnergyMaintenance 82299.205568348
scalar OsgEarthNet.uav[89] utilizationEnergyCharge 290189.57006836
scalar OsgEarthNet.uav[89] utilizationEnergyOverdrawMission 0
scalar OsgEarthNet.uav[89] utilizationEnergyOverdrawMaintenance 0
scalar OsgEarthNet.uav[89] utilizationCountMissions 65
scalar OsgEarthNet.uav[89] utilizationCountManeuversMission 1348
scalar OsgEarthNet.uav[89] utilizationCountManeuversMaintenance 129
scalar OsgEarthNet.uav[89] utilizationCountChargeState 64
scalar OsgEarthNet.uav[89] utilizationCountOverdrawnAfterMission 0
scalar OsgEarthNet.uav[89] utilizationCountIdleState 3
scalar OsgEarthNet.uav[89] utilizationFail 0
scalar OsgEarthNet.uav[89] simulationTime 259200
scalar OsgEarthNet.uav[90] utilizationSecMission 42386.167770705
scalar OsgEarthNet.uav[90] utilizationSecMaintenance 18409.461723013
scalar OsgEarthNet.uav[90] utilizationSecCharge 194180
scalar OsgEarthNet.uav[90] utilizationSecIdle 4224.3695062824
scalar OsgEarthNet.uav[90] utilizationEnergyMission 203488.44327164
scalar OsgEarthNet.uav[90] utilizationEnergyMaintenance 83999.843261719
scalar OsgEarthNet.uav[90] utilizationEnergyCharge 285926.19458008
scalar OsgEarthNet.uav[90] utilizationEnergyOverdrawMission 0
scalar OsgEarthNet.uav[90] utilizationEnergyOverdrawMaintenance 0
scalar OsgEarthNet.uav[90] utilizationCountMissions 63
scalar OsgEarthNet.uav[90] utilizationCountManeuversMission 1158
scalar OsgEarthNet.uav[90] utilizationCountManeuversMaintenance 127
scalar OsgEarthNet.uav[90] utilizationCountChargeState 63
scalar OsgEarthNet.uav[90] utilizationCountOverdrawnAfterMission 0
scalar OsgEarthNet.uav[90] utilizationCountIdleState 1
scalar OsgEarthNet.uav[90] utilizationFail 0
scalar OsgEarthNet.uav[90] simulationTime 259200
scalar OsgEarthNet.uav[91] utilizationSecMission 22812.05600511
scalar OsgEarthNet.uav[91] utilizationSecMaintenance 15868.106784856
scalar OsgEarthNet.uav[91] utilizationSecCharge 148059.81593589
scalar OsgEarthNet.uav[91] utilizationSecIdle 72460.020274145
scalar OsgEarthNet.uav[91] utilizationEnergyMission 108564.43860626
scalar OsgEarthNet.uav[91] utilizationEnergyMaintenance 75031.645896912
scalar OsgEarthNet.uav[91] utilizationEnergyCharge 180854.70751953
scalar OsgEarthNet.uav[91] utilizationEnergyOverdrawMission 0
scalar OsgEarthNet.uav[91] utilizationEnergyOverdrawMaintenance 0
scalar OsgEarthNet.uav[91] utilizationCountMissions 49
scalar OsgEarthNet.uav[91] utilizationCountManeuversMission 678
scalar OsgEarthNet.uav[91] utilizationCountManeuversMaintenance 98
scalar OsgEarthNet.uav[91] utilizationCountChargeState 49
scalar OsgEarthNet.uav[91] utilizationCountOverdrawnAfterMission 0
scalar OsgEarthNet.uav[91] utilizationCountIdleState 49
scalar OsgEarthNet.uav[91] utilizationFail 0
scalar OsgEarthNet.uav[91] simulationTime 259200
scalar OsgEarthNet.cs[0] usedPower 3998314.4199269
scalar OsgEarthNet.cs[0] chargedPower 3998314.4199269
scalar OsgEarthNet.cs[0] chargedMobileNodes 878
scalar OsgEarthNet.cs[0] reservations 890
scalar OsgEarthNet.cs[1] usedPower 4166602.1979508
scalar OsgEarthNet.cs[1] chargedPower 4166602.1979508
scalar OsgEarthNet.cs[1] chargedMobileNodes 1039
scalar OsgEarthNet.cs[1] reservations 1053
scalar OsgEarthNet.cs[2] usedPower 8691328.641263
scalar OsgEarthNet.cs[2] chargedPower 8691328.641263
scalar OsgEarthNet.cs[2] chargedMobileNodes 55
scalar OsgEarthNet.cs[2] reservations 1912

