version 2
run Szenario_Hotel_Gabelbach-73-20180722-03:05:09-26408
attr configname Szenario_Hotel_Gabelbach
attr datetime 20180722-03:05:09
attr experiment Szenario_Hotel_Gabelbach
attr inifile omnetpp.ini
attr iterationvars "$replM=2, $biWeight=0.35, $replSearchM=1, $numUAVs=300"
attr iterationvarsf replM=2,biWeight=0.35,replSearchM=1,numUAVs=300-
attr measurement "$replM=2, $biWeight=0.35, $replSearchM=1, $numUAVs=300"
attr network OsgEarthNet
attr processid 26408
attr repetition 1
attr replication #1
attr resultdir results
attr runnumber 73
attr seedset 73
itervar biWeight 0.35
itervar numUAVs 300
itervar replM 2
itervar replSearchM 1
param *.osgEarthScene.scene "\"Szenario_Hotel_Gabelbach.earth\""
param *.playgroundLatitude 50.6830269
param *.playgroundLongitude 10.8538055
param *.playgroundWidth 3500m
param *.playgroundHeight 3500m
param *.cs[0].posX 3537m
param *.cs[0].posY 965m
param *.cs[0].posZ 538m
param *.cs[1].posX 312m
param *.cs[1].posY 1262m
param *.cs[1].posZ 539m
param *.cs[2].posX 2185m
param *.cs[2].posY 3026m
param *.cs[2].posZ 777m
param *.cs[3].posX 10m
param *.cs[3].posY 2200m
param *.cs[3].posZ 560m
param *.cs[4].posX 750m
param *.cs[4].posY 200m
param *.cs[4].posZ 540m
param *.cs[5].posX 2450m
param *.cs[5].posY 180m
param *.cs[5].posZ 524m
param *.cs[6].posX 3140m
param *.cs[6].posY 1790m
param *.cs[6].posZ 606m
param *.numCSs 3
param *.uav[*].replacementMethod 2
param *.uav[*].weightedSumWeight 0.35
param *.missionControl.replacementSearchMethod 1
param *.numUAVs 300
param *.*.timeStep 10s
param *.uav[*].commandPreviewCommandCount 20
param *.missionControl.missionFiles "\"missions\\\\Szenario_WB_Hotel_Gabelbach_Mission_Hotel.waypoints,missions\\\\Szenario_WB_Hotel_Gabelbach_Mission_Kickelhahn.waypoints,missions\\\\Szenario_WB_Hotel_Gabelbach_Mission_Ilmenau_Sportplatz.waypoints,missions\\\\Szenario_WB_Hotel_Gabelbach_Mission_Manebach_Mitte.waypoints,missions\\\\Szenario_WB_Hotel_Gabelbach_Mission_Manebach_Sued.waypoints,missions\\\\Szenario_WB_Hotel_Gabelbach_Hover_HoheSchlaufe.waypoints,missions\\\\Szenario_WB_Hotel_Gabelbach_Hover_Kickelhahn.waypoints,missions\\\\Szenario_WB_Hotel_Gabelbach_Hover_Gabelbachskopf.waypoints,missions\\\\Szenario_WB_Hotel_Gabelbach_Hover_Dachskopf.waypoints\""
param *.uav[0].startX 3537m
param *.uav[0].startY 965m
param *.uav[0].startZ 539m
param *.uav[1].startX 312m
param *.uav[1].startY 1262m
param *.uav[1].startZ 540m
param *.uav[2].startX 2185m
param *.uav[2].startY 3026m
param *.uav[2].startZ 778m
param *.uav[3].startX 3537m
param *.uav[3].startY 965m
param *.uav[3].startZ 539m
param *.uav[4].startX 312m
param *.uav[4].startY 1262m
param *.uav[4].startZ 540m
param *.uav[5].startX 2185m
param *.uav[5].startY 3026m
param *.uav[5].startZ 778m
param *.uav[6].startX 3537m
param *.uav[6].startY 965m
param *.uav[6].startZ 539m
param *.uav[7].startX 312m
param *.uav[7].startY 1262m
param *.uav[7].startZ 540m
param *.uav[8].startX 2185m
param *.uav[8].startY 3026m
param *.uav[8].startZ 778m
param *.uav[9].startX 3537m
param *.uav[9].startY 965m
param *.uav[9].startZ 539m
param *.uav[10].startX 3537m
param *.uav[10].startY 965m
param *.uav[10].startZ 539m
param *.uav[11].startX 312m
param *.uav[11].startY 1262m
param *.uav[11].startZ 540m
param *.uav[12].startX 2185m
param *.uav[12].startY 3026m
param *.uav[12].startZ 778m
param *.uav[13].startX 3537m
param *.uav[13].startY 965m
param *.uav[13].startZ 539m
param *.uav[14].startX 312m
param *.uav[14].startY 1262m
param *.uav[14].startZ 540m
param *.uav[15].startX 2185m
param *.uav[15].startY 3026m
param *.uav[15].startZ 778m
param *.uav[16].startX 3537m
param *.uav[16].startY 965m
param *.uav[16].startZ 539m
param *.uav[17].startX 312m
param *.uav[17].startY 1262m
param *.uav[17].startZ 540m
param *.uav[18].startX 2185m
param *.uav[18].startY 3026m
param *.uav[18].startZ 778m
param *.uav[19].startX 3537m
param *.uav[19].startY 965m
param *.uav[19].startZ 539m
param *.uav[20].startX 3537m
param *.uav[20].startY 965m
param *.uav[20].startZ 539m
param *.uav[21].startX 312m
param *.uav[21].startY 1262m
param *.uav[21].startZ 540m
param *.uav[22].startX 2185m
param *.uav[22].startY 3026m
param *.uav[22].startZ 778m
param *.uav[23].startX 3537m
param *.uav[23].startY 965m
param *.uav[23].startZ 539m
param *.uav[24].startX 312m
param *.uav[24].startY 1262m
param *.uav[24].startZ 540m
param *.uav[25].startX 2185m
param *.uav[25].startY 3026m
param *.uav[25].startZ 778m
param *.uav[26].startX 3537m
param *.uav[26].startY 965m
param *.uav[26].startZ 539m
param *.uav[27].startX 312m
param *.uav[27].startY 1262m
param *.uav[27].startZ 540m
param *.uav[28].startX 2185m
param *.uav[28].startY 3026m
param *.uav[28].startZ 778m
param *.uav[29].startX 3537m
param *.uav[29].startY 965m
param *.uav[29].startZ 539m
param *.uav[30].startX 3537m
param *.uav[30].startY 965m
param *.uav[30].startZ 539m
param *.uav[31].startX 312m
param *.uav[31].startY 1262m
param *.uav[31].startZ 540m
param *.uav[32].startX 2185m
param *.uav[32].startY 3026m
param *.uav[32].startZ 778m
param *.uav[33].startX 3537m
param *.uav[33].startY 965m
param *.uav[33].startZ 539m
param *.uav[34].startX 312m
param *.uav[34].startY 1262m
param *.uav[34].startZ 540m
param *.uav[35].startX 2185m
param *.uav[35].startY 3026m
param *.uav[35].startZ 778m
param *.uav[36].startX 3537m
param *.uav[36].startY 965m
param *.uav[36].startZ 539m
param *.uav[37].startX 312m
param *.uav[37].startY 1262m
param *.uav[37].startZ 540m
param *.uav[38].startX 2185m
param *.uav[38].startY 3026m
param *.uav[38].startZ 778m
param *.uav[39].startX 3537m
param *.uav[39].startY 965m
param *.uav[39].startZ 539m
param *.uav[40].startX 3537m
param *.uav[40].startY 965m
param *.uav[40].startZ 539m
param *.uav[41].startX 312m
param *.uav[41].startY 1262m
param *.uav[41].startZ 540m
param *.uav[42].startX 2185m
param *.uav[42].startY 3026m
param *.uav[42].startZ 778m
param *.uav[43].startX 3537m
param *.uav[43].startY 965m
param *.uav[43].startZ 539m
param *.uav[44].startX 312m
param *.uav[44].startY 1262m
param *.uav[44].startZ 540m
param *.uav[45].startX 2185m
param *.uav[45].startY 3026m
param *.uav[45].startZ 778m
param *.uav[46].startX 3537m
param *.uav[46].startY 965m
param *.uav[46].startZ 539m
param *.uav[47].startX 312m
param *.uav[47].startY 1262m
param *.uav[47].startZ 540m
param *.uav[48].startX 2185m
param *.uav[48].startY 3026m
param *.uav[48].startZ 778m
param *.uav[49].startX 3537m
param *.uav[49].startY 965m
param *.uav[49].startZ 539m
param *.uav[50].startX 3537m
param *.uav[50].startY 965m
param *.uav[50].startZ 539m
param *.uav[51].startX 312m
param *.uav[51].startY 1262m
param *.uav[51].startZ 540m
param *.uav[52].startX 2185m
param *.uav[52].startY 3026m
param *.uav[52].startZ 778m
param *.uav[53].startX 3537m
param *.uav[53].startY 965m
param *.uav[53].startZ 539m
param *.uav[54].startX 312m
param *.uav[54].startY 1262m
param *.uav[54].startZ 540m
param *.uav[55].startX 2185m
param *.uav[55].startY 3026m
param *.uav[55].startZ 778m
param *.uav[56].startX 3537m
param *.uav[56].startY 965m
param *.uav[56].startZ 539m
param *.uav[57].startX 312m
param *.uav[57].startY 1262m
param *.uav[57].startZ 540m
param *.uav[58].startX 2185m
param *.uav[58].startY 3026m
param *.uav[58].startZ 778m
param *.uav[59].startX 3537m
param *.uav[59].startY 965m
param *.uav[59].startZ 539m
param *.uav[60].startX 3537m
param *.uav[60].startY 965m
param *.uav[60].startZ 539m
param *.uav[61].startX 312m
param *.uav[61].startY 1262m
param *.uav[61].startZ 540m
param *.uav[62].startX 2185m
param *.uav[62].startY 3026m
param *.uav[62].startZ 778m
param *.uav[63].startX 3537m
param *.uav[63].startY 965m
param *.uav[63].startZ 539m
param *.uav[64].startX 312m
param *.uav[64].startY 1262m
param *.uav[64].startZ 540m
param *.uav[65].startX 2185m
param *.uav[65].startY 3026m
param *.uav[65].startZ 778m
param *.uav[66].startX 3537m
param *.uav[66].startY 965m
param *.uav[66].startZ 539m
param *.uav[67].startX 312m
param *.uav[67].startY 1262m
param *.uav[67].startZ 540m
param *.uav[68].startX 2185m
param *.uav[68].startY 3026m
param *.uav[68].startZ 778m
param *.uav[69].startX 3537m
param *.uav[69].startY 965m
param *.uav[69].startZ 539m
param *.uav[70].startX 3537m
param *.uav[70].startY 965m
param *.uav[70].startZ 539m
param *.uav[71].startX 312m
param *.uav[71].startY 1262m
param *.uav[71].startZ 540m
param *.uav[72].startX 2185m
param *.uav[72].startY 3026m
param *.uav[72].startZ 778m
param *.uav[73].startX 3537m
param *.uav[73].startY 965m
param *.uav[73].startZ 539m
param *.uav[74].startX 312m
param *.uav[74].startY 1262m
param *.uav[74].startZ 540m
param *.uav[75].startX 2185m
param *.uav[75].startY 3026m
param *.uav[75].startZ 778m
param *.uav[76].startX 3537m
param *.uav[76].startY 965m
param *.uav[76].startZ 539m
param *.uav[77].startX 312m
param *.uav[77].startY 1262m
param *.uav[77].startZ 540m
param *.uav[78].startX 2185m
param *.uav[78].startY 3026m
param *.uav[78].startZ 778m
param *.uav[79].startX 3537m
param *.uav[79].startY 965m
param *.uav[79].startZ 539m
param *.uav[80].startX 3537m
param *.uav[80].startY 965m
param *.uav[80].startZ 539m
param *.uav[81].startX 312m
param *.uav[81].startY 1262m
param *.uav[81].startZ 540m
param *.uav[82].startX 2185m
param *.uav[82].startY 3026m
param *.uav[82].startZ 778m
param *.uav[83].startX 3537m
param *.uav[83].startY 965m
param *.uav[83].startZ 539m
param *.uav[84].startX 312m
param *.uav[84].startY 1262m
param *.uav[84].startZ 540m
param *.uav[85].startX 2185m
param *.uav[85].startY 3026m
param *.uav[85].startZ 778m
param *.uav[86].startX 3537m
param *.uav[86].startY 965m
param *.uav[86].startZ 539m
param *.uav[87].startX 312m
param *.uav[87].startY 1262m
param *.uav[87].startZ 540m
param *.uav[88].startX 2185m
param *.uav[88].startY 3026m
param *.uav[88].startZ 778m
param *.uav[89].startX 3537m
param *.uav[89].startY 965m
param *.uav[89].startZ 539m
param *.uav[90].startX 3537m
param *.uav[90].startY 965m
param *.uav[90].startZ 539m
param *.uav[91].startX 312m
param *.uav[91].startY 1262m
param *.uav[91].startZ 540m
param *.uav[92].startX 2185m
param *.uav[92].startY 3026m
param *.uav[92].startZ 778m
param *.uav[93].startX 3537m
param *.uav[93].startY 965m
param *.uav[93].startZ 539m
param *.uav[94].startX 312m
param *.uav[94].startY 1262m
param *.uav[94].startZ 540m
param *.uav[95].startX 2185m
param *.uav[95].startY 3026m
param *.uav[95].startZ 778m
param *.uav[96].startX 3537m
param *.uav[96].startY 965m
param *.uav[96].startZ 539m
param *.uav[97].startX 312m
param *.uav[97].startY 1262m
param *.uav[97].startZ 540m
param *.uav[98].startX 2185m
param *.uav[98].startY 3026m
param *.uav[98].startZ 778m
param *.uav[99].startX 3537m
param *.uav[99].startY 965m
param *.uav[99].startZ 539m
param *.osgEarthScene.scene "\"boston.earth\""
param *.playgroundLatitude 42.3558
param *.playgroundLongitude -71.0677
param *.playgroundWidth 400m
param *.playgroundHeight 200m
param *.channelController.connectionColor "\"#0000FF40\""
param *.channelController.showConnections false
param *.uav[*].modelURL "\"quadrocopter.small.obj.15.scale.0,0,90.rot\""
param *.uav[*].labelColor "\"#FF7C00CC\""
param *.uav[*].label2Color "\"#FF7C00EE\""
param *.uav[*].batteryCapacity 5200mAh
param *.uav[*].batteryRemaining uav[index].batteryCapacity
param *.uav[*].predictionQuantile 0.95
param *.uav[*].replacementMethod 2
param *.uav[*].weightedSumWeight 0.5
param *.cs[*].modelURL "\"chargingstation_v1.osgt.2.scale.0,0,0.rot.0,0,-15e-1.trans\""
param *.cs[*].spotsWaiting 999
param *.cs[*].spotsCharging 999
param *.cs[*].chargeEffectivenessPercentage 100
param *.cs[*].nonLinearPhaseStartPercentage 85
param *.cs[*].chargeCurrent 6.0A
param *.cs[*].prioritizeFastCharge true
param *.missionControl.replacementSearchMethod 0
param *.*.timeStep 9s

scalar OsgEarthNet.uav[0] utilizationSecMission 480
scalar OsgEarthNet.uav[0] utilizationSecMaintenance 447.1303002674
scalar OsgEarthNet.uav[0] utilizationSecCharge 3600
scalar OsgEarthNet.uav[0] utilizationSecIdle 254672.86869973
scalar OsgEarthNet.uav[0] utilizationEnergyMission 2393.947227478
scalar OsgEarthNet.uav[0] utilizationEnergyMaintenance 2183.37733078
scalar OsgEarthNet.uav[0] utilizationEnergyCharge 4706.2915039062
scalar OsgEarthNet.uav[0] utilizationEnergyOverdrawMission 0
scalar OsgEarthNet.uav[0] utilizationEnergyOverdrawMaintenance 0
scalar OsgEarthNet.uav[0] utilizationCountMissions 1
scalar OsgEarthNet.uav[0] utilizationCountManeuversMission 24
scalar OsgEarthNet.uav[0] utilizationCountManeuversMaintenance 2
scalar OsgEarthNet.uav[0] utilizationCountChargeState 1
scalar OsgEarthNet.uav[0] utilizationCountOverdrawnAfterMission 0
scalar OsgEarthNet.uav[0] utilizationCountIdleState 2
scalar OsgEarthNet.uav[0] utilizationFail 0
scalar OsgEarthNet.uav[0] simulationTime 259200
scalar OsgEarthNet.uav[1] utilizationSecMission 540
scalar OsgEarthNet.uav[1] utilizationSecMaintenance 395.21104267299
scalar OsgEarthNet.uav[1] utilizationSecCharge 3550
scalar OsgEarthNet.uav[1] utilizationSecIdle 254714.78795733
scalar OsgEarthNet.uav[1] utilizationEnergyMission 2594.8202934265
scalar OsgEarthNet.uav[1] utilizationEnergyMaintenance 1883.8574943542
scalar OsgEarthNet.uav[1] utilizationEnergyCharge 4583.6127929688
scalar OsgEarthNet.uav[1] utilizationEnergyOverdrawMission 0
scalar OsgEarthNet.uav[1] utilizationEnergyOverdrawMaintenance 0
scalar OsgEarthNet.uav[1] utilizationCountMissions 1
scalar OsgEarthNet.uav[1] utilizationCountManeuversMission 27
scalar OsgEarthNet.uav[1] utilizationCountManeuversMaintenance 2
scalar OsgEarthNet.uav[1] utilizationCountChargeState 1
scalar OsgEarthNet.uav[1] utilizationCountOverdrawnAfterMission 0
scalar OsgEarthNet.uav[1] utilizationCountIdleState 2
scalar OsgEarthNet.uav[1] utilizationFail 0
scalar OsgEarthNet.uav[1] simulationTime 259200
scalar OsgEarthNet.uav[2] utilizationSecMission 43252.32690756
scalar OsgEarthNet.uav[2] utilizationSecMaintenance 16312.898560706
scalar OsgEarthNet.uav[2] utilizationSecCharge 197485.59842132
scalar OsgEarthNet.uav[2] utilizationSecIdle 2149.1751104107
scalar OsgEarthNet.uav[2] utilizationEnergyMission 208114.92979431
scalar OsgEarthNet.uav[2] utilizationEnergyMaintenance 74938.051937103
scalar OsgEarthNet.uav[2] utilizationEnergyCharge 278246.35754395
scalar OsgEarthNet.uav[2] utilizationEnergyOverdrawMission 0
scalar OsgEarthNet.uav[2] utilizationEnergyOverdrawMaintenance 0
scalar OsgEarthNet.uav[2] utilizationCountMissions 61
scalar OsgEarthNet.uav[2] utilizationCountManeuversMission 1184
scalar OsgEarthNet.uav[2] utilizationCountManeuversMaintenance 122
scalar OsgEarthNet.uav[2] utilizationCountChargeState 61
scalar OsgEarthNet.uav[2] utilizationCountOverdrawnAfterMission 0
scalar OsgEarthNet.uav[2] utilizationCountIdleState 11
scalar OsgEarthNet.uav[2] utilizationFail 0
scalar OsgEarthNet.uav[2] simulationTime 259200
scalar OsgEarthNet.uav[3] utilizationSecMission 440
scalar OsgEarthNet.uav[3] utilizationSecMaintenance 447.1303002674
scalar OsgEarthNet.uav[3] utilizationSecCharge 3520
scalar OsgEarthNet.uav[3] utilizationSecIdle 254792.86869973
scalar OsgEarthNet.uav[3] utilizationEnergyMission 2536.4962501526
scalar OsgEarthNet.uav[3] utilizationEnergyMaintenance 2175.8931388855
scalar OsgEarthNet.uav[3] utilizationEnergyCharge 4513.390625
scalar OsgEarthNet.uav[3] utilizationEnergyOverdrawMission 0
scalar OsgEarthNet.uav[3] utilizationEnergyOverdrawMaintenance 0
scalar OsgEarthNet.uav[3] utilizationCountMissions 1
scalar OsgEarthNet.uav[3] utilizationCountManeuversMission 22
scalar OsgEarthNet.uav[3] utilizationCountManeuversMaintenance 2
scalar OsgEarthNet.uav[3] utilizationCountChargeState 1
scalar OsgEarthNet.uav[3] utilizationCountOverdrawnAfterMission 0
scalar OsgEarthNet.uav[3] utilizationCountIdleState 2
scalar OsgEarthNet.uav[3] utilizationFail 0
scalar OsgEarthNet.uav[3] simulationTime 259200
scalar OsgEarthNet.uav[4] utilizationSecMission 16507.134822097
scalar OsgEarthNet.uav[4] utilizationSecMaintenance 11392.779610528
scalar OsgEarthNet.uav[4] utilizationSecCharge 107598.08456737
scalar OsgEarthNet.uav[4] utilizationSecIdle 123702
scalar OsgEarthNet.uav[4] utilizationEnergyMission 81930.471668243
scalar OsgEarthNet.uav[4] utilizationEnergyMaintenance 54029.746543884
scalar OsgEarthNet.uav[4] utilizationEnergyCharge 133979.91674805
scalar OsgEarthNet.uav[4] utilizationEnergyOverdrawMission 0
scalar OsgEarthNet.uav[4] utilizationEnergyOverdrawMaintenance 0
scalar OsgEarthNet.uav[4] utilizationCountMissions 34
scalar OsgEarthNet.uav[4] utilizationCountManeuversMission 554
scalar OsgEarthNet.uav[4] utilizationCountManeuversMaintenance 67
scalar OsgEarthNet.uav[4] utilizationCountChargeState 34
scalar OsgEarthNet.uav[4] utilizationCountOverdrawnAfterMission 0
scalar OsgEarthNet.uav[4] utilizationCountIdleState 34
scalar OsgEarthNet.uav[4] utilizationFail 0
scalar OsgEarthNet.uav[4] simulationTime 259200
scalar OsgEarthNet.uav[5] utilizationSecMission 41782.956949887
scalar OsgEarthNet.uav[5] utilizationSecMaintenance 18325.039595359
scalar OsgEarthNet.uav[5] utilizationSecCharge 198450.00245475
scalar OsgEarthNet.uav[5] utilizationSecIdle 642
scalar OsgEarthNet.uav[5] utilizationEnergyMission 201181.46424866
scalar OsgEarthNet.uav[5] utilizationEnergyMaintenance 85419.989906311
scalar OsgEarthNet.uav[5] utilizationEnergyCharge 282537.90527344
scalar OsgEarthNet.uav[5] utilizationEnergyOverdrawMission 0
scalar OsgEarthNet.uav[5] utilizationEnergyOverdrawMaintenance 0
scalar OsgEarthNet.uav[5] utilizationCountMissions 62
scalar OsgEarthNet.uav[5] utilizationCountManeuversMission 1287
scalar OsgEarthNet.uav[5] utilizationCountManeuversMaintenance 124
scalar OsgEarthNet.uav[5] utilizationCountChargeState 62
scalar OsgEarthNet.uav[5] utilizationCountOverdrawnAfterMission 0
scalar OsgEarthNet.uav[5] utilizationCountIdleState 10
scalar OsgEarthNet.uav[5] utilizationFail 0
scalar OsgEarthNet.uav[5] simulationTime 259200
scalar OsgEarthNet.uav[6] utilizationSecMission 420
scalar OsgEarthNet.uav[6] utilizationSecMaintenance 447.1303002674
scalar OsgEarthNet.uav[6] utilizationSecCharge 3530
scalar OsgEarthNet.uav[6] utilizationSecIdle 254802.86869973
scalar OsgEarthNet.uav[6] utilizationEnergyMission 2404.343914032
scalar OsgEarthNet.uav[6] utilizationEnergyMaintenance 2147.5086174011
scalar OsgEarthNet.uav[6] utilizationEnergyCharge 4617.900390625
scalar OsgEarthNet.uav[6] utilizationEnergyOverdrawMission 0
scalar OsgEarthNet.uav[6] utilizationEnergyOverdrawMaintenance 0
scalar OsgEarthNet.uav[6] utilizationCountMissions 1
scalar OsgEarthNet.uav[6] utilizationCountManeuversMission 21
scalar OsgEarthNet.uav[6] utilizationCountManeuversMaintenance 2
scalar OsgEarthNet.uav[6] utilizationCountChargeState 1
scalar OsgEarthNet.uav[6] utilizationCountOverdrawnAfterMission 0
scalar OsgEarthNet.uav[6] utilizationCountIdleState 2
scalar OsgEarthNet.uav[6] utilizationFail 0
scalar OsgEarthNet.uav[6] simulationTime 259200
scalar OsgEarthNet.uav[7] utilizationSecMission 9665.6071923609
scalar OsgEarthNet.uav[7] utilizationSecMaintenance 7087.6747497633
scalar OsgEarthNet.uav[7] utilizationSecCharge 65670
scalar OsgEarthNet.uav[7] utilizationSecIdle 176776.71705788
scalar OsgEarthNet.uav[7] utilizationEnergyMission 47002.459266663
scalar OsgEarthNet.uav[7] utilizationEnergyMaintenance 33624.264431
scalar OsgEarthNet.uav[7] utilizationEnergyCharge 80588.23046875
scalar OsgEarthNet.uav[7] utilizationEnergyOverdrawMission 0
scalar OsgEarthNet.uav[7] utilizationEnergyOverdrawMaintenance 0
scalar OsgEarthNet.uav[7] utilizationCountMissions 21
scalar OsgEarthNet.uav[7] utilizationCountManeuversMission 341
scalar OsgEarthNet.uav[7] utilizationCountManeuversMaintenance 42
scalar OsgEarthNet.uav[7] utilizationCountChargeState 21
scalar OsgEarthNet.uav[7] utilizationCountOverdrawnAfterMission 0
scalar OsgEarthNet.uav[7] utilizationCountIdleState 22
scalar OsgEarthNet.uav[7] utilizationFail 0
scalar OsgEarthNet.uav[7] simulationTime 259200
scalar OsgEarthNet.uav[8] utilizationSecMission 42316.459131072
scalar OsgEarthNet.uav[8] utilizationSecMaintenance 17177.628601608
scalar OsgEarthNet.uav[8] utilizationSecCharge 198683.91126732
scalar OsgEarthNet.uav[8] utilizationSecIdle 1022
scalar OsgEarthNet.uav[8] utilizationEnergyMission 203120.04080262
scalar OsgEarthNet.uav[8] utilizationEnergyMaintenance 78764.693660736
scalar OsgEarthNet.uav[8] utilizationEnergyCharge 281642.45043945
scalar OsgEarthNet.uav[8] utilizationEnergyOverdrawMission 0
scalar OsgEarthNet.uav[8] utilizationEnergyOverdrawMaintenance 0
scalar OsgEarthNet.uav[8] utilizationCountMissions 61
scalar OsgEarthNet.uav[8] utilizationCountManeuversMission 1227
scalar OsgEarthNet.uav[8] utilizationCountManeuversMaintenance 121
scalar OsgEarthNet.uav[8] utilizationCountChargeState 61
scalar OsgEarthNet.uav[8] utilizationCountOverdrawnAfterMission 0
scalar OsgEarthNet.uav[8] utilizationCountIdleState 9
scalar OsgEarthNet.uav[8] utilizationFail 0
scalar OsgEarthNet.uav[8] simulationTime 259200
scalar OsgEarthNet.uav[9] utilizationSecMission 760.62515258028
scalar OsgEarthNet.uav[9] utilizationSecMaintenance 280.27216773088
scalar OsgEarthNet.uav[9] utilizationSecCharge 3690
scalar OsgEarthNet.uav[9] utilizationSecIdle 254469.10167969
scalar OsgEarthNet.uav[9] utilizationEnergyMission 3561.8335952759
scalar OsgEarthNet.uav[9] utilizationEnergyMaintenance 1351.8844108582
scalar OsgEarthNet.uav[9] utilizationEnergyCharge 4913.7163085938
scalar OsgEarthNet.uav[9] utilizationEnergyOverdrawMission 0
scalar OsgEarthNet.uav[9] utilizationEnergyOverdrawMaintenance 0
scalar OsgEarthNet.uav[9] utilizationCountMissions 1
scalar OsgEarthNet.uav[9] utilizationCountManeuversMission 12
scalar OsgEarthNet.uav[9] utilizationCountManeuversMaintenance 2
scalar OsgEarthNet.uav[9] utilizationCountChargeState 1
scalar OsgEarthNet.uav[9] utilizationCountOverdrawnAfterMission 0
scalar OsgEarthNet.uav[9] utilizationCountIdleState 2
scalar OsgEarthNet.uav[9] utilizationFail 0
scalar OsgEarthNet.uav[9] simulationTime 259200
scalar OsgEarthNet.uav[10] utilizationSecMission 760.62515258028
scalar OsgEarthNet.uav[10] utilizationSecMaintenance 280.27216773088
scalar OsgEarthNet.uav[10] utilizationSecCharge 3620
scalar OsgEarthNet.uav[10] utilizationSecIdle 254539.10167969
scalar OsgEarthNet.uav[10] utilizationEnergyMission 3309.0698852539
scalar OsgEarthNet.uav[10] utilizationEnergyMaintenance 1407.3321647644
scalar OsgEarthNet.uav[10] utilizationEnergyCharge 4716.4038085938
scalar OsgEarthNet.uav[10] utilizationEnergyOverdrawMission 0
scalar OsgEarthNet.uav[10] utilizationEnergyOverdrawMaintenance 0
scalar OsgEarthNet.uav[10] utilizationCountMissions 1
scalar OsgEarthNet.uav[10] utilizationCountManeuversMission 12
scalar OsgEarthNet.uav[10] utilizationCountManeuversMaintenance 2
scalar OsgEarthNet.uav[10] utilizationCountChargeState 1
scalar OsgEarthNet.uav[10] utilizationCountOverdrawnAfterMission 0
scalar OsgEarthNet.uav[10] utilizationCountIdleState 2
scalar OsgEarthNet.uav[10] utilizationFail 0
scalar OsgEarthNet.uav[10] simulationTime 259200
scalar OsgEarthNet.uav[11] utilizationSecMission 11361.048420251
scalar OsgEarthNet.uav[11] utilizationSecMaintenance 7298.9240467825
scalar OsgEarthNet.uav[11] utilizationSecCharge 71540
scalar OsgEarthNet.uav[11] utilizationSecIdle 169000.02653297
scalar OsgEarthNet.uav[11] utilizationEnergyMission 54874.956748962
scalar OsgEarthNet.uav[11] utilizationEnergyMaintenance 34534.067634582
scalar OsgEarthNet.uav[11] utilizationEnergyCharge 89256.862548828
scalar OsgEarthNet.uav[11] utilizationEnergyOverdrawMission 0
scalar OsgEarthNet.uav[11] utilizationEnergyOverdrawMaintenance 0
scalar OsgEarthNet.uav[11] utilizationCountMissions 22
scalar OsgEarthNet.uav[11] utilizationCountManeuversMission 367
scalar OsgEarthNet.uav[11] utilizationCountManeuversMaintenance 44
scalar OsgEarthNet.uav[11] utilizationCountChargeState 22
scalar OsgEarthNet.uav[11] utilizationCountOverdrawnAfterMission 0
scalar OsgEarthNet.uav[11] utilizationCountIdleState 23
scalar OsgEarthNet.uav[11] utilizationFail 0
scalar OsgEarthNet.uav[11] simulationTime 259200
scalar OsgEarthNet.uav[12] utilizationSecMission 41852.594353952
scalar OsgEarthNet.uav[12] utilizationSecMaintenance 16970.818806876
scalar OsgEarthNet.uav[12] utilizationSecCharge 196334.58083917
scalar OsgEarthNet.uav[12] utilizationSecIdle 4042.005
scalar OsgEarthNet.uav[12] utilizationEnergyMission 203740.50850677
scalar OsgEarthNet.uav[12] utilizationEnergyMaintenance 78504.879192352
scalar OsgEarthNet.uav[12] utilizationEnergyCharge 278357.57250977
scalar OsgEarthNet.uav[12] utilizationEnergyOverdrawMission 0
scalar OsgEarthNet.uav[12] utilizationEnergyOverdrawMaintenance 0
scalar OsgEarthNet.uav[12] utilizationCountMissions 61
scalar OsgEarthNet.uav[12] utilizationCountManeuversMission 1327
scalar OsgEarthNet.uav[12] utilizationCountManeuversMaintenance 122
scalar OsgEarthNet.uav[12] utilizationCountChargeState 61
scalar OsgEarthNet.uav[12] utilizationCountOverdrawnAfterMission 0
scalar OsgEarthNet.uav[12] utilizationCountIdleState 10
scalar OsgEarthNet.uav[12] utilizationFail 0
scalar OsgEarthNet.uav[12] simulationTime 259200
scalar OsgEarthNet.uav[13] utilizationSecMission 760.62515258028
scalar OsgEarthNet.uav[13] utilizationSecMaintenance 280.27216773088
scalar OsgEarthNet.uav[13] utilizationSecCharge 3630
scalar OsgEarthNet.uav[13] utilizationSecIdle 254529.10167969
scalar OsgEarthNet.uav[13] utilizationEnergyMission 3508.9105224609
scalar OsgEarthNet.uav[13] utilizationEnergyMaintenance 1268.8235282898
scalar OsgEarthNet.uav[13] utilizationEnergyCharge 4777.7329101562
scalar OsgEarthNet.uav[13] utilizationEnergyOverdrawMission 0
scalar OsgEarthNet.uav[13] utilizationEnergyOverdrawMaintenance 0
scalar OsgEarthNet.uav[13] utilizationCountMissions 1
scalar OsgEarthNet.uav[13] utilizationCountManeuversMission 12
scalar OsgEarthNet.uav[13] utilizationCountManeuversMaintenance 2
scalar OsgEarthNet.uav[13] utilizationCountChargeState 1
scalar OsgEarthNet.uav[13] utilizationCountOverdrawnAfterMission 0
scalar OsgEarthNet.uav[13] utilizationCountIdleState 2
scalar OsgEarthNet.uav[13] utilizationFail 0
scalar OsgEarthNet.uav[13] simulationTime 259200
scalar OsgEarthNet.uav[14] utilizationSecMission 11001.048420251
scalar OsgEarthNet.uav[14] utilizationSecMaintenance 7285.4616818821
scalar OsgEarthNet.uav[14] utilizationSecCharge 70455.135294988
scalar OsgEarthNet.uav[14] utilizationSecIdle 170458.35360288
scalar OsgEarthNet.uav[14] utilizationEnergyMission 54046.024185181
scalar OsgEarthNet.uav[14] utilizationEnergyMaintenance 33913.862659454
scalar OsgEarthNet.uav[14] utilizationEnergyCharge 87428.766845703
scalar OsgEarthNet.uav[14] utilizationEnergyOverdrawMission 0
scalar OsgEarthNet.uav[14] utilizationEnergyOverdrawMaintenance 0
scalar OsgEarthNet.uav[14] utilizationCountMissions 22
scalar OsgEarthNet.uav[14] utilizationCountManeuversMission 349
scalar OsgEarthNet.uav[14] utilizationCountManeuversMaintenance 44
scalar OsgEarthNet.uav[14] utilizationCountChargeState 22
scalar OsgEarthNet.uav[14] utilizationCountOverdrawnAfterMission 0
scalar OsgEarthNet.uav[14] utilizationCountIdleState 22
scalar OsgEarthNet.uav[14] utilizationFail 0
scalar OsgEarthNet.uav[14] simulationTime 259200
scalar OsgEarthNet.uav[15] utilizationSecMission 42178.141273446
scalar OsgEarthNet.uav[15] utilizationSecMaintenance 17399.528707397
scalar OsgEarthNet.uav[15] utilizationSecCharge 196232.87067107
scalar OsgEarthNet.uav[15] utilizationSecIdle 3389.4583480894
scalar OsgEarthNet.uav[15] utilizationEnergyMission 201606.52309799
scalar OsgEarthNet.uav[15] utilizationEnergyMaintenance 78286.475147247
scalar OsgEarthNet.uav[15] utilizationEnergyCharge 276645.10461426
scalar OsgEarthNet.uav[15] utilizationEnergyOverdrawMission 0
scalar OsgEarthNet.uav[15] utilizationEnergyOverdrawMaintenance 0
scalar OsgEarthNet.uav[15] utilizationCountMissions 61
scalar OsgEarthNet.uav[15] utilizationCountManeuversMission 1174
scalar OsgEarthNet.uav[15] utilizationCountManeuversMaintenance 122
scalar OsgEarthNet.uav[15] utilizationCountChargeState 61
scalar OsgEarthNet.uav[15] utilizationCountOverdrawnAfterMission 0
scalar OsgEarthNet.uav[15] utilizationCountIdleState 9
scalar OsgEarthNet.uav[15] utilizationFail 0
scalar OsgEarthNet.uav[15] simulationTime 259200
scalar OsgEarthNet.uav[16] utilizationSecMission 540
scalar OsgEarthNet.uav[16] utilizationSecMaintenance 447.1303002674
scalar OsgEarthNet.uav[16] utilizationSecCharge 3410
scalar OsgEarthNet.uav[16] utilizationSecIdle 254802.86869973
scalar OsgEarthNet.uav[16] utilizationEnergyMission 2793.8783416748
scalar OsgEarthNet.uav[16] utilizationEnergyMaintenance 1994.48279953
scalar OsgEarthNet.uav[16] utilizationEnergyCharge 4294.4721679688
scalar OsgEarthNet.uav[16] utilizationEnergyOverdrawMission 0
scalar OsgEarthNet.uav[16] utilizationEnergyOverdrawMaintenance 0
scalar OsgEarthNet.uav[16] utilizationCountMissions 1
scalar OsgEarthNet.uav[16] utilizationCountManeuversMission 27
scalar OsgEarthNet.uav[16] utilizationCountManeuversMaintenance 2
scalar OsgEarthNet.uav[16] utilizationCountChargeState 1
scalar OsgEarthNet.uav[16] utilizationCountOverdrawnAfterMission 0
scalar OsgEarthNet.uav[16] utilizationCountIdleState 2
scalar OsgEarthNet.uav[16] utilizationFail 0
scalar OsgEarthNet.uav[16] simulationTime 259200
scalar OsgEarthNet.uav[17] utilizationSecMission 9716.8860397302
scalar OsgEarthNet.uav[17] utilizationSecMaintenance 6967.1113016526
scalar OsgEarthNet.uav[17] utilizationSecCharge 64990
scalar OsgEarthNet.uav[17] utilizationSecIdle 177526.00165862
scalar OsgEarthNet.uav[17] utilizationEnergyMission 48293.242954254
scalar OsgEarthNet.uav[17] utilizationEnergyMaintenance 33802.682765961
scalar OsgEarthNet.uav[17] utilizationEnergyCharge 81131.460449219
scalar OsgEarthNet.uav[17] utilizationEnergyOverdrawMission 0
scalar OsgEarthNet.uav[17] utilizationEnergyOverdrawMaintenance 0
scalar OsgEarthNet.uav[17] utilizationCountMissions 20
scalar OsgEarthNet.uav[17] utilizationCountManeuversMission 357
scalar OsgEarthNet.uav[17] utilizationCountManeuversMaintenance 40
scalar OsgEarthNet.uav[17] utilizationCountChargeState 20
scalar OsgEarthNet.uav[17] utilizationCountOverdrawnAfterMission 0
scalar OsgEarthNet.uav[17] utilizationCountIdleState 21
scalar OsgEarthNet.uav[17] utilizationFail 0
scalar OsgEarthNet.uav[17] simulationTime 259200
scalar OsgEarthNet.uav[18] utilizationSecMission 40985.570943358
scalar OsgEarthNet.uav[18] utilizationSecMaintenance 18080.539136665
scalar OsgEarthNet.uav[18] utilizationSecCharge 196520
scalar OsgEarthNet.uav[18] utilizationSecIdle 3613.8889199767
scalar OsgEarthNet.uav[18] utilizationEnergyMission 197581.90633032
scalar OsgEarthNet.uav[18] utilizationEnergyMaintenance 82837.766242981
scalar OsgEarthNet.uav[18] utilizationEnergyCharge 278347.33349609
scalar OsgEarthNet.uav[18] utilizationEnergyOverdrawMission 0
scalar OsgEarthNet.uav[18] utilizationEnergyOverdrawMaintenance 0
scalar OsgEarthNet.uav[18] utilizationCountMissions 61
scalar OsgEarthNet.uav[18] utilizationCountManeuversMission 1222
scalar OsgEarthNet.uav[18] utilizationCountManeuversMaintenance 123
scalar OsgEarthNet.uav[18] utilizationCountChargeState 61
scalar OsgEarthNet.uav[18] utilizationCountOverdrawnAfterMission 0
scalar OsgEarthNet.uav[18] utilizationCountIdleState 14
scalar OsgEarthNet.uav[18] utilizationFail 0
scalar OsgEarthNet.uav[18] simulationTime 259200
scalar OsgEarthNet.uav[19] utilizationSecMission 14565.001220642
scalar OsgEarthNet.uav[19] utilizationSecMaintenance 9686.3266597719
scalar OsgEarthNet.uav[19] utilizationSecCharge 90800
scalar OsgEarthNet.uav[19] utilizationSecIdle 144148.67111959
scalar OsgEarthNet.uav[19] utilizationEnergyMission 71978.575382233
scalar OsgEarthNet.uav[19] utilizationEnergyMaintenance 45811.797691345
scalar OsgEarthNet.uav[19] utilizationEnergyCharge 116850.51708984
scalar OsgEarthNet.uav[19] utilizationEnergyOverdrawMission 0
scalar OsgEarthNet.uav[19] utilizationEnergyOverdrawMaintenance 0
scalar OsgEarthNet.uav[19] utilizationCountMissions 26
scalar OsgEarthNet.uav[19] utilizationCountManeuversMission 520
scalar OsgEarthNet.uav[19] utilizationCountManeuversMaintenance 52
scalar OsgEarthNet.uav[19] utilizationCountChargeState 26
scalar OsgEarthNet.uav[19] utilizationCountOverdrawnAfterMission 0
scalar OsgEarthNet.uav[19] utilizationCountIdleState 27
scalar OsgEarthNet.uav[19] utilizationFail 0
scalar OsgEarthNet.uav[19] simulationTime 259200
scalar OsgEarthNet.uav[20] utilizationSecMission 41781.56277506
scalar OsgEarthNet.uav[20] utilizationSecMaintenance 17361.667524695
scalar OsgEarthNet.uav[20] utilizationSecCharge 197680.12093693
scalar OsgEarthNet.uav[20] utilizationSecIdle 2376.6477633152
scalar OsgEarthNet.uav[20] utilizationEnergyMission 198815.80493927
scalar OsgEarthNet.uav[20] utilizationEnergyMaintenance 81095.201698303
scalar OsgEarthNet.uav[20] utilizationEnergyCharge 280354.64379883
scalar OsgEarthNet.uav[20] utilizationEnergyOverdrawMission 0
scalar OsgEarthNet.uav[20] utilizationEnergyOverdrawMaintenance 0
scalar OsgEarthNet.uav[20] utilizationCountMissions 61
scalar OsgEarthNet.uav[20] utilizationCountManeuversMission 1238
scalar OsgEarthNet.uav[20] utilizationCountManeuversMaintenance 122
scalar OsgEarthNet.uav[20] utilizationCountChargeState 61
scalar OsgEarthNet.uav[20] utilizationCountOverdrawnAfterMission 0
scalar OsgEarthNet.uav[20] utilizationCountIdleState 5
scalar OsgEarthNet.uav[20] utilizationFail 0
scalar OsgEarthNet.uav[20] simulationTime 259200
scalar OsgEarthNet.uav[21] utilizationSecMission 11455.359557106
scalar OsgEarthNet.uav[21] utilizationSecMaintenance 8732.5682267621
scalar OsgEarthNet.uav[21] utilizationSecCharge 80900
scalar OsgEarthNet.uav[21] utilizationSecIdle 158112.07121613
scalar OsgEarthNet.uav[21] utilizationEnergyMission 56071.346561432
scalar OsgEarthNet.uav[21] utilizationEnergyMaintenance 41466.53212738
scalar OsgEarthNet.uav[21] utilizationEnergyCharge 98762.741699219
scalar OsgEarthNet.uav[21] utilizationEnergyOverdrawMission 0
scalar OsgEarthNet.uav[21] utilizationEnergyOverdrawMaintenance 0
scalar OsgEarthNet.uav[21] utilizationCountMissions 26
scalar OsgEarthNet.uav[21] utilizationCountManeuversMission 393
scalar OsgEarthNet.uav[21] utilizationCountManeuversMaintenance 52
scalar OsgEarthNet.uav[21] utilizationCountChargeState 26
scalar OsgEarthNet.uav[21] utilizationCountOverdrawnAfterMission 0
scalar OsgEarthNet.uav[21] utilizationCountIdleState 27
scalar OsgEarthNet.uav[21] utilizationFail 0
scalar OsgEarthNet.uav[21] simulationTime 259200
scalar OsgEarthNet.uav[22] utilizationSecMission 41053.877892343
scalar OsgEarthNet.uav[22] utilizationSecMaintenance 17979.777734646
scalar OsgEarthNet.uav[22] utilizationSecCharge 196494.33737301
scalar OsgEarthNet.uav[22] utilizationSecIdle 3672.006
scalar OsgEarthNet.uav[22] utilizationEnergyMission 199060.6342392
scalar OsgEarthNet.uav[22] utilizationEnergyMaintenance 83317.164318085
scalar OsgEarthNet.uav[22] utilizationEnergyCharge 278987.91186523
scalar OsgEarthNet.uav[22] utilizationEnergyOverdrawMission 0
scalar OsgEarthNet.uav[22] utilizationEnergyOverdrawMaintenance 0
scalar OsgEarthNet.uav[22] utilizationCountMissions 61
scalar OsgEarthNet.uav[22] utilizationCountManeuversMission 1247
scalar OsgEarthNet.uav[22] utilizationCountManeuversMaintenance 122
scalar OsgEarthNet.uav[22] utilizationCountChargeState 61
scalar OsgEarthNet.uav[22] utilizationCountOverdrawnAfterMission 0
scalar OsgEarthNet.uav[22] utilizationCountIdleState 6
scalar OsgEarthNet.uav[22] utilizationFail 0
scalar OsgEarthNet.uav[22] simulationTime 259200
scalar OsgEarthNet.uav[23] utilizationSecMission 8113.383801652
scalar OsgEarthNet.uav[23] utilizationSecMaintenance 5221.5251318959
scalar OsgEarthNet.uav[23] utilizationSecCharge 49510
scalar OsgEarthNet.uav[23] utilizationSecIdle 196355.09006645
scalar OsgEarthNet.uav[23] utilizationEnergyMission 40677.94858551
scalar OsgEarthNet.uav[23] utilizationEnergyMaintenance 24375.034889221
scalar OsgEarthNet.uav[23] utilizationEnergyCharge 64139.062011719
scalar OsgEarthNet.uav[23] utilizationEnergyOverdrawMission 0
scalar OsgEarthNet.uav[23] utilizationEnergyOverdrawMaintenance 0
scalar OsgEarthNet.uav[23] utilizationCountMissions 14
scalar OsgEarthNet.uav[23] utilizationCountManeuversMission 271
scalar OsgEarthNet.uav[23] utilizationCountManeuversMaintenance 28
scalar OsgEarthNet.uav[23] utilizationCountChargeState 14
scalar OsgEarthNet.uav[23] utilizationCountOverdrawnAfterMission 0
scalar OsgEarthNet.uav[23] utilizationCountIdleState 15
scalar OsgEarthNet.uav[23] utilizationFail 0
scalar OsgEarthNet.uav[23] simulationTime 259200
scalar OsgEarthNet.uav[24] utilizationSecMission 12227.852953493
scalar OsgEarthNet.uav[24] utilizationSecMaintenance 8631.9256564121
scalar OsgEarthNet.uav[24] utilizationSecCharge 78588.213390095
scalar OsgEarthNet.uav[24] utilizationSecIdle 159752.007
scalar OsgEarthNet.uav[24] utilizationEnergyMission 58938.649044037
scalar OsgEarthNet.uav[24] utilizationEnergyMaintenance 40790.317436218
scalar OsgEarthNet.uav[24] utilizationEnergyCharge 96160.62902832
scalar OsgEarthNet.uav[24] utilizationEnergyOverdrawMission 0
scalar OsgEarthNet.uav[24] utilizationEnergyOverdrawMaintenance 0
scalar OsgEarthNet.uav[24] utilizationCountMissions 26
scalar OsgEarthNet.uav[24] utilizationCountManeuversMission 395
scalar OsgEarthNet.uav[24] utilizationCountManeuversMaintenance 52
scalar OsgEarthNet.uav[24] utilizationCountChargeState 26
scalar OsgEarthNet.uav[24] utilizationCountOverdrawnAfterMission 0
scalar OsgEarthNet.uav[24] utilizationCountIdleState 26
scalar OsgEarthNet.uav[24] utilizationFail 0
scalar OsgEarthNet.uav[24] simulationTime 259200
scalar OsgEarthNet.uav[25] utilizationSecMission 42139.727248669
scalar OsgEarthNet.uav[25] utilizationSecMaintenance 17008.818792614
scalar OsgEarthNet.uav[25] utilizationSecCharge 196420
scalar OsgEarthNet.uav[25] utilizationSecIdle 3631.4529587171
scalar OsgEarthNet.uav[25] utilizationEnergyMission 201247.25586881
scalar OsgEarthNet.uav[25] utilizationEnergyMaintenance 78463.066921234
scalar OsgEarthNet.uav[25] utilizationEnergyCharge 277528.62548828
scalar OsgEarthNet.uav[25] utilizationEnergyOverdrawMission 0
scalar OsgEarthNet.uav[25] utilizationEnergyOverdrawMaintenance 51.12232208252
scalar OsgEarthNet.uav[25] utilizationCountMissions 60
scalar OsgEarthNet.uav[25] utilizationCountManeuversMission 1188
scalar OsgEarthNet.uav[25] utilizationCountManeuversMaintenance 121
scalar OsgEarthNet.uav[25] utilizationCountChargeState 60
scalar OsgEarthNet.uav[25] utilizationCountOverdrawnAfterMission 1
scalar OsgEarthNet.uav[25] utilizationCountIdleState 13
scalar OsgEarthNet.uav[25] utilizationFail 0
scalar OsgEarthNet.uav[25] simulationTime 259200
scalar OsgEarthNet.uav[26] utilizationSecMission 8064.376068062
scalar OsgEarthNet.uav[26] utilizationSecMaintenance 4211.3471116162
scalar OsgEarthNet.uav[26] utilizationSecCharge 46090
scalar OsgEarthNet.uav[26] utilizationSecIdle 200834.27582032
scalar OsgEarthNet.uav[26] utilizationEnergyMission 38935.094470978
scalar OsgEarthNet.uav[26] utilizationEnergyMaintenance 20308.652431488
scalar OsgEarthNet.uav[26] utilizationEnergyCharge 59604.813476562
scalar OsgEarthNet.uav[26] utilizationEnergyOverdrawMission 0
scalar OsgEarthNet.uav[26] utilizationEnergyOverdrawMaintenance 0
scalar OsgEarthNet.uav[26] utilizationCountMissions 13
scalar OsgEarthNet.uav[26] utilizationCountManeuversMission 221
scalar OsgEarthNet.uav[26] utilizationCountManeuversMaintenance 26
scalar OsgEarthNet.uav[26] utilizationCountChargeState 13
scalar OsgEarthNet.uav[26] utilizationCountOverdrawnAfterMission 0
scalar OsgEarthNet.uav[26] utilizationCountIdleState 14
scalar OsgEarthNet.uav[26] utilizationFail 0
scalar OsgEarthNet.uav[26] simulationTime 259200
scalar OsgEarthNet.uav[27] utilizationSecMission 12177.893788884
scalar OsgEarthNet.uav[27] utilizationSecMaintenance 8126.6772806632
scalar OsgEarthNet.uav[27] utilizationSecCharge 77593.419930452
scalar OsgEarthNet.uav[27] utilizationSecIdle 161302.008
scalar OsgEarthNet.uav[27] utilizationEnergyMission 60701.916782379
scalar OsgEarthNet.uav[27] utilizationEnergyMaintenance 38737.592224121
scalar OsgEarthNet.uav[27] utilizationEnergyCharge 98655.311767578
scalar OsgEarthNet.uav[27] utilizationEnergyOverdrawMission 0
scalar OsgEarthNet.uav[27] utilizationEnergyOverdrawMaintenance 0
scalar OsgEarthNet.uav[27] utilizationCountMissions 23
scalar OsgEarthNet.uav[27] utilizationCountManeuversMission 453
scalar OsgEarthNet.uav[27] utilizationCountManeuversMaintenance 46
scalar OsgEarthNet.uav[27] utilizationCountChargeState 23
scalar OsgEarthNet.uav[27] utilizationCountOverdrawnAfterMission 0
scalar OsgEarthNet.uav[27] utilizationCountIdleState 23
scalar OsgEarthNet.uav[27] utilizationFail 0
scalar OsgEarthNet.uav[27] simulationTime 259200
scalar OsgEarthNet.uav[28] utilizationSecMission 40916.808079632
scalar OsgEarthNet.uav[28] utilizationSecMaintenance 17956.191397042
scalar OsgEarthNet.uav[28] utilizationSecCharge 197581.54386992
scalar OsgEarthNet.uav[28] utilizationSecIdle 2745.4556534032
scalar OsgEarthNet.uav[28] utilizationEnergyMission 197302.29465103
scalar OsgEarthNet.uav[28] utilizationEnergyMaintenance 83679.110710144
scalar OsgEarthNet.uav[28] utilizationEnergyCharge 280454.99365234
scalar OsgEarthNet.uav[28] utilizationEnergyOverdrawMission 0
scalar OsgEarthNet.uav[28] utilizationEnergyOverdrawMaintenance 0
scalar OsgEarthNet.uav[28] utilizationCountMissions 61
scalar OsgEarthNet.uav[28] utilizationCountManeuversMission 1239
scalar OsgEarthNet.uav[28] utilizationCountManeuversMaintenance 122
scalar OsgEarthNet.uav[28] utilizationCountChargeState 61
scalar OsgEarthNet.uav[28] utilizationCountOverdrawnAfterMission 0
scalar OsgEarthNet.uav[28] utilizationCountIdleState 9
scalar OsgEarthNet.uav[28] utilizationFail 0
scalar OsgEarthNet.uav[28] simulationTime 259200
scalar OsgEarthNet.uav[29] utilizationSecMission 7863.7509154817
scalar OsgEarthNet.uav[29] utilizationSecMaintenance 4378.2253063605
scalar OsgEarthNet.uav[29] utilizationSecCharge 45690
scalar OsgEarthNet.uav[29] utilizationSecIdle 201268.02277816
scalar OsgEarthNet.uav[29] utilizationEnergyMission 37776.72360611
scalar OsgEarthNet.uav[29] utilizationEnergyMaintenance 20601.047664642
scalar OsgEarthNet.uav[29] utilizationEnergyCharge 58907.767578125
scalar OsgEarthNet.uav[29] utilizationEnergyOverdrawMission 0
scalar OsgEarthNet.uav[29] utilizationEnergyOverdrawMaintenance 0
scalar OsgEarthNet.uav[29] utilizationCountMissions 13
scalar OsgEarthNet.uav[29] utilizationCountManeuversMission 237
scalar OsgEarthNet.uav[29] utilizationCountManeuversMaintenance 26
scalar OsgEarthNet.uav[29] utilizationCountChargeState 13
scalar OsgEarthNet.uav[29] utilizationCountOverdrawnAfterMission 0
scalar OsgEarthNet.uav[29] utilizationCountIdleState 14
scalar OsgEarthNet.uav[29] utilizationFail 0
scalar OsgEarthNet.uav[29] simulationTime 259200
scalar OsgEarthNet.uav[30] utilizationSecMission 6121.8754577408
scalar OsgEarthNet.uav[30] utilizationSecMaintenance 4246.098402801
scalar OsgEarthNet.uav[30] utilizationSecCharge 38450
scalar OsgEarthNet.uav[30] utilizationSecIdle 210382.02513946
scalar OsgEarthNet.uav[30] utilizationEnergyMission 29751.63809967
scalar OsgEarthNet.uav[30] utilizationEnergyMaintenance 19971.391361237
scalar OsgEarthNet.uav[30] utilizationEnergyCharge 49410.331054688
scalar OsgEarthNet.uav[30] utilizationEnergyOverdrawMission 0
scalar OsgEarthNet.uav[30] utilizationEnergyOverdrawMaintenance 0
scalar OsgEarthNet.uav[30] utilizationCountMissions 11
scalar OsgEarthNet.uav[30] utilizationCountManeuversMission 228
scalar OsgEarthNet.uav[30] utilizationCountManeuversMaintenance 22
scalar OsgEarthNet.uav[30] utilizationCountChargeState 11
scalar OsgEarthNet.uav[30] utilizationCountOverdrawnAfterMission 0
scalar OsgEarthNet.uav[30] utilizationCountIdleState 12
scalar OsgEarthNet.uav[30] utilizationFail 0
scalar OsgEarthNet.uav[30] simulationTime 259200
scalar OsgEarthNet.uav[31] utilizationSecMission 11138.100588747
scalar OsgEarthNet.uav[31] utilizationSecMaintenance 7787.7157185869
scalar OsgEarthNet.uav[31] utilizationSecCharge 74170
scalar OsgEarthNet.uav[31] utilizationSecIdle 166104.18269267
scalar OsgEarthNet.uav[31] utilizationEnergyMission 54931.524246216
scalar OsgEarthNet.uav[31] utilizationEnergyMaintenance 36807.878845215
scalar OsgEarthNet.uav[31] utilizationEnergyCharge 92018.932128906
scalar OsgEarthNet.uav[31] utilizationEnergyOverdrawMission 0
scalar OsgEarthNet.uav[31] utilizationEnergyOverdrawMaintenance 0
scalar OsgEarthNet.uav[31] utilizationCountMissions 23
scalar OsgEarthNet.uav[31] utilizationCountManeuversMission 378
scalar OsgEarthNet.uav[31] utilizationCountManeuversMaintenance 46
scalar OsgEarthNet.uav[31] utilizationCountChargeState 23
scalar OsgEarthNet.uav[31] utilizationCountOverdrawnAfterMission 0
scalar OsgEarthNet.uav[31] utilizationCountIdleState 24
scalar OsgEarthNet.uav[31] utilizationFail 0
scalar OsgEarthNet.uav[31] simulationTime 259200
scalar OsgEarthNet.uav[32] utilizationSecMission 41284.727607749
scalar OsgEarthNet.uav[32] utilizationSecMaintenance 17643.266392251
scalar OsgEarthNet.uav[32] utilizationSecCharge 197020
scalar OsgEarthNet.uav[32] utilizationSecIdle 3252.005
scalar OsgEarthNet.uav[32] utilizationEnergyMission 201860.33679403
scalar OsgEarthNet.uav[32] utilizationEnergyMaintenance 81847.951259613
scalar OsgEarthNet.uav[32] utilizationEnergyCharge 280723.20410156
scalar OsgEarthNet.uav[32] utilizationEnergyOverdrawMission 0
scalar OsgEarthNet.uav[32] utilizationEnergyOverdrawMaintenance 0
scalar OsgEarthNet.uav[32] utilizationCountMissions 61
scalar OsgEarthNet.uav[32] utilizationCountManeuversMission 1290
scalar OsgEarthNet.uav[32] utilizationCountManeuversMaintenance 123
scalar OsgEarthNet.uav[32] utilizationCountChargeState 61
scalar OsgEarthNet.uav[32] utilizationCountOverdrawnAfterMission 0
scalar OsgEarthNet.uav[32] utilizationCountIdleState 8
scalar OsgEarthNet.uav[32] utilizationFail 0
scalar OsgEarthNet.uav[32] simulationTime 259200
scalar OsgEarthNet.uav[33] utilizationSecMission 10986.251525803
scalar OsgEarthNet.uav[33] utilizationSecMaintenance 5150.9500846983
scalar OsgEarthNet.uav[33] utilizationSecCharge 57930.792389499
scalar OsgEarthNet.uav[33] utilizationSecIdle 185132.005
scalar OsgEarthNet.uav[33] utilizationEnergyMission 53816.461116791
scalar OsgEarthNet.uav[33] utilizationEnergyMaintenance 24353.762371063
scalar OsgEarthNet.uav[33] utilizationEnergyCharge 75423.224365234
scalar OsgEarthNet.uav[33] utilizationEnergyOverdrawMission 0
scalar OsgEarthNet.uav[33] utilizationEnergyOverdrawMaintenance 0
scalar OsgEarthNet.uav[33] utilizationCountMissions 17
scalar OsgEarthNet.uav[33] utilizationCountManeuversMission 289
scalar OsgEarthNet.uav[33] utilizationCountManeuversMaintenance 34
scalar OsgEarthNet.uav[33] utilizationCountChargeState 17
scalar OsgEarthNet.uav[33] utilizationCountOverdrawnAfterMission 0
scalar OsgEarthNet.uav[33] utilizationCountIdleState 17
scalar OsgEarthNet.uav[33] utilizationFail 0
scalar OsgEarthNet.uav[33] simulationTime 259200
scalar OsgEarthNet.uav[34] utilizationSecMission 13205.813992224
scalar OsgEarthNet.uav[34] utilizationSecMaintenance 10308.396020319
scalar OsgEarthNet.uav[34] utilizationSecCharge 93860
scalar OsgEarthNet.uav[34] utilizationSecIdle 141825.78898746
scalar OsgEarthNet.uav[34] utilizationEnergyMission 65372.834102631
scalar OsgEarthNet.uav[34] utilizationEnergyMaintenance 48392.946327209
scalar OsgEarthNet.uav[34] utilizationEnergyCharge 114788.20532227
scalar OsgEarthNet.uav[34] utilizationEnergyOverdrawMission 0
scalar OsgEarthNet.uav[34] utilizationEnergyOverdrawMaintenance 0
scalar OsgEarthNet.uav[34] utilizationCountMissions 30
scalar OsgEarthNet.uav[34] utilizationCountManeuversMission 495
scalar OsgEarthNet.uav[34] utilizationCountManeuversMaintenance 60
scalar OsgEarthNet.uav[34] utilizationCountChargeState 30
scalar OsgEarthNet.uav[34] utilizationCountOverdrawnAfterMission 0
scalar OsgEarthNet.uav[34] utilizationCountIdleState 31
scalar OsgEarthNet.uav[34] utilizationFail 0
scalar OsgEarthNet.uav[34] simulationTime 259200
scalar OsgEarthNet.uav[35] utilizationSecMission 41100.526094827
scalar OsgEarthNet.uav[35] utilizationSecMaintenance 17926.357723837
scalar OsgEarthNet.uav[35] utilizationSecCharge 198181.11318134
scalar OsgEarthNet.uav[35] utilizationSecIdle 1992.002
scalar OsgEarthNet.uav[35] utilizationEnergyMission 197548.20894241
scalar OsgEarthNet.uav[35] utilizationEnergyMaintenance 83324.343757629
scalar OsgEarthNet.uav[35] utilizationEnergyCharge 280657.61425781
scalar OsgEarthNet.uav[35] utilizationEnergyOverdrawMission 0
scalar OsgEarthNet.uav[35] utilizationEnergyOverdrawMaintenance 0
scalar OsgEarthNet.uav[35] utilizationCountMissions 61
scalar OsgEarthNet.uav[35] utilizationCountManeuversMission 1255
scalar OsgEarthNet.uav[35] utilizationCountManeuversMaintenance 122
scalar OsgEarthNet.uav[35] utilizationCountChargeState 61
scalar OsgEarthNet.uav[35] utilizationCountOverdrawnAfterMission 0
scalar OsgEarthNet.uav[35] utilizationCountIdleState 10
scalar OsgEarthNet.uav[35] utilizationFail 0
scalar OsgEarthNet.uav[35] simulationTime 259200
scalar OsgEarthNet.uav[36] utilizationSecMission 14724.376068062
scalar OsgEarthNet.uav[36] utilizationSecMaintenance 10475.371225304
scalar OsgEarthNet.uav[36] utilizationSecCharge 93788.247706634
scalar OsgEarthNet.uav[36] utilizationSecIdle 140212.004
scalar OsgEarthNet.uav[36] utilizationEnergyMission 72837.889732361
scalar OsgEarthNet.uav[36] utilizationEnergyMaintenance 49368.382205963
scalar OsgEarthNet.uav[36] utilizationEnergyCharge 121510.78955078
scalar OsgEarthNet.uav[36] utilizationEnergyOverdrawMission 0
scalar OsgEarthNet.uav[36] utilizationEnergyOverdrawMaintenance 0
scalar OsgEarthNet.uav[36] utilizationCountMissions 27
scalar OsgEarthNet.uav[36] utilizationCountManeuversMission 554
scalar OsgEarthNet.uav[36] utilizationCountManeuversMaintenance 54
scalar OsgEarthNet.uav[36] utilizationCountChargeState 27
scalar OsgEarthNet.uav[36] utilizationCountOverdrawnAfterMission 0
scalar OsgEarthNet.uav[36] utilizationCountIdleState 27
scalar OsgEarthNet.uav[36] utilizationFail 0
scalar OsgEarthNet.uav[36] simulationTime 259200
scalar OsgEarthNet.uav[37] utilizationSecMission 20267.357682984
scalar OsgEarthNet.uav[37] utilizationSecMaintenance 14690.127574286
scalar OsgEarthNet.uav[37] utilizationSecCharge 137010
scalar OsgEarthNet.uav[37] utilizationSecIdle 87232.513742731
scalar OsgEarthNet.uav[37] utilizationEnergyMission 100815.52468109
scalar OsgEarthNet.uav[37] utilizationEnergyMaintenance 69496.165683746
scalar OsgEarthNet.uav[37] utilizationEnergyCharge 169200.16650391
scalar OsgEarthNet.uav[37] utilizationEnergyOverdrawMission 0
scalar OsgEarthNet.uav[37] utilizationEnergyOverdrawMaintenance 0
scalar OsgEarthNet.uav[37] utilizationCountMissions 43
scalar OsgEarthNet.uav[37] utilizationCountManeuversMission 722
scalar OsgEarthNet.uav[37] utilizationCountManeuversMaintenance 86
scalar OsgEarthNet.uav[37] utilizationCountChargeState 43
scalar OsgEarthNet.uav[37] utilizationCountOverdrawnAfterMission 0
scalar OsgEarthNet.uav[37] utilizationCountIdleState 44
scalar OsgEarthNet.uav[37] utilizationFail 0
scalar OsgEarthNet.uav[37] simulationTime 259200
scalar OsgEarthNet.uav[38] utilizationSecMission 41131.93680591
scalar OsgEarthNet.uav[38] utilizationSecMaintenance 17946.05919409
scalar OsgEarthNet.uav[38] utilizationSecCharge 196970
scalar OsgEarthNet.uav[38] utilizationSecIdle 3152.003
scalar OsgEarthNet.uav[38] utilizationEnergyMission 198958.59344849
scalar OsgEarthNet.uav[38] utilizationEnergyMaintenance 83041.008205414
scalar OsgEarthNet.uav[38] utilizationEnergyCharge 278049.50732422
scalar OsgEarthNet.uav[38] utilizationEnergyOverdrawMission 0
scalar OsgEarthNet.uav[38] utilizationEnergyOverdrawMaintenance 0
scalar OsgEarthNet.uav[38] utilizationCountMissions 61
scalar OsgEarthNet.uav[38] utilizationCountManeuversMission 1285
scalar OsgEarthNet.uav[38] utilizationCountManeuversMaintenance 123
scalar OsgEarthNet.uav[38] utilizationCountChargeState 61
scalar OsgEarthNet.uav[38] utilizationCountOverdrawnAfterMission 0
scalar OsgEarthNet.uav[38] utilizationCountIdleState 13
scalar OsgEarthNet.uav[38] utilizationFail 0
scalar OsgEarthNet.uav[38] simulationTime 259200
scalar OsgEarthNet.uav[39] utilizationSecMission 11715.368334472
scalar OsgEarthNet.uav[39] utilizationSecMaintenance 6867.9701658952
scalar OsgEarthNet.uav[39] utilizationSecCharge 70120
scalar OsgEarthNet.uav[39] utilizationSecIdle 170496.66049963
scalar OsgEarthNet.uav[39] utilizationEnergyMission 56960.223506927
scalar OsgEarthNet.uav[39] utilizationEnergyMaintenance 32754.412582397
scalar OsgEarthNet.uav[39] utilizationEnergyCharge 90576.151367188
scalar OsgEarthNet.uav[39] utilizationEnergyOverdrawMission 0
scalar OsgEarthNet.uav[39] utilizationEnergyOverdrawMaintenance 0
scalar OsgEarthNet.uav[39] utilizationCountMissions 20
scalar OsgEarthNet.uav[39] utilizationCountManeuversMission 356
scalar OsgEarthNet.uav[39] utilizationCountManeuversMaintenance 40
scalar OsgEarthNet.uav[39] utilizationCountChargeState 20
scalar OsgEarthNet.uav[39] utilizationCountOverdrawnAfterMission 0
scalar OsgEarthNet.uav[39] utilizationCountIdleState 21
scalar OsgEarthNet.uav[39] utilizationFail 0
scalar OsgEarthNet.uav[39] simulationTime 259200
scalar OsgEarthNet.uav[40] utilizationSecMission 13345.001220642
scalar OsgEarthNet.uav[40] utilizationSecMaintenance 9140.9324939486
scalar OsgEarthNet.uav[40] utilizationSecCharge 84590
scalar OsgEarthNet.uav[40] utilizationSecIdle 152124.06528541
scalar OsgEarthNet.uav[40] utilizationEnergyMission 65468.024585724
scalar OsgEarthNet.uav[40] utilizationEnergyMaintenance 43406.37689209
scalar OsgEarthNet.uav[40] utilizationEnergyCharge 109582.70654297
scalar OsgEarthNet.uav[40] utilizationEnergyOverdrawMission 0
scalar OsgEarthNet.uav[40] utilizationEnergyOverdrawMaintenance 0
scalar OsgEarthNet.uav[40] utilizationCountMissions 24
scalar OsgEarthNet.uav[40] utilizationCountManeuversMission 459
scalar OsgEarthNet.uav[40] utilizationCountManeuversMaintenance 48
scalar OsgEarthNet.uav[40] utilizationCountChargeState 24
scalar OsgEarthNet.uav[40] utilizationCountOverdrawnAfterMission 0
scalar OsgEarthNet.uav[40] utilizationCountIdleState 25
scalar OsgEarthNet.uav[40] utilizationFail 0
scalar OsgEarthNet.uav[40] simulationTime 259200
scalar OsgEarthNet.uav[41] utilizationSecMission 17285.207420492
scalar OsgEarthNet.uav[41] utilizationSecMaintenance 12442.777579508
scalar OsgEarthNet.uav[41] utilizationSecCharge 113990
scalar OsgEarthNet.uav[41] utilizationSecIdle 115482.014
scalar OsgEarthNet.uav[41] utilizationEnergyMission 86935.504735218
scalar OsgEarthNet.uav[41] utilizationEnergyMaintenance 59110.048435211
scalar OsgEarthNet.uav[41] utilizationEnergyCharge 142131.66503906
scalar OsgEarthNet.uav[41] utilizationEnergyOverdrawMission 0
scalar OsgEarthNet.uav[41] utilizationEnergyOverdrawMaintenance 0
scalar OsgEarthNet.uav[41] utilizationCountMissions 35
scalar OsgEarthNet.uav[41] utilizationCountManeuversMission 671
scalar OsgEarthNet.uav[41] utilizationCountManeuversMaintenance 71
scalar OsgEarthNet.uav[41] utilizationCountChargeState 35
scalar OsgEarthNet.uav[41] utilizationCountOverdrawnAfterMission 0
scalar OsgEarthNet.uav[41] utilizationCountIdleState 36
scalar OsgEarthNet.uav[41] utilizationFail 0
scalar OsgEarthNet.uav[41] simulationTime 259200
scalar OsgEarthNet.uav[42] utilizationSecMission 41702.424773948
scalar OsgEarthNet.uav[42] utilizationSecMaintenance 17855.572226052
scalar OsgEarthNet.uav[42] utilizationSecCharge 197540
scalar OsgEarthNet.uav[42] utilizationSecIdle 2102.002
scalar OsgEarthNet.uav[42] utilizationEnergyMission 201233.76346207
scalar OsgEarthNet.uav[42] utilizationEnergyMaintenance 82319.974541886
scalar OsgEarthNet.uav[42] utilizationEnergyCharge 280794.81982422
scalar OsgEarthNet.uav[42] utilizationEnergyOverdrawMission 0
scalar OsgEarthNet.uav[42] utilizationEnergyOverdrawMaintenance 0
scalar OsgEarthNet.uav[42] utilizationCountMissions 62
scalar OsgEarthNet.uav[42] utilizationCountManeuversMission 1378
scalar OsgEarthNet.uav[42] utilizationCountManeuversMaintenance 124
scalar OsgEarthNet.uav[42] utilizationCountChargeState 61
scalar OsgEarthNet.uav[42] utilizationCountOverdrawnAfterMission 0
scalar OsgEarthNet.uav[42] utilizationCountIdleState 6
scalar OsgEarthNet.uav[42] utilizationFail 0
scalar OsgEarthNet.uav[42] simulationTime 259200
scalar OsgEarthNet.uav[43] utilizationSecMission 12725.626373223
scalar OsgEarthNet.uav[43] utilizationSecMaintenance 7642.3742978676
scalar OsgEarthNet.uav[43] utilizationSecCharge 77110
scalar OsgEarthNet.uav[43] utilizationSecIdle 161721.99832891
scalar OsgEarthNet.uav[43] utilizationEnergyMission 60946.380626678
scalar OsgEarthNet.uav[43] utilizationEnergyMaintenance 36228.731819153
scalar OsgEarthNet.uav[43] utilizationEnergyCharge 99112.096679688
scalar OsgEarthNet.uav[43] utilizationEnergyOverdrawMission 0
scalar OsgEarthNet.uav[43] utilizationEnergyOverdrawMaintenance 0
scalar OsgEarthNet.uav[43] utilizationCountMissions 22
scalar OsgEarthNet.uav[43] utilizationCountManeuversMission 402
scalar OsgEarthNet.uav[43] utilizationCountManeuversMaintenance 44
scalar OsgEarthNet.uav[43] utilizationCountChargeState 22
scalar OsgEarthNet.uav[43] utilizationCountOverdrawnAfterMission 0
scalar OsgEarthNet.uav[43] utilizationCountIdleState 23
scalar OsgEarthNet.uav[43] utilizationFail 0
scalar OsgEarthNet.uav[43] simulationTime 259200
scalar OsgEarthNet.uav[44] utilizationSecMission 17803.005710736
scalar OsgEarthNet.uav[44] utilizationSecMaintenance 12176.708364504
scalar OsgEarthNet.uav[44] utilizationSecCharge 117250
scalar OsgEarthNet.uav[44] utilizationSecIdle 111970.28492476
scalar OsgEarthNet.uav[44] utilizationEnergyMission 86812.591056824
scalar OsgEarthNet.uav[44] utilizationEnergyMaintenance 57401.491291046
scalar OsgEarthNet.uav[44] utilizationEnergyCharge 142577.03833008
scalar OsgEarthNet.uav[44] utilizationEnergyOverdrawMission 0
scalar OsgEarthNet.uav[44] utilizationEnergyOverdrawMaintenance 0
scalar OsgEarthNet.uav[44] utilizationCountMissions 38
scalar OsgEarthNet.uav[44] utilizationCountManeuversMission 517
scalar OsgEarthNet.uav[44] utilizationCountManeuversMaintenance 76
scalar OsgEarthNet.uav[44] utilizationCountChargeState 38
scalar OsgEarthNet.uav[44] utilizationCountOverdrawnAfterMission 0
scalar OsgEarthNet.uav[44] utilizationCountIdleState 39
scalar OsgEarthNet.uav[44] utilizationFail 0
scalar OsgEarthNet.uav[44] simulationTime 259200
scalar OsgEarthNet.uav[45] utilizationSecMission 41666.18665089
scalar OsgEarthNet.uav[45] utilizationSecMaintenance 17512.47418005
scalar OsgEarthNet.uav[45] utilizationSecCharge 196739.33416906
scalar OsgEarthNet.uav[45] utilizationSecIdle 3282.004
scalar OsgEarthNet.uav[45] utilizationEnergyMission 201904.48818207
scalar OsgEarthNet.uav[45] utilizationEnergyMaintenance 80255.70457077
scalar OsgEarthNet.uav[45] utilizationEnergyCharge 278704.13134766
scalar OsgEarthNet.uav[45] utilizationEnergyOverdrawMission 0
scalar OsgEarthNet.uav[45] utilizationEnergyOverdrawMaintenance 0
scalar OsgEarthNet.uav[45] utilizationCountMissions 61
scalar OsgEarthNet.uav[45] utilizationCountManeuversMission 1256
scalar OsgEarthNet.uav[45] utilizationCountManeuversMaintenance 122
scalar OsgEarthNet.uav[45] utilizationCountChargeState 61
scalar OsgEarthNet.uav[45] utilizationCountOverdrawnAfterMission 0
scalar OsgEarthNet.uav[45] utilizationCountIdleState 8
scalar OsgEarthNet.uav[45] utilizationFail 0
scalar OsgEarthNet.uav[45] simulationTime 259200
scalar OsgEarthNet.uav[46] utilizationSecMission 11483.750915482
scalar OsgEarthNet.uav[46] utilizationSecMaintenance 7957.6590589501
scalar OsgEarthNet.uav[46] utilizationSecCharge 73100
scalar OsgEarthNet.uav[46] utilizationSecIdle 166658.58902557
scalar OsgEarthNet.uav[46] utilizationEnergyMission 56011.670589447
scalar OsgEarthNet.uav[46] utilizationEnergyMaintenance 38215.839351654
scalar OsgEarthNet.uav[46] utilizationEnergyCharge 94047.564453125
scalar OsgEarthNet.uav[46] utilizationEnergyOverdrawMission 0
scalar OsgEarthNet.uav[46] utilizationEnergyOverdrawMaintenance 0
scalar OsgEarthNet.uav[46] utilizationCountMissions 21
scalar OsgEarthNet.uav[46] utilizationCountManeuversMission 418
scalar OsgEarthNet.uav[46] utilizationCountManeuversMaintenance 42
scalar OsgEarthNet.uav[46] utilizationCountChargeState 21
scalar OsgEarthNet.uav[46] utilizationCountOverdrawnAfterMission 0
scalar OsgEarthNet.uav[46] utilizationCountIdleState 22
scalar OsgEarthNet.uav[46] utilizationFail 0
scalar OsgEarthNet.uav[46] simulationTime 259200
scalar OsgEarthNet.uav[47] utilizationSecMission 18402.096840502
scalar OsgEarthNet.uav[47] utilizationSecMaintenance 12065.896159498
scalar OsgEarthNet.uav[47] utilizationSecCharge 117090
scalar OsgEarthNet.uav[47] utilizationSecIdle 111642.006
scalar OsgEarthNet.uav[47] utilizationEnergyMission 89513.528968811
scalar OsgEarthNet.uav[47] utilizationEnergyMaintenance 58440.378907937
scalar OsgEarthNet.uav[47] utilizationEnergyCharge 144128.91137695
scalar OsgEarthNet.uav[47] utilizationEnergyOverdrawMission 0
scalar OsgEarthNet.uav[47] utilizationEnergyOverdrawMaintenance 0
scalar OsgEarthNet.uav[47] utilizationCountMissions 38
scalar OsgEarthNet.uav[47] utilizationCountManeuversMission 518
scalar OsgEarthNet.uav[47] utilizationCountManeuversMaintenance 76
scalar OsgEarthNet.uav[47] utilizationCountChargeState 37
scalar OsgEarthNet.uav[47] utilizationCountOverdrawnAfterMission 0
scalar OsgEarthNet.uav[47] utilizationCountIdleState 38
scalar OsgEarthNet.uav[47] utilizationFail 0
scalar OsgEarthNet.uav[47] simulationTime 259200
scalar OsgEarthNet.uav[48] utilizationSecMission 41104.472329291
scalar OsgEarthNet.uav[48] utilizationSecMaintenance 17823.525670709
scalar OsgEarthNet.uav[48] utilizationSecCharge 197350
scalar OsgEarthNet.uav[48] utilizationSecIdle 2922.001
scalar OsgEarthNet.uav[48] utilizationEnergyMission 195889.84514564
scalar OsgEarthNet.uav[48] utilizationEnergyMaintenance 82944.34469223
scalar OsgEarthNet.uav[48] utilizationEnergyCharge 279711.78466797
scalar OsgEarthNet.uav[48] utilizationEnergyOverdrawMission 0
scalar OsgEarthNet.uav[48] utilizationEnergyOverdrawMaintenance 0
scalar OsgEarthNet.uav[48] utilizationCountMissions 61
scalar OsgEarthNet.uav[48] utilizationCountManeuversMission 1192
scalar OsgEarthNet.uav[48] utilizationCountManeuversMaintenance 123
scalar OsgEarthNet.uav[48] utilizationCountChargeState 61
scalar OsgEarthNet.uav[48] utilizationCountOverdrawnAfterMission 0
scalar OsgEarthNet.uav[48] utilizationCountIdleState 10
scalar OsgEarthNet.uav[48] utilizationFail 0
scalar OsgEarthNet.uav[48] simulationTime 259200
scalar OsgEarthNet.uav[49] utilizationSecMission 13086.251525803
scalar OsgEarthNet.uav[49] utilizationSecMaintenance 7475.4760409156
scalar OsgEarthNet.uav[49] utilizationSecCharge 77210
scalar OsgEarthNet.uav[49] utilizationSecIdle 161428.27143328
scalar OsgEarthNet.uav[49] utilizationEnergyMission 64260.599304199
scalar OsgEarthNet.uav[49] utilizationEnergyMaintenance 35446.685585022
scalar OsgEarthNet.uav[49] utilizationEnergyCharge 99558.208984375
scalar OsgEarthNet.uav[49] utilizationEnergyOverdrawMission 0
scalar OsgEarthNet.uav[49] utilizationEnergyOverdrawMaintenance 0
scalar OsgEarthNet.uav[49] utilizationCountMissions 22
scalar OsgEarthNet.uav[49] utilizationCountManeuversMission 394
scalar OsgEarthNet.uav[49] utilizationCountManeuversMaintenance 44
scalar OsgEarthNet.uav[49] utilizationCountChargeState 22
scalar OsgEarthNet.uav[49] utilizationCountOverdrawnAfterMission 0
scalar OsgEarthNet.uav[49] utilizationCountIdleState 23
scalar OsgEarthNet.uav[49] utilizationFail 0
scalar OsgEarthNet.uav[49] simulationTime 259200
scalar OsgEarthNet.uav[50] utilizationSecMission 15747.501830963
scalar OsgEarthNet.uav[50] utilizationSecMaintenance 9018.8138807948
scalar OsgEarthNet.uav[50] utilizationSecCharge 91120
scalar OsgEarthNet.uav[50] utilizationSecIdle 143313.68328824
scalar OsgEarthNet.uav[50] utilizationEnergyMission 75073.946403503
scalar OsgEarthNet.uav[50] utilizationEnergyMaintenance 42685.922599792
scalar OsgEarthNet.uav[50] utilizationEnergyCharge 117387.07763672
scalar OsgEarthNet.uav[50] utilizationEnergyOverdrawMission 0
scalar OsgEarthNet.uav[50] utilizationEnergyOverdrawMaintenance 0
scalar OsgEarthNet.uav[50] utilizationCountMissions 26
scalar OsgEarthNet.uav[50] utilizationCountManeuversMission 475
scalar OsgEarthNet.uav[50] utilizationCountManeuversMaintenance 52
scalar OsgEarthNet.uav[50] utilizationCountChargeState 26
scalar OsgEarthNet.uav[50] utilizationCountOverdrawnAfterMission 0
scalar OsgEarthNet.uav[50] utilizationCountIdleState 27
scalar OsgEarthNet.uav[50] utilizationFail 0
scalar OsgEarthNet.uav[50] simulationTime 259200
scalar OsgEarthNet.uav[51] utilizationSecMission 17566.242012886
scalar OsgEarthNet.uav[51] utilizationSecMaintenance 11481.653532476
scalar OsgEarthNet.uav[51] utilizationSecCharge 110340.09045464
scalar OsgEarthNet.uav[51] utilizationSecIdle 119812.013
scalar OsgEarthNet.uav[51] utilizationEnergyMission 86964.689712524
scalar OsgEarthNet.uav[51] utilizationEnergyMaintenance 54402.16683197
scalar OsgEarthNet.uav[51] utilizationEnergyCharge 139020.53979492
scalar OsgEarthNet.uav[51] utilizationEnergyOverdrawMission 0
scalar OsgEarthNet.uav[51] utilizationEnergyOverdrawMaintenance 0
scalar OsgEarthNet.uav[51] utilizationCountMissions 34
scalar OsgEarthNet.uav[51] utilizationCountManeuversMission 581
scalar OsgEarthNet.uav[51] utilizationCountManeuversMaintenance 68
scalar OsgEarthNet.uav[51] utilizationCountChargeState 34
scalar OsgEarthNet.uav[51] utilizationCountOverdrawnAfterMission 0
scalar OsgEarthNet.uav[51] utilizationCountIdleState 34
scalar OsgEarthNet.uav[51] utilizationFail 0
scalar OsgEarthNet.uav[51] simulationTime 259200
scalar OsgEarthNet.uav[52] utilizationSecMission 42405.705652302
scalar OsgEarthNet.uav[52] utilizationSecMaintenance 17302.293347698
scalar OsgEarthNet.uav[52] utilizationSecCharge 198080
scalar OsgEarthNet.uav[52] utilizationSecIdle 1412
scalar OsgEarthNet.uav[52] utilizationEnergyMission 205669.08760101
scalar OsgEarthNet.uav[52] utilizationEnergyMaintenance 78823.603359222
scalar OsgEarthNet.uav[52] utilizationEnergyCharge 280876.89306641
scalar OsgEarthNet.uav[52] utilizationEnergyOverdrawMission 0
scalar OsgEarthNet.uav[52] utilizationEnergyOverdrawMaintenance 0
scalar OsgEarthNet.uav[52] utilizationCountMissions 61
scalar OsgEarthNet.uav[52] utilizationCountManeuversMission 1222
scalar OsgEarthNet.uav[52] utilizationCountManeuversMaintenance 123
scalar OsgEarthNet.uav[52] utilizationCountChargeState 61
scalar OsgEarthNet.uav[52] utilizationCountOverdrawnAfterMission 0
scalar OsgEarthNet.uav[52] utilizationCountIdleState 11
scalar OsgEarthNet.uav[52] utilizationFail 0
scalar OsgEarthNet.uav[52] simulationTime 259200
scalar OsgEarthNet.uav[53] utilizationSecMission 41605.497921449
scalar OsgEarthNet.uav[53] utilizationSecMaintenance 17461.145349137
scalar OsgEarthNet.uav[53] utilizationSecCharge 199001.35572941
scalar OsgEarthNet.uav[53] utilizationSecIdle 1132
scalar OsgEarthNet.uav[53] utilizationEnergyMission 199311.19007111
scalar OsgEarthNet.uav[53] utilizationEnergyMaintenance 80288.70092392
scalar OsgEarthNet.uav[53] utilizationEnergyCharge 280762.27636719
scalar OsgEarthNet.uav[53] utilizationEnergyOverdrawMission 0
scalar OsgEarthNet.uav[53] utilizationEnergyOverdrawMaintenance 0
scalar OsgEarthNet.uav[53] utilizationCountMissions 61
scalar OsgEarthNet.uav[53] utilizationCountManeuversMission 1186
scalar OsgEarthNet.uav[53] utilizationCountManeuversMaintenance 121
scalar OsgEarthNet.uav[53] utilizationCountChargeState 61
scalar OsgEarthNet.uav[53] utilizationCountOverdrawnAfterMission 0
scalar OsgEarthNet.uav[53] utilizationCountIdleState 14
scalar OsgEarthNet.uav[53] utilizationFail 0
scalar OsgEarthNet.uav[53] simulationTime 259200
scalar OsgEarthNet.uav[54] utilizationSecMission 20124.63107228
scalar OsgEarthNet.uav[54] utilizationSecMaintenance 12363.649983836
scalar OsgEarthNet.uav[54] utilizationSecCharge 123210
scalar OsgEarthNet.uav[54] utilizationSecIdle 103501.71794388
scalar OsgEarthNet.uav[54] utilizationEnergyMission 97302.339874268
scalar OsgEarthNet.uav[54] utilizationEnergyMaintenance 58545.918495178
scalar OsgEarthNet.uav[54] utilizationEnergyCharge 154925.71166992
scalar OsgEarthNet.uav[54] utilizationEnergyOverdrawMission 0
scalar OsgEarthNet.uav[54] utilizationEnergyOverdrawMaintenance 0
scalar OsgEarthNet.uav[54] utilizationCountMissions 37
scalar OsgEarthNet.uav[54] utilizationCountManeuversMission 628
scalar OsgEarthNet.uav[54] utilizationCountManeuversMaintenance 74
scalar OsgEarthNet.uav[54] utilizationCountChargeState 37
scalar OsgEarthNet.uav[54] utilizationCountOverdrawnAfterMission 0
scalar OsgEarthNet.uav[54] utilizationCountIdleState 38
scalar OsgEarthNet.uav[54] utilizationFail 0
scalar OsgEarthNet.uav[54] simulationTime 259200
scalar OsgEarthNet.uav[55] utilizationSecMission 41172.835637703
scalar OsgEarthNet.uav[55] utilizationSecMaintenance 17838.026435747
scalar OsgEarthNet.uav[55] utilizationSecCharge 195685.67588377
scalar OsgEarthNet.uav[55] utilizationSecIdle 4503.4610427756
scalar OsgEarthNet.uav[55] utilizationEnergyMission 197937.30802917
scalar OsgEarthNet.uav[55] utilizationEnergyMaintenance 82164.931983948
scalar OsgEarthNet.uav[55] utilizationEnergyCharge 277033.65673828
scalar OsgEarthNet.uav[55] utilizationEnergyOverdrawMission 0
scalar OsgEarthNet.uav[55] utilizationEnergyOverdrawMaintenance 0
scalar OsgEarthNet.uav[55] utilizationCountMissions 61
scalar OsgEarthNet.uav[55] utilizationCountManeuversMission 1216
scalar OsgEarthNet.uav[55] utilizationCountManeuversMaintenance 122
scalar OsgEarthNet.uav[55] utilizationCountChargeState 61
scalar OsgEarthNet.uav[55] utilizationCountOverdrawnAfterMission 0
scalar OsgEarthNet.uav[55] utilizationCountIdleState 9
scalar OsgEarthNet.uav[55] utilizationFail 0
scalar OsgEarthNet.uav[55] simulationTime 259200
scalar OsgEarthNet.uav[56] utilizationSecMission 10583.750915482
scalar OsgEarthNet.uav[56] utilizationSecMaintenance 7150.1629272198
scalar OsgEarthNet.uav[56] utilizationSecCharge 66450
scalar OsgEarthNet.uav[56] utilizationSecIdle 175016.0851573
scalar OsgEarthNet.uav[56] utilizationEnergyMission 51982.706695557
scalar OsgEarthNet.uav[56] utilizationEnergyMaintenance 34352.761692047
scalar OsgEarthNet.uav[56] utilizationEnergyCharge 85694.404785156
scalar OsgEarthNet.uav[56] utilizationEnergyOverdrawMission 0
scalar OsgEarthNet.uav[56] utilizationEnergyOverdrawMaintenance 0
scalar OsgEarthNet.uav[56] utilizationCountMissions 19
scalar OsgEarthNet.uav[56] utilizationCountManeuversMission 373
scalar OsgEarthNet.uav[56] utilizationCountManeuversMaintenance 38
scalar OsgEarthNet.uav[56] utilizationCountChargeState 19
scalar OsgEarthNet.uav[56] utilizationCountOverdrawnAfterMission 0
scalar OsgEarthNet.uav[56] utilizationCountIdleState 20
scalar OsgEarthNet.uav[56] utilizationFail 0
scalar OsgEarthNet.uav[56] simulationTime 259200
scalar OsgEarthNet.uav[57] utilizationSecMission 20530.719114213
scalar OsgEarthNet.uav[57] utilizationSecMaintenance 15498.072205409
scalar OsgEarthNet.uav[57] utilizationSecCharge 141966.59579086
scalar OsgEarthNet.uav[57] utilizationSecIdle 81204.611889516
scalar OsgEarthNet.uav[57] utilizationEnergyMission 99427.105007172
scalar OsgEarthNet.uav[57] utilizationEnergyMaintenance 73779.197814941
scalar OsgEarthNet.uav[57] utilizationEnergyCharge 172177.75622559
scalar OsgEarthNet.uav[57] utilizationEnergyOverdrawMission 0
scalar OsgEarthNet.uav[57] utilizationEnergyOverdrawMaintenance 0
scalar OsgEarthNet.uav[57] utilizationCountMissions 47
scalar OsgEarthNet.uav[57] utilizationCountManeuversMission 667
scalar OsgEarthNet.uav[57] utilizationCountManeuversMaintenance 94
scalar OsgEarthNet.uav[57] utilizationCountChargeState 47
scalar OsgEarthNet.uav[57] utilizationCountOverdrawnAfterMission 0
scalar OsgEarthNet.uav[57] utilizationCountIdleState 47
scalar OsgEarthNet.uav[57] utilizationFail 0
scalar OsgEarthNet.uav[57] simulationTime 259200
scalar OsgEarthNet.uav[58] utilizationSecMission 41137.241274371
scalar OsgEarthNet.uav[58] utilizationSecMaintenance 17507.127423983
scalar OsgEarthNet.uav[58] utilizationSecCharge 195625.58776173
scalar OsgEarthNet.uav[58] utilizationSecIdle 4930.0425399159
scalar OsgEarthNet.uav[58] utilizationEnergyMission 196459.70804214
scalar OsgEarthNet.uav[58] utilizationEnergyMaintenance 80541.443725586
scalar OsgEarthNet.uav[58] utilizationEnergyCharge 276247.12329102
scalar OsgEarthNet.uav[58] utilizationEnergyOverdrawMission 0
scalar OsgEarthNet.uav[58] utilizationEnergyOverdrawMaintenance 0
scalar OsgEarthNet.uav[58] utilizationCountMissions 60
scalar OsgEarthNet.uav[58] utilizationCountManeuversMission 1130
scalar OsgEarthNet.uav[58] utilizationCountManeuversMaintenance 120
scalar OsgEarthNet.uav[58] utilizationCountChargeState 60
scalar OsgEarthNet.uav[58] utilizationCountOverdrawnAfterMission 0
scalar OsgEarthNet.uav[58] utilizationCountIdleState 11
scalar OsgEarthNet.uav[58] utilizationFail 0
scalar OsgEarthNet.uav[58] simulationTime 259200
scalar OsgEarthNet.uav[59] utilizationSecMission 22131.252746445
scalar OsgEarthNet.uav[59] utilizationSecMaintenance 11976.746253555
scalar OsgEarthNet.uav[59] utilizationSecCharge 122350
scalar OsgEarthNet.uav[59] utilizationSecIdle 102742
scalar OsgEarthNet.uav[59] utilizationEnergyMission 105208.36204529
scalar OsgEarthNet.uav[59] utilizationEnergyMaintenance 56341.427443206
scalar OsgEarthNet.uav[59] utilizationEnergyCharge 157366.55371094
scalar OsgEarthNet.uav[59] utilizationEnergyOverdrawMission 0
scalar OsgEarthNet.uav[59] utilizationEnergyOverdrawMaintenance 0
scalar OsgEarthNet.uav[59] utilizationCountMissions 36
scalar OsgEarthNet.uav[59] utilizationCountManeuversMission 638
scalar OsgEarthNet.uav[59] utilizationCountManeuversMaintenance 72
scalar OsgEarthNet.uav[59] utilizationCountChargeState 35
scalar OsgEarthNet.uav[59] utilizationCountOverdrawnAfterMission 0
scalar OsgEarthNet.uav[59] utilizationCountIdleState 36
scalar OsgEarthNet.uav[59] utilizationFail 0
scalar OsgEarthNet.uav[59] simulationTime 259200
scalar OsgEarthNet.uav[60] utilizationSecMission 17299.010174875
scalar OsgEarthNet.uav[60] utilizationSecMaintenance 9372.0943013097
scalar OsgEarthNet.uav[60] utilizationSecCharge 98770
scalar OsgEarthNet.uav[60] utilizationSecIdle 133758.89452382
scalar OsgEarthNet.uav[60] utilizationEnergyMission 82453.376674652
scalar OsgEarthNet.uav[60] utilizationEnergyMaintenance 44952.898727417
scalar OsgEarthNet.uav[60] utilizationEnergyCharge 127752.14160156
scalar OsgEarthNet.uav[60] utilizationEnergyOverdrawMission 0
scalar OsgEarthNet.uav[60] utilizationEnergyOverdrawMaintenance 0
scalar OsgEarthNet.uav[60] utilizationCountMissions 28
scalar OsgEarthNet.uav[60] utilizationCountManeuversMission 496
scalar OsgEarthNet.uav[60] utilizationCountManeuversMaintenance 56
scalar OsgEarthNet.uav[60] utilizationCountChargeState 28
scalar OsgEarthNet.uav[60] utilizationCountOverdrawnAfterMission 0
scalar OsgEarthNet.uav[60] utilizationCountIdleState 29
scalar OsgEarthNet.uav[60] utilizationFail 0
scalar OsgEarthNet.uav[60] simulationTime 259200
scalar OsgEarthNet.uav[61] utilizationSecMission 18552.551275619
scalar OsgEarthNet.uav[61] utilizationSecMaintenance 12577.92946358
scalar OsgEarthNet.uav[61] utilizationSecCharge 121701.51643457
scalar OsgEarthNet.uav[61] utilizationSecIdle 106368.00182623
scalar OsgEarthNet.uav[61] utilizationEnergyMission 89229.150512695
scalar OsgEarthNet.uav[61] utilizationEnergyMaintenance 59771.374908447
scalar OsgEarthNet.uav[61] utilizationEnergyCharge 149861.2109375
scalar OsgEarthNet.uav[61] utilizationEnergyOverdrawMission 0
scalar OsgEarthNet.uav[61] utilizationEnergyOverdrawMaintenance 0
scalar OsgEarthNet.uav[61] utilizationCountMissions 39
scalar OsgEarthNet.uav[61] utilizationCountManeuversMission 540
scalar OsgEarthNet.uav[61] utilizationCountManeuversMaintenance 78
scalar OsgEarthNet.uav[61] utilizationCountChargeState 39
scalar OsgEarthNet.uav[61] utilizationCountOverdrawnAfterMission 0
scalar OsgEarthNet.uav[61] utilizationCountIdleState 39
scalar OsgEarthNet.uav[61] utilizationFail 0
scalar OsgEarthNet.uav[61] simulationTime 259200
scalar OsgEarthNet.uav[62] utilizationSecMission 40460.080221402
scalar OsgEarthNet.uav[62] utilizationSecMaintenance 19490.431382039
scalar OsgEarthNet.uav[62] utilizationSecCharge 197642.03713253
scalar OsgEarthNet.uav[62] utilizationSecIdle 1607.4502640309
scalar OsgEarthNet.uav[62] utilizationEnergyMission 196131.22691727
scalar OsgEarthNet.uav[62] utilizationEnergyMaintenance 90640.632526398
scalar OsgEarthNet.uav[62] utilizationEnergyCharge 281172.55993652
scalar OsgEarthNet.uav[62] utilizationEnergyOverdrawMission 0
scalar OsgEarthNet.uav[62] utilizationEnergyOverdrawMaintenance 0
scalar OsgEarthNet.uav[62] utilizationCountMissions 62
scalar OsgEarthNet.uav[62] utilizationCountManeuversMission 1176
scalar OsgEarthNet.uav[62] utilizationCountManeuversMaintenance 124
scalar OsgEarthNet.uav[62] utilizationCountChargeState 62
scalar OsgEarthNet.uav[62] utilizationCountOverdrawnAfterMission 0
scalar OsgEarthNet.uav[62] utilizationCountIdleState 9
scalar OsgEarthNet.uav[62] utilizationFail 0
scalar OsgEarthNet.uav[62] simulationTime 259200
scalar OsgEarthNet.uav[63] utilizationSecMission 16165.110295721
scalar OsgEarthNet.uav[63] utilizationSecMaintenance 10927.927645092
scalar OsgEarthNet.uav[63] utilizationSecCharge 97794.949059186
scalar OsgEarthNet.uav[63] utilizationSecIdle 134312.012
scalar OsgEarthNet.uav[63] utilizationEnergyMission 79293.435253143
scalar OsgEarthNet.uav[63] utilizationEnergyMaintenance 52087.044124603
scalar OsgEarthNet.uav[63] utilizationEnergyCharge 126072.10253906
scalar OsgEarthNet.uav[63] utilizationEnergyOverdrawMission 0
scalar OsgEarthNet.uav[63] utilizationEnergyOverdrawMaintenance 0
scalar OsgEarthNet.uav[63] utilizationCountMissions 29
scalar OsgEarthNet.uav[63] utilizationCountManeuversMission 583
scalar OsgEarthNet.uav[63] utilizationCountManeuversMaintenance 58
scalar OsgEarthNet.uav[63] utilizationCountChargeState 29
scalar OsgEarthNet.uav[63] utilizationCountOverdrawnAfterMission 0
scalar OsgEarthNet.uav[63] utilizationCountIdleState 29
scalar OsgEarthNet.uav[63] utilizationFail 0
scalar OsgEarthNet.uav[63] simulationTime 259200
scalar OsgEarthNet.uav[64] utilizationSecMission 19515.16996538
scalar OsgEarthNet.uav[64] utilizationSecMaintenance 13739.187863582
scalar OsgEarthNet.uav[64] utilizationSecCharge 127788.67686586
scalar OsgEarthNet.uav[64] utilizationSecIdle 98156.964305182
scalar OsgEarthNet.uav[64] utilizationEnergyMission 95970.47561264
scalar OsgEarthNet.uav[64] utilizationEnergyMaintenance 66204.498313904
scalar OsgEarthNet.uav[64] utilizationEnergyCharge 157931.31652832
scalar OsgEarthNet.uav[64] utilizationEnergyOverdrawMission 0
scalar OsgEarthNet.uav[64] utilizationEnergyOverdrawMaintenance 0
scalar OsgEarthNet.uav[64] utilizationCountMissions 41
scalar OsgEarthNet.uav[64] utilizationCountManeuversMission 642
scalar OsgEarthNet.uav[64] utilizationCountManeuversMaintenance 82
scalar OsgEarthNet.uav[64] utilizationCountChargeState 41
scalar OsgEarthNet.uav[64] utilizationCountOverdrawnAfterMission 0
scalar OsgEarthNet.uav[64] utilizationCountIdleState 41
scalar OsgEarthNet.uav[64] utilizationFail 0
scalar OsgEarthNet.uav[64] simulationTime 259200
scalar OsgEarthNet.uav[65] utilizationSecMission 41388.125438134
scalar OsgEarthNet.uav[65] utilizationSecMaintenance 18063.546811453
scalar OsgEarthNet.uav[65] utilizationSecCharge 196744.80142138
scalar OsgEarthNet.uav[65] utilizationSecIdle 3003.5253290289
scalar OsgEarthNet.uav[65] utilizationEnergyMission 200077.13913345
[...]
scalar OsgEarthNet.uav[280] utilizationSecIdle 259199.999
scalar OsgEarthNet.uav[280] utilizationEnergyMission 0
scalar OsgEarthNet.uav[280] utilizationEnergyMaintenance 0
scalar OsgEarthNet.uav[280] utilizationEnergyCharge 0
scalar OsgEarthNet.uav[280] utilizationEnergyOverdrawMission 0
scalar OsgEarthNet.uav[280] utilizationEnergyOverdrawMaintenance 0
scalar OsgEarthNet.uav[280] utilizationCountMissions 0
scalar OsgEarthNet.uav[280] utilizationCountManeuversMission 0
scalar OsgEarthNet.uav[280] utilizationCountManeuversMaintenance 0
scalar OsgEarthNet.uav[280] utilizationCountChargeState 0
scalar OsgEarthNet.uav[280] utilizationCountOverdrawnAfterMission 0
scalar OsgEarthNet.uav[280] utilizationCountIdleState 1
scalar OsgEarthNet.uav[280] utilizationFail 0
scalar OsgEarthNet.uav[280] simulationTime 259200
scalar OsgEarthNet.uav[281] utilizationSecMission 0
scalar OsgEarthNet.uav[281] utilizationSecMaintenance 0
scalar OsgEarthNet.uav[281] utilizationSecCharge 0
scalar OsgEarthNet.uav[281] utilizationSecIdle 259199.999
scalar OsgEarthNet.uav[281] utilizationEnergyMission 0
scalar OsgEarthNet.uav[281] utilizationEnergyMaintenance 0
scalar OsgEarthNet.uav[281] utilizationEnergyCharge 0
scalar OsgEarthNet.uav[281] utilizationEnergyOverdrawMission 0
scalar OsgEarthNet.uav[281] utilizationEnergyOverdrawMaintenance 0
scalar OsgEarthNet.uav[281] utilizationCountMissions 0
scalar OsgEarthNet.uav[281] utilizationCountManeuversMission 0
scalar OsgEarthNet.uav[281] utilizationCountManeuversMaintenance 0
scalar OsgEarthNet.uav[281] utilizationCountChargeState 0
scalar OsgEarthNet.uav[281] utilizationCountOverdrawnAfterMission 0
scalar OsgEarthNet.uav[281] utilizationCountIdleState 1
scalar OsgEarthNet.uav[281] utilizationFail 0
scalar OsgEarthNet.uav[281] simulationTime 259200
scalar OsgEarthNet.uav[282] utilizationSecMission 0
scalar OsgEarthNet.uav[282] utilizationSecMaintenance 0
scalar OsgEarthNet.uav[282] utilizationSecCharge 0
scalar OsgEarthNet.uav[282] utilizationSecIdle 259199.999
scalar OsgEarthNet.uav[282] utilizationEnergyMission 0
scalar OsgEarthNet.uav[282] utilizationEnergyMaintenance 0
scalar OsgEarthNet.uav[282] utilizationEnergyCharge 0
scalar OsgEarthNet.uav[282] utilizationEnergyOverdrawMission 0
scalar OsgEarthNet.uav[282] utilizationEnergyOverdrawMaintenance 0
scalar OsgEarthNet.uav[282] utilizationCountMissions 0
scalar OsgEarthNet.uav[282] utilizationCountManeuversMission 0
scalar OsgEarthNet.uav[282] utilizationCountManeuversMaintenance 0
scalar OsgEarthNet.uav[282] utilizationCountChargeState 0
scalar OsgEarthNet.uav[282] utilizationCountOverdrawnAfterMission 0
scalar OsgEarthNet.uav[282] utilizationCountIdleState 1
scalar OsgEarthNet.uav[282] utilizationFail 0
scalar OsgEarthNet.uav[282] simulationTime 259200
scalar OsgEarthNet.uav[283] utilizationSecMission 0
scalar OsgEarthNet.uav[283] utilizationSecMaintenance 0
scalar OsgEarthNet.uav[283] utilizationSecCharge 0
scalar OsgEarthNet.uav[283] utilizationSecIdle 259199.999
scalar OsgEarthNet.uav[283] utilizationEnergyMission 0
scalar OsgEarthNet.uav[283] utilizationEnergyMaintenance 0
scalar OsgEarthNet.uav[283] utilizationEnergyCharge 0
scalar OsgEarthNet.uav[283] utilizationEnergyOverdrawMission 0
scalar OsgEarthNet.uav[283] utilizationEnergyOverdrawMaintenance 0
scalar OsgEarthNet.uav[283] utilizationCountMissions 0
scalar OsgEarthNet.uav[283] utilizationCountManeuversMission 0
scalar OsgEarthNet.uav[283] utilizationCountManeuversMaintenance 0
scalar OsgEarthNet.uav[283] utilizationCountChargeState 0
scalar OsgEarthNet.uav[283] utilizationCountOverdrawnAfterMission 0
scalar OsgEarthNet.uav[283] utilizationCountIdleState 1
scalar OsgEarthNet.uav[283] utilizationFail 0
scalar OsgEarthNet.uav[283] simulationTime 259200
scalar OsgEarthNet.uav[284] utilizationSecMission 0
scalar OsgEarthNet.uav[284] utilizationSecMaintenance 0
scalar OsgEarthNet.uav[284] utilizationSecCharge 0
scalar OsgEarthNet.uav[284] utilizationSecIdle 259199.999
scalar OsgEarthNet.uav[284] utilizationEnergyMission 0
scalar OsgEarthNet.uav[284] utilizationEnergyMaintenance 0
scalar OsgEarthNet.uav[284] utilizationEnergyCharge 0
scalar OsgEarthNet.uav[284] utilizationEnergyOverdrawMission 0
scalar OsgEarthNet.uav[284] utilizationEnergyOverdrawMaintenance 0
scalar OsgEarthNet.uav[284] utilizationCountMissions 0
scalar OsgEarthNet.uav[284] utilizationCountManeuversMission 0
scalar OsgEarthNet.uav[284] utilizationCountManeuversMaintenance 0
scalar OsgEarthNet.uav[284] utilizationCountChargeState 0
scalar OsgEarthNet.uav[284] utilizationCountOverdrawnAfterMission 0
scalar OsgEarthNet.uav[284] utilizationCountIdleState 1
scalar OsgEarthNet.uav[284] utilizationFail 0
scalar OsgEarthNet.uav[284] simulationTime 259200
scalar OsgEarthNet.uav[285] utilizationSecMission 0
scalar OsgEarthNet.uav[285] utilizationSecMaintenance 0
scalar OsgEarthNet.uav[285] utilizationSecCharge 0
scalar OsgEarthNet.uav[285] utilizationSecIdle 259199.999
scalar OsgEarthNet.uav[285] utilizationEnergyMission 0
scalar OsgEarthNet.uav[285] utilizationEnergyMaintenance 0
scalar OsgEarthNet.uav[285] utilizationEnergyCharge 0
scalar OsgEarthNet.uav[285] utilizationEnergyOverdrawMission 0
scalar OsgEarthNet.uav[285] utilizationEnergyOverdrawMaintenance 0
scalar OsgEarthNet.uav[285] utilizationCountMissions 0
scalar OsgEarthNet.uav[285] utilizationCountManeuversMission 0
scalar OsgEarthNet.uav[285] utilizationCountManeuversMaintenance 0
scalar OsgEarthNet.uav[285] utilizationCountChargeState 0
scalar OsgEarthNet.uav[285] utilizationCountOverdrawnAfterMission 0
scalar OsgEarthNet.uav[285] utilizationCountIdleState 1
scalar OsgEarthNet.uav[285] utilizationFail 0
scalar OsgEarthNet.uav[285] simulationTime 259200
scalar OsgEarthNet.uav[286] utilizationSecMission 0
scalar OsgEarthNet.uav[286] utilizationSecMaintenance 0
scalar OsgEarthNet.uav[286] utilizationSecCharge 0
scalar OsgEarthNet.uav[286] utilizationSecIdle 259199.999
scalar OsgEarthNet.uav[286] utilizationEnergyMission 0
scalar OsgEarthNet.uav[286] utilizationEnergyMaintenance 0
scalar OsgEarthNet.uav[286] utilizationEnergyCharge 0
scalar OsgEarthNet.uav[286] utilizationEnergyOverdrawMission 0
scalar OsgEarthNet.uav[286] utilizationEnergyOverdrawMaintenance 0
scalar OsgEarthNet.uav[286] utilizationCountMissions 0
scalar OsgEarthNet.uav[286] utilizationCountManeuversMission 0
scalar OsgEarthNet.uav[286] utilizationCountManeuversMaintenance 0
scalar OsgEarthNet.uav[286] utilizationCountChargeState 0
scalar OsgEarthNet.uav[286] utilizationCountOverdrawnAfterMission 0
scalar OsgEarthNet.uav[286] utilizationCountIdleState 1
scalar OsgEarthNet.uav[286] utilizationFail 0
scalar OsgEarthNet.uav[286] simulationTime 259200
scalar OsgEarthNet.uav[287] utilizationSecMission 0
scalar OsgEarthNet.uav[287] utilizationSecMaintenance 0
scalar OsgEarthNet.uav[287] utilizationSecCharge 0
scalar OsgEarthNet.uav[287] utilizationSecIdle 259199.999
scalar OsgEarthNet.uav[287] utilizationEnergyMission 0
scalar OsgEarthNet.uav[287] utilizationEnergyMaintenance 0
scalar OsgEarthNet.uav[287] utilizationEnergyCharge 0
scalar OsgEarthNet.uav[287] utilizationEnergyOverdrawMission 0
scalar OsgEarthNet.uav[287] utilizationEnergyOverdrawMaintenance 0
scalar OsgEarthNet.uav[287] utilizationCountMissions 0
scalar OsgEarthNet.uav[287] utilizationCountManeuversMission 0
scalar OsgEarthNet.uav[287] utilizationCountManeuversMaintenance 0
scalar OsgEarthNet.uav[287] utilizationCountChargeState 0
scalar OsgEarthNet.uav[287] utilizationCountOverdrawnAfterMission 0
scalar OsgEarthNet.uav[287] utilizationCountIdleState 1
scalar OsgEarthNet.uav[287] utilizationFail 0
scalar OsgEarthNet.uav[287] simulationTime 259200
scalar OsgEarthNet.uav[288] utilizationSecMission 0
scalar OsgEarthNet.uav[288] utilizationSecMaintenance 0
scalar OsgEarthNet.uav[288] utilizationSecCharge 0
scalar OsgEarthNet.uav[288] utilizationSecIdle 259199.999
scalar OsgEarthNet.uav[288] utilizationEnergyMission 0
scalar OsgEarthNet.uav[288] utilizationEnergyMaintenance 0
scalar OsgEarthNet.uav[288] utilizationEnergyCharge 0
scalar OsgEarthNet.uav[288] utilizationEnergyOverdrawMission 0
scalar OsgEarthNet.uav[288] utilizationEnergyOverdrawMaintenance 0
scalar OsgEarthNet.uav[288] utilizationCountMissions 0
scalar OsgEarthNet.uav[288] utilizationCountManeuversMission 0
scalar OsgEarthNet.uav[288] utilizationCountManeuversMaintenance 0
scalar OsgEarthNet.uav[288] utilizationCountChargeState 0
scalar OsgEarthNet.uav[288] utilizationCountOverdrawnAfterMission 0
scalar OsgEarthNet.uav[288] utilizationCountIdleState 1
scalar OsgEarthNet.uav[288] utilizationFail 0
scalar OsgEarthNet.uav[288] simulationTime 259200
scalar OsgEarthNet.uav[289] utilizationSecMission 0
scalar OsgEarthNet.uav[289] utilizationSecMaintenance 0
scalar OsgEarthNet.uav[289] utilizationSecCharge 0
scalar OsgEarthNet.uav[289] utilizationSecIdle 259199.999
scalar OsgEarthNet.uav[289] utilizationEnergyMission 0
scalar OsgEarthNet.uav[289] utilizationEnergyMaintenance 0
scalar OsgEarthNet.uav[289] utilizationEnergyCharge 0
scalar OsgEarthNet.uav[289] utilizationEnergyOverdrawMission 0
scalar OsgEarthNet.uav[289] utilizationEnergyOverdrawMaintenance 0
scalar OsgEarthNet.uav[289] utilizationCountMissions 0
scalar OsgEarthNet.uav[289] utilizationCountManeuversMission 0
scalar OsgEarthNet.uav[289] utilizationCountManeuversMaintenance 0
scalar OsgEarthNet.uav[289] utilizationCountChargeState 0
scalar OsgEarthNet.uav[289] utilizationCountOverdrawnAfterMission 0
scalar OsgEarthNet.uav[289] utilizationCountIdleState 1
scalar OsgEarthNet.uav[289] utilizationFail 0
scalar OsgEarthNet.uav[289] simulationTime 259200
scalar OsgEarthNet.uav[290] utilizationSecMission 0
scalar OsgEarthNet.uav[290] utilizationSecMaintenance 0
scalar OsgEarthNet.uav[290] utilizationSecCharge 0
scalar OsgEarthNet.uav[290] utilizationSecIdle 259199.999
scalar OsgEarthNet.uav[290] utilizationEnergyMission 0
scalar OsgEarthNet.uav[290] utilizationEnergyMaintenance 0
scalar OsgEarthNet.uav[290] utilizationEnergyCharge 0
scalar OsgEarthNet.uav[290] utilizationEnergyOverdrawMission 0
scalar OsgEarthNet.uav[290] utilizationEnergyOverdrawMaintenance 0
scalar OsgEarthNet.uav[290] utilizationCountMissions 0
scalar OsgEarthNet.uav[290] utilizationCountManeuversMission 0
scalar OsgEarthNet.uav[290] utilizationCountManeuversMaintenance 0
scalar OsgEarthNet.uav[290] utilizationCountChargeState 0
scalar OsgEarthNet.uav[290] utilizationCountOverdrawnAfterMission 0
scalar OsgEarthNet.uav[290] utilizationCountIdleState 1
scalar OsgEarthNet.uav[290] utilizationFail 0
scalar OsgEarthNet.uav[290] simulationTime 259200
scalar OsgEarthNet.uav[291] utilizationSecMission 0
scalar OsgEarthNet.uav[291] utilizationSecMaintenance 0
scalar OsgEarthNet.uav[291] utilizationSecCharge 0
scalar OsgEarthNet.uav[291] utilizationSecIdle 259199.999
scalar OsgEarthNet.uav[291] utilizationEnergyMission 0
scalar OsgEarthNet.uav[291] utilizationEnergyMaintenance 0
scalar OsgEarthNet.uav[291] utilizationEnergyCharge 0
scalar OsgEarthNet.uav[291] utilizationEnergyOverdrawMission 0
scalar OsgEarthNet.uav[291] utilizationEnergyOverdrawMaintenance 0
scalar OsgEarthNet.uav[291] utilizationCountMissions 0
scalar OsgEarthNet.uav[291] utilizationCountManeuversMission 0
scalar OsgEarthNet.uav[291] utilizationCountManeuversMaintenance 0
scalar OsgEarthNet.uav[291] utilizationCountChargeState 0
scalar OsgEarthNet.uav[291] utilizationCountOverdrawnAfterMission 0
scalar OsgEarthNet.uav[291] utilizationCountIdleState 1
scalar OsgEarthNet.uav[291] utilizationFail 0
scalar OsgEarthNet.uav[291] simulationTime 259200
scalar OsgEarthNet.uav[292] utilizationSecMission 0
scalar OsgEarthNet.uav[292] utilizationSecMaintenance 0
scalar OsgEarthNet.uav[292] utilizationSecCharge 0
scalar OsgEarthNet.uav[292] utilizationSecIdle 259199.999
scalar OsgEarthNet.uav[292] utilizationEnergyMission 0
scalar OsgEarthNet.uav[292] utilizationEnergyMaintenance 0
scalar OsgEarthNet.uav[292] utilizationEnergyCharge 0
scalar OsgEarthNet.uav[292] utilizationEnergyOverdrawMission 0
scalar OsgEarthNet.uav[292] utilizationEnergyOverdrawMaintenance 0
scalar OsgEarthNet.uav[292] utilizationCountMissions 0
scalar OsgEarthNet.uav[292] utilizationCountManeuversMission 0
scalar OsgEarthNet.uav[292] utilizationCountManeuversMaintenance 0
scalar OsgEarthNet.uav[292] utilizationCountChargeState 0
scalar OsgEarthNet.uav[292] utilizationCountOverdrawnAfterMission 0
scalar OsgEarthNet.uav[292] utilizationCountIdleState 1
scalar OsgEarthNet.uav[292] utilizationFail 0
scalar OsgEarthNet.uav[292] simulationTime 259200
scalar OsgEarthNet.uav[293] utilizationSecMission 0
scalar OsgEarthNet.uav[293] utilizationSecMaintenance 0
scalar OsgEarthNet.uav[293] utilizationSecCharge 0
scalar OsgEarthNet.uav[293] utilizationSecIdle 259199.999
scalar OsgEarthNet.uav[293] utilizationEnergyMission 0
scalar OsgEarthNet.uav[293] utilizationEnergyMaintenance 0
scalar OsgEarthNet.uav[293] utilizationEnergyCharge 0
scalar OsgEarthNet.uav[293] utilizationEnergyOverdrawMission 0
scalar OsgEarthNet.uav[293] utilizationEnergyOverdrawMaintenance 0
scalar OsgEarthNet.uav[293] utilizationCountMissions 0
scalar OsgEarthNet.uav[293] utilizationCountManeuversMission 0
scalar OsgEarthNet.uav[293] utilizationCountManeuversMaintenance 0
scalar OsgEarthNet.uav[293] utilizationCountChargeState 0
scalar OsgEarthNet.uav[293] utilizationCountOverdrawnAfterMission 0
scalar OsgEarthNet.uav[293] utilizationCountIdleState 1
scalar OsgEarthNet.uav[293] utilizationFail 0
scalar OsgEarthNet.uav[293] simulationTime 259200
scalar OsgEarthNet.uav[294] utilizationSecMission 0
scalar OsgEarthNet.uav[294] utilizationSecMaintenance 0
scalar OsgEarthNet.uav[294] utilizationSecCharge 0
scalar OsgEarthNet.uav[294] utilizationSecIdle 259199.999
scalar OsgEarthNet.uav[294] utilizationEnergyMission 0
scalar OsgEarthNet.uav[294] utilizationEnergyMaintenance 0
scalar OsgEarthNet.uav[294] utilizationEnergyCharge 0
scalar OsgEarthNet.uav[294] utilizationEnergyOverdrawMission 0
scalar OsgEarthNet.uav[294] utilizationEnergyOverdrawMaintenance 0
scalar OsgEarthNet.uav[294] utilizationCountMissions 0
scalar OsgEarthNet.uav[294] utilizationCountManeuversMission 0
scalar OsgEarthNet.uav[294] utilizationCountManeuversMaintenance 0
scalar OsgEarthNet.uav[294] utilizationCountChargeState 0
scalar OsgEarthNet.uav[294] utilizationCountOverdrawnAfterMission 0
scalar OsgEarthNet.uav[294] utilizationCountIdleState 1
scalar OsgEarthNet.uav[294] utilizationFail 0
scalar OsgEarthNet.uav[294] simulationTime 259200
scalar OsgEarthNet.uav[295] utilizationSecMission 0
scalar OsgEarthNet.uav[295] utilizationSecMaintenance 0
scalar OsgEarthNet.uav[295] utilizationSecCharge 0
scalar OsgEarthNet.uav[295] utilizationSecIdle 259199.999
scalar OsgEarthNet.uav[295] utilizationEnergyMission 0
scalar OsgEarthNet.uav[295] utilizationEnergyMaintenance 0
scalar OsgEarthNet.uav[295] utilizationEnergyCharge 0
scalar OsgEarthNet.uav[295] utilizationEnergyOverdrawMission 0
scalar OsgEarthNet.uav[295] utilizationEnergyOverdrawMaintenance 0
scalar OsgEarthNet.uav[295] utilizationCountMissions 0
scalar OsgEarthNet.uav[295] utilizationCountManeuversMission 0
scalar OsgEarthNet.uav[295] utilizationCountManeuversMaintenance 0
scalar OsgEarthNet.uav[295] utilizationCountChargeState 0
scalar OsgEarthNet.uav[295] utilizationCountOverdrawnAfterMission 0
scalar OsgEarthNet.uav[295] utilizationCountIdleState 1
scalar OsgEarthNet.uav[295] utilizationFail 0
scalar OsgEarthNet.uav[295] simulationTime 259200
scalar OsgEarthNet.uav[296] utilizationSecMission 0
scalar OsgEarthNet.uav[296] utilizationSecMaintenance 0
scalar OsgEarthNet.uav[296] utilizationSecCharge 0
scalar OsgEarthNet.uav[296] utilizationSecIdle 259199.999
scalar OsgEarthNet.uav[296] utilizationEnergyMission 0
scalar OsgEarthNet.uav[296] utilizationEnergyMaintenance 0
scalar OsgEarthNet.uav[296] utilizationEnergyCharge 0
scalar OsgEarthNet.uav[296] utilizationEnergyOverdrawMission 0
scalar OsgEarthNet.uav[296] utilizationEnergyOverdrawMaintenance 0
scalar OsgEarthNet.uav[296] utilizationCountMissions 0
scalar OsgEarthNet.uav[296] utilizationCountManeuversMission 0
scalar OsgEarthNet.uav[296] utilizationCountManeuversMaintenance 0
scalar OsgEarthNet.uav[296] utilizationCountChargeState 0
scalar OsgEarthNet.uav[296] utilizationCountOverdrawnAfterMission 0
scalar OsgEarthNet.uav[296] utilizationCountIdleState 1
scalar OsgEarthNet.uav[296] utilizationFail 0
scalar OsgEarthNet.uav[296] simulationTime 259200
scalar OsgEarthNet.uav[297] utilizationSecMission 0
scalar OsgEarthNet.uav[297] utilizationSecMaintenance 0
scalar OsgEarthNet.uav[297] utilizationSecCharge 0
scalar OsgEarthNet.uav[297] utilizationSecIdle 259199.999
scalar OsgEarthNet.uav[297] utilizationEnergyMission 0
scalar OsgEarthNet.uav[297] utilizationEnergyMaintenance 0
scalar OsgEarthNet.uav[297] utilizationEnergyCharge 0
scalar OsgEarthNet.uav[297] utilizationEnergyOverdrawMission 0
scalar OsgEarthNet.uav[297] utilizationEnergyOverdrawMaintenance 0
scalar OsgEarthNet.uav[297] utilizationCountMissions 0
scalar OsgEarthNet.uav[297] utilizationCountManeuversMission 0
scalar OsgEarthNet.uav[297] utilizationCountManeuversMaintenance 0
scalar OsgEarthNet.uav[297] utilizationCountChargeState 0
scalar OsgEarthNet.uav[297] utilizationCountOverdrawnAfterMission 0
scalar OsgEarthNet.uav[297] utilizationCountIdleState 1
scalar OsgEarthNet.uav[297] utilizationFail 0
scalar OsgEarthNet.uav[297] simulationTime 259200
scalar OsgEarthNet.uav[298] utilizationSecMission 0
scalar OsgEarthNet.uav[298] utilizationSecMaintenance 0
scalar OsgEarthNet.uav[298] utilizationSecCharge 0
scalar OsgEarthNet.uav[298] utilizationSecIdle 259199.999
scalar OsgEarthNet.uav[298] utilizationEnergyMission 0
scalar OsgEarthNet.uav[298] utilizationEnergyMaintenance 0
scalar OsgEarthNet.uav[298] utilizationEnergyCharge 0
scalar OsgEarthNet.uav[298] utilizationEnergyOverdrawMission 0
scalar OsgEarthNet.uav[298] utilizationEnergyOverdrawMaintenance 0
scalar OsgEarthNet.uav[298] utilizationCountMissions 0
scalar OsgEarthNet.uav[298] utilizationCountManeuversMission 0
scalar OsgEarthNet.uav[298] utilizationCountManeuversMaintenance 0
scalar OsgEarthNet.uav[298] utilizationCountChargeState 0
scalar OsgEarthNet.uav[298] utilizationCountOverdrawnAfterMission 0
scalar OsgEarthNet.uav[298] utilizationCountIdleState 1
scalar OsgEarthNet.uav[298] utilizationFail 0
scalar OsgEarthNet.uav[298] simulationTime 259200
scalar OsgEarthNet.uav[299] utilizationSecMission 0
scalar OsgEarthNet.uav[299] utilizationSecMaintenance 0
scalar OsgEarthNet.uav[299] utilizationSecCharge 0
scalar OsgEarthNet.uav[299] utilizationSecIdle 259199.999
scalar OsgEarthNet.uav[299] utilizationEnergyMission 0
scalar OsgEarthNet.uav[299] utilizationEnergyMaintenance 0
scalar OsgEarthNet.uav[299] utilizationEnergyCharge 0
scalar OsgEarthNet.uav[299] utilizationEnergyOverdrawMission 0
scalar OsgEarthNet.uav[299] utilizationEnergyOverdrawMaintenance 0
scalar OsgEarthNet.uav[299] utilizationCountMissions 0
scalar OsgEarthNet.uav[299] utilizationCountManeuversMission 0
scalar OsgEarthNet.uav[299] utilizationCountManeuversMaintenance 0
scalar OsgEarthNet.uav[299] utilizationCountChargeState 0
scalar OsgEarthNet.uav[299] utilizationCountOverdrawnAfterMission 0
scalar OsgEarthNet.uav[299] utilizationCountIdleState 1
scalar OsgEarthNet.uav[299] utilizationFail 0
scalar OsgEarthNet.uav[299] simulationTime 259200
scalar OsgEarthNet.cs[0] usedPower 3991689.4854548
scalar OsgEarthNet.cs[0] chargedPower 3991689.4854548
scalar OsgEarthNet.cs[0] chargedMobileNodes 876
scalar OsgEarthNet.cs[0] reservations 888
scalar OsgEarthNet.cs[1] usedPower 4151759.9020217
scalar OsgEarthNet.cs[1] chargedPower 4151759.9020217
scalar OsgEarthNet.cs[1] chargedMobileNodes 1035
scalar OsgEarthNet.cs[1] reservations 1049
scalar OsgEarthNet.cs[2] usedPower 8676479.1102786
scalar OsgEarthNet.cs[2] chargedPower 8676479.1102786
scalar OsgEarthNet.cs[2] chargedMobileNodes 276
scalar OsgEarthNet.cs[2] reservations 1898

