version 2
run Szenario_Hotel_Gabelbach-462-20180719-19:32:34-21216
attr configname Szenario_Hotel_Gabelbach
attr datetime 20180719-19:32:34
attr experiment Szenario_Hotel_Gabelbach
attr inifile omnetpp.ini
attr iterationvars "$replM=2, $biWeight=0.35, $replSearchM=1, $numUAVs=92"
attr iterationvarsf replM=2,biWeight=0.35,replSearchM=1,numUAVs=92-
attr measurement "$replM=2, $biWeight=0.35, $replSearchM=1, $numUAVs=92"
attr network OsgEarthNet
attr processid 21216
attr repetition 6
attr replication #6
attr resultdir results
attr runnumber 462
attr seedset 462
itervar biWeight 0.35
itervar numUAVs 92
itervar replM 2
itervar replSearchM 1
param *.osgEarthScene.scene "\"Szenario_Hotel_Gabelbach.earth\""
param *.playgroundLatitude 50.6830269
param *.playgroundLongitude 10.8538055
param *.playgroundWidth 3500m
param *.playgroundHeight 3500m
param *.cs[0].posX 3537m
param *.cs[0].posY 965m
param *.cs[0].posZ 538m
param *.cs[1].posX 312m
param *.cs[1].posY 1262m
param *.cs[1].posZ 539m
param *.cs[2].posX 2185m
param *.cs[2].posY 3026m
param *.cs[2].posZ 777m
param *.cs[3].posX 10m
param *.cs[3].posY 2200m
param *.cs[3].posZ 560m
param *.cs[4].posX 750m
param *.cs[4].posY 200m
param *.cs[4].posZ 540m
param *.cs[5].posX 2450m
param *.cs[5].posY 180m
param *.cs[5].posZ 524m
param *.cs[6].posX 3140m
param *.cs[6].posY 1790m
param *.cs[6].posZ 606m
param *.numCSs 3
param *.uav[*].replacementMethod 2
param *.uav[*].weightedSumWeight 0.35
param *.missionControl.replacementSearchMethod 1
param *.numUAVs 92
param *.*.timeStep 10s
param *.uav[*].commandPreviewCommandCount 20
param *.missionControl.missionFiles "\"missions\\\\Szenario_WB_Hotel_Gabelbach_Mission_Hotel.waypoints,missions\\\\Szenario_WB_Hotel_Gabelbach_Mission_Kickelhahn.waypoints,missions\\\\Szenario_WB_Hotel_Gabelbach_Mission_Ilmenau_Sportplatz.waypoints,missions\\\\Szenario_WB_Hotel_Gabelbach_Mission_Manebach_Mitte.waypoints,missions\\\\Szenario_WB_Hotel_Gabelbach_Mission_Manebach_Sued.waypoints,missions\\\\Szenario_WB_Hotel_Gabelbach_Hover_HoheSchlaufe.waypoints,missions\\\\Szenario_WB_Hotel_Gabelbach_Hover_Kickelhahn.waypoints,missions\\\\Szenario_WB_Hotel_Gabelbach_Hover_Gabelbachskopf.waypoints,missions\\\\Szenario_WB_Hotel_Gabelbach_Hover_Dachskopf.waypoints\""
param *.uav[0].startX 3537m
param *.uav[0].startY 965m
param *.uav[0].startZ 539m
param *.uav[1].startX 312m
param *.uav[1].startY 1262m
param *.uav[1].startZ 540m
param *.uav[2].startX 2185m
param *.uav[2].startY 3026m
param *.uav[2].startZ 778m
param *.uav[3].startX 3537m
param *.uav[3].startY 965m
param *.uav[3].startZ 539m
param *.uav[4].startX 312m
param *.uav[4].startY 1262m
param *.uav[4].startZ 540m
param *.uav[5].startX 2185m
param *.uav[5].startY 3026m
param *.uav[5].startZ 778m
param *.uav[6].startX 3537m
param *.uav[6].startY 965m
param *.uav[6].startZ 539m
param *.uav[7].startX 312m
param *.uav[7].startY 1262m
param *.uav[7].startZ 540m
param *.uav[8].startX 2185m
param *.uav[8].startY 3026m
param *.uav[8].startZ 778m
param *.uav[9].startX 3537m
param *.uav[9].startY 965m
param *.uav[9].startZ 539m
param *.uav[10].startX 3537m
param *.uav[10].startY 965m
param *.uav[10].startZ 539m
param *.uav[11].startX 312m
param *.uav[11].startY 1262m
param *.uav[11].startZ 540m
param *.uav[12].startX 2185m
param *.uav[12].startY 3026m
param *.uav[12].startZ 778m
param *.uav[13].startX 3537m
param *.uav[13].startY 965m
param *.uav[13].startZ 539m
param *.uav[14].startX 312m
param *.uav[14].startY 1262m
param *.uav[14].startZ 540m
param *.uav[15].startX 2185m
param *.uav[15].startY 3026m
param *.uav[15].startZ 778m
param *.uav[16].startX 3537m
param *.uav[16].startY 965m
param *.uav[16].startZ 539m
param *.uav[17].startX 312m
param *.uav[17].startY 1262m
param *.uav[17].startZ 540m
param *.uav[18].startX 2185m
param *.uav[18].startY 3026m
param *.uav[18].startZ 778m
param *.uav[19].startX 3537m
param *.uav[19].startY 965m
param *.uav[19].startZ 539m
param *.uav[20].startX 3537m
param *.uav[20].startY 965m
param *.uav[20].startZ 539m
param *.uav[21].startX 312m
param *.uav[21].startY 1262m
param *.uav[21].startZ 540m
param *.uav[22].startX 2185m
param *.uav[22].startY 3026m
param *.uav[22].startZ 778m
param *.uav[23].startX 3537m
param *.uav[23].startY 965m
param *.uav[23].startZ 539m
param *.uav[24].startX 312m
param *.uav[24].startY 1262m
param *.uav[24].startZ 540m
param *.uav[25].startX 2185m
param *.uav[25].startY 3026m
param *.uav[25].startZ 778m
param *.uav[26].startX 3537m
param *.uav[26].startY 965m
param *.uav[26].startZ 539m
param *.uav[27].startX 312m
param *.uav[27].startY 1262m
param *.uav[27].startZ 540m
param *.uav[28].startX 2185m
param *.uav[28].startY 3026m
param *.uav[28].startZ 778m
param *.uav[29].startX 3537m
param *.uav[29].startY 965m
param *.uav[29].startZ 539m
param *.uav[30].startX 3537m
param *.uav[30].startY 965m
param *.uav[30].startZ 539m
param *.uav[31].startX 312m
param *.uav[31].startY 1262m
param *.uav[31].startZ 540m
param *.uav[32].startX 2185m
param *.uav[32].startY 3026m
param *.uav[32].startZ 778m
param *.uav[33].startX 3537m
param *.uav[33].startY 965m
param *.uav[33].startZ 539m
param *.uav[34].startX 312m
param *.uav[34].startY 1262m
param *.uav[34].startZ 540m
param *.uav[35].startX 2185m
param *.uav[35].startY 3026m
param *.uav[35].startZ 778m
param *.uav[36].startX 3537m
param *.uav[36].startY 965m
param *.uav[36].startZ 539m
param *.uav[37].startX 312m
param *.uav[37].startY 1262m
param *.uav[37].startZ 540m
param *.uav[38].startX 2185m
param *.uav[38].startY 3026m
param *.uav[38].startZ 778m
param *.uav[39].startX 3537m
param *.uav[39].startY 965m
param *.uav[39].startZ 539m
param *.uav[40].startX 3537m
param *.uav[40].startY 965m
param *.uav[40].startZ 539m
param *.uav[41].startX 312m
param *.uav[41].startY 1262m
param *.uav[41].startZ 540m
param *.uav[42].startX 2185m
param *.uav[42].startY 3026m
param *.uav[42].startZ 778m
param *.uav[43].startX 3537m
param *.uav[43].startY 965m
param *.uav[43].startZ 539m
param *.uav[44].startX 312m
param *.uav[44].startY 1262m
param *.uav[44].startZ 540m
param *.uav[45].startX 2185m
param *.uav[45].startY 3026m
param *.uav[45].startZ 778m
param *.uav[46].startX 3537m
param *.uav[46].startY 965m
param *.uav[46].startZ 539m
param *.uav[47].startX 312m
param *.uav[47].startY 1262m
param *.uav[47].startZ 540m
param *.uav[48].startX 2185m
param *.uav[48].startY 3026m
param *.uav[48].startZ 778m
param *.uav[49].startX 3537m
param *.uav[49].startY 965m
param *.uav[49].startZ 539m
param *.uav[50].startX 3537m
param *.uav[50].startY 965m
param *.uav[50].startZ 539m
param *.uav[51].startX 312m
param *.uav[51].startY 1262m
param *.uav[51].startZ 540m
param *.uav[52].startX 2185m
param *.uav[52].startY 3026m
param *.uav[52].startZ 778m
param *.uav[53].startX 3537m
param *.uav[53].startY 965m
param *.uav[53].startZ 539m
param *.uav[54].startX 312m
param *.uav[54].startY 1262m
param *.uav[54].startZ 540m
param *.uav[55].startX 2185m
param *.uav[55].startY 3026m
param *.uav[55].startZ 778m
param *.uav[56].startX 3537m
param *.uav[56].startY 965m
param *.uav[56].startZ 539m
param *.uav[57].startX 312m
param *.uav[57].startY 1262m
param *.uav[57].startZ 540m
param *.uav[58].startX 2185m
param *.uav[58].startY 3026m
param *.uav[58].startZ 778m
param *.uav[59].startX 3537m
param *.uav[59].startY 965m
param *.uav[59].startZ 539m
param *.uav[60].startX 3537m
param *.uav[60].startY 965m
param *.uav[60].startZ 539m
param *.uav[61].startX 312m
param *.uav[61].startY 1262m
param *.uav[61].startZ 540m
param *.uav[62].startX 2185m
param *.uav[62].startY 3026m
param *.uav[62].startZ 778m
param *.uav[63].startX 3537m
param *.uav[63].startY 965m
param *.uav[63].startZ 539m
param *.uav[64].startX 312m
param *.uav[64].startY 1262m
param *.uav[64].startZ 540m
param *.uav[65].startX 2185m
param *.uav[65].startY 3026m
param *.uav[65].startZ 778m
param *.uav[66].startX 3537m
param *.uav[66].startY 965m
param *.uav[66].startZ 539m
param *.uav[67].startX 312m
param *.uav[67].startY 1262m
param *.uav[67].startZ 540m
param *.uav[68].startX 2185m
param *.uav[68].startY 3026m
param *.uav[68].startZ 778m
param *.uav[69].startX 3537m
param *.uav[69].startY 965m
param *.uav[69].startZ 539m
param *.uav[70].startX 3537m
param *.uav[70].startY 965m
param *.uav[70].startZ 539m
param *.uav[71].startX 312m
param *.uav[71].startY 1262m
param *.uav[71].startZ 540m
param *.uav[72].startX 2185m
param *.uav[72].startY 3026m
param *.uav[72].startZ 778m
param *.uav[73].startX 3537m
param *.uav[73].startY 965m
param *.uav[73].startZ 539m
param *.uav[74].startX 312m
param *.uav[74].startY 1262m
param *.uav[74].startZ 540m
param *.uav[75].startX 2185m
param *.uav[75].startY 3026m
param *.uav[75].startZ 778m
param *.uav[76].startX 3537m
param *.uav[76].startY 965m
param *.uav[76].startZ 539m
param *.uav[77].startX 312m
param *.uav[77].startY 1262m
param *.uav[77].startZ 540m
param *.uav[78].startX 2185m
param *.uav[78].startY 3026m
param *.uav[78].startZ 778m
param *.uav[79].startX 3537m
param *.uav[79].startY 965m
param *.uav[79].startZ 539m
param *.uav[80].startX 3537m
param *.uav[80].startY 965m
param *.uav[80].startZ 539m
param *.uav[81].startX 312m
param *.uav[81].startY 1262m
param *.uav[81].startZ 540m
param *.uav[82].startX 2185m
param *.uav[82].startY 3026m
param *.uav[82].startZ 778m
param *.uav[83].startX 3537m
param *.uav[83].startY 965m
param *.uav[83].startZ 539m
param *.uav[84].startX 312m
param *.uav[84].startY 1262m
param *.uav[84].startZ 540m
param *.uav[85].startX 2185m
param *.uav[85].startY 3026m
param *.uav[85].startZ 778m
param *.uav[86].startX 3537m
param *.uav[86].startY 965m
param *.uav[86].startZ 539m
param *.uav[87].startX 312m
param *.uav[87].startY 1262m
param *.uav[87].startZ 540m
param *.uav[88].startX 2185m
param *.uav[88].startY 3026m
param *.uav[88].startZ 778m
param *.uav[89].startX 3537m
param *.uav[89].startY 965m
param *.uav[89].startZ 539m
param *.uav[90].startX 3537m
param *.uav[90].startY 965m
param *.uav[90].startZ 539m
param *.uav[91].startX 312m
param *.uav[91].startY 1262m
param *.uav[91].startZ 540m
param *.uav[92].startX 2185m
param *.uav[92].startY 3026m
param *.uav[92].startZ 778m
param *.uav[93].startX 3537m
param *.uav[93].startY 965m
param *.uav[93].startZ 539m
param *.uav[94].startX 312m
param *.uav[94].startY 1262m
param *.uav[94].startZ 540m
param *.uav[95].startX 2185m
param *.uav[95].startY 3026m
param *.uav[95].startZ 778m
param *.uav[96].startX 3537m
param *.uav[96].startY 965m
param *.uav[96].startZ 539m
param *.uav[97].startX 312m
param *.uav[97].startY 1262m
param *.uav[97].startZ 540m
param *.uav[98].startX 2185m
param *.uav[98].startY 3026m
param *.uav[98].startZ 778m
param *.uav[99].startX 3537m
param *.uav[99].startY 965m
param *.uav[99].startZ 539m
param *.osgEarthScene.scene "\"boston.earth\""
param *.playgroundLatitude 42.3558
param *.playgroundLongitude -71.0677
param *.playgroundWidth 400m
param *.playgroundHeight 200m
param *.channelController.connectionColor "\"#0000FF40\""
param *.channelController.showConnections false
param *.uav[*].modelURL "\"quadrocopter.small.obj.15.scale.0,0,90.rot\""
param *.uav[*].labelColor "\"#FF7C00CC\""
param *.uav[*].label2Color "\"#FF7C00EE\""
param *.uav[*].batteryCapacity 5200mAh
param *.uav[*].batteryRemaining uav[index].batteryCapacity
param *.uav[*].predictionQuantile 0.95
param *.uav[*].replacementMethod 2
param *.uav[*].weightedSumWeight 0.5
param *.cs[*].modelURL "\"chargingstation_v1.osgt.2.scale.0,0,0.rot.0,0,-15e-1.trans\""
param *.cs[*].spotsWaiting 999
param *.cs[*].spotsCharging 999
param *.cs[*].chargeEffectivenessPercentage 100
param *.cs[*].nonLinearPhaseStartPercentage 85
param *.cs[*].chargeCurrent 6.0A
param *.cs[*].prioritizeFastCharge true
param *.missionControl.replacementSearchMethod 0
param *.*.timeStep 9s

scalar OsgEarthNet.uav[0] utilizationSecMission 12540.620528383
scalar OsgEarthNet.uav[0] utilizationSecMaintenance 9092.7254541406
scalar OsgEarthNet.uav[0] utilizationSecCharge 81170
scalar OsgEarthNet.uav[0] utilizationSecIdle 156396.65301748
scalar OsgEarthNet.uav[0] utilizationEnergyMission 61229.336860657
scalar OsgEarthNet.uav[0] utilizationEnergyMaintenance 42572.574085235
scalar OsgEarthNet.uav[0] utilizationEnergyCharge 104887.4609375
scalar OsgEarthNet.uav[0] utilizationEnergyOverdrawMission 0
scalar OsgEarthNet.uav[0] utilizationEnergyOverdrawMaintenance 0
scalar OsgEarthNet.uav[0] utilizationCountMissions 23
scalar OsgEarthNet.uav[0] utilizationCountManeuversMission 485
scalar OsgEarthNet.uav[0] utilizationCountManeuversMaintenance 45
scalar OsgEarthNet.uav[0] utilizationCountChargeState 23
scalar OsgEarthNet.uav[0] utilizationCountOverdrawnAfterMission 0
scalar OsgEarthNet.uav[0] utilizationCountIdleState 24
scalar OsgEarthNet.uav[0] utilizationFail 0
scalar OsgEarthNet.uav[0] simulationTime 259200
scalar OsgEarthNet.uav[1] utilizationSecMission 21530.610932131
scalar OsgEarthNet.uav[1] utilizationSecMaintenance 11860.370714104
scalar OsgEarthNet.uav[1] utilizationSecCharge 125857.01235377
scalar OsgEarthNet.uav[1] utilizationSecIdle 99952.005
scalar OsgEarthNet.uav[1] utilizationEnergyMission 104875.13737488
scalar OsgEarthNet.uav[1] utilizationEnergyMaintenance 56326.918769836
scalar OsgEarthNet.uav[1] utilizationEnergyCharge 159459.53442383
scalar OsgEarthNet.uav[1] utilizationEnergyOverdrawMission 0
scalar OsgEarthNet.uav[1] utilizationEnergyOverdrawMaintenance 0
scalar OsgEarthNet.uav[1] utilizationCountMissions 38
scalar OsgEarthNet.uav[1] utilizationCountManeuversMission 644
scalar OsgEarthNet.uav[1] utilizationCountManeuversMaintenance 76
scalar OsgEarthNet.uav[1] utilizationCountChargeState 38
scalar OsgEarthNet.uav[1] utilizationCountOverdrawnAfterMission 0
scalar OsgEarthNet.uav[1] utilizationCountIdleState 38
scalar OsgEarthNet.uav[1] utilizationFail 0
scalar OsgEarthNet.uav[1] simulationTime 259200
scalar OsgEarthNet.uav[2] utilizationSecMission 35432.619307035
scalar OsgEarthNet.uav[2] utilizationSecMaintenance 15808.589131163
scalar OsgEarthNet.uav[2] utilizationSecCharge 189536.7875618
scalar OsgEarthNet.uav[2] utilizationSecIdle 18422.003
scalar OsgEarthNet.uav[2] utilizationEnergyMission 173233.11302185
scalar OsgEarthNet.uav[2] utilizationEnergyMaintenance 72771.745380402
scalar OsgEarthNet.uav[2] utilizationEnergyCharge 248059.36206055
scalar OsgEarthNet.uav[2] utilizationEnergyOverdrawMission 0
scalar OsgEarthNet.uav[2] utilizationEnergyOverdrawMaintenance 0
scalar OsgEarthNet.uav[2] utilizationCountMissions 54
scalar OsgEarthNet.uav[2] utilizationCountManeuversMission 1239
scalar OsgEarthNet.uav[2] utilizationCountManeuversMaintenance 108
scalar OsgEarthNet.uav[2] utilizationCountChargeState 54
scalar OsgEarthNet.uav[2] utilizationCountOverdrawnAfterMission 0
scalar OsgEarthNet.uav[2] utilizationCountIdleState 47
scalar OsgEarthNet.uav[2] utilizationFail 0
scalar OsgEarthNet.uav[2] simulationTime 259200
scalar OsgEarthNet.uav[3] utilizationSecMission 8163.1257629014
scalar OsgEarthNet.uav[3] utilizationSecMaintenance 5624.7128570768
scalar OsgEarthNet.uav[3] utilizationSecCharge 52390
scalar OsgEarthNet.uav[3] utilizationSecIdle 193022.16038002
scalar OsgEarthNet.uav[3] utilizationEnergyMission 40437.628158569
scalar OsgEarthNet.uav[3] utilizationEnergyMaintenance 26597.127105713
scalar OsgEarthNet.uav[3] utilizationEnergyCharge 67398.954589844
scalar OsgEarthNet.uav[3] utilizationEnergyOverdrawMission 0
scalar OsgEarthNet.uav[3] utilizationEnergyOverdrawMaintenance 0
scalar OsgEarthNet.uav[3] utilizationCountMissions 15
scalar OsgEarthNet.uav[3] utilizationCountManeuversMission 278
scalar OsgEarthNet.uav[3] utilizationCountManeuversMaintenance 30
scalar OsgEarthNet.uav[3] utilizationCountChargeState 15
scalar OsgEarthNet.uav[3] utilizationCountOverdrawnAfterMission 0
scalar OsgEarthNet.uav[3] utilizationCountIdleState 16
scalar OsgEarthNet.uav[3] utilizationFail 0
scalar OsgEarthNet.uav[3] simulationTime 259200
scalar OsgEarthNet.uav[4] utilizationSecMission 25614.467633869
scalar OsgEarthNet.uav[4] utilizationSecMaintenance 15320.455803686
scalar OsgEarthNet.uav[4] utilizationSecCharge 155386.72195957
scalar OsgEarthNet.uav[4] utilizationSecIdle 62878.353602879
scalar OsgEarthNet.uav[4] utilizationEnergyMission 125468.6207962
scalar OsgEarthNet.uav[4] utilizationEnergyMaintenance 72888.728099823
scalar OsgEarthNet.uav[4] utilizationEnergyCharge 196129.26342773
scalar OsgEarthNet.uav[4] utilizationEnergyOverdrawMission 0
scalar OsgEarthNet.uav[4] utilizationEnergyOverdrawMaintenance 0
scalar OsgEarthNet.uav[4] utilizationCountMissions 47
scalar OsgEarthNet.uav[4] utilizationCountManeuversMission 855
scalar OsgEarthNet.uav[4] utilizationCountManeuversMaintenance 94
scalar OsgEarthNet.uav[4] utilizationCountChargeState 47
scalar OsgEarthNet.uav[4] utilizationCountOverdrawnAfterMission 0
scalar OsgEarthNet.uav[4] utilizationCountIdleState 47
scalar OsgEarthNet.uav[4] utilizationFail 0
scalar OsgEarthNet.uav[4] simulationTime 259200
scalar OsgEarthNet.uav[5] utilizationSecMission 34696.26655731
scalar OsgEarthNet.uav[5] utilizationSecMaintenance 17467.666107257
scalar OsgEarthNet.uav[5] utilizationSecCharge 190704.06633543
scalar OsgEarthNet.uav[5] utilizationSecIdle 16332
scalar OsgEarthNet.uav[5] utilizationEnergyMission 174095.99186325
scalar OsgEarthNet.uav[5] utilizationEnergyMaintenance 80774.767383575
scalar OsgEarthNet.uav[5] utilizationEnergyCharge 249126.0402832
scalar OsgEarthNet.uav[5] utilizationEnergyOverdrawMission 0
scalar OsgEarthNet.uav[5] utilizationEnergyOverdrawMaintenance 0
scalar OsgEarthNet.uav[5] utilizationCountMissions 55
scalar OsgEarthNet.uav[5] utilizationCountManeuversMission 1351
scalar OsgEarthNet.uav[5] utilizationCountManeuversMaintenance 110
scalar OsgEarthNet.uav[5] utilizationCountChargeState 55
scalar OsgEarthNet.uav[5] utilizationCountOverdrawnAfterMission 0
scalar OsgEarthNet.uav[5] utilizationCountIdleState 50
scalar OsgEarthNet.uav[5] utilizationFail 0
scalar OsgEarthNet.uav[5] simulationTime 259200
scalar OsgEarthNet.uav[6] utilizationSecMission 9923.1257629014
scalar OsgEarthNet.uav[6] utilizationSecMaintenance 6869.6093951144
scalar OsgEarthNet.uav[6] utilizationSecCharge 63430
scalar OsgEarthNet.uav[6] utilizationSecIdle 178977.26384198
scalar OsgEarthNet.uav[6] utilizationEnergyMission 49830.163330078
scalar OsgEarthNet.uav[6] utilizationEnergyMaintenance 32792.306755066
scalar OsgEarthNet.uav[6] utilizationEnergyCharge 81904.157226562
scalar OsgEarthNet.uav[6] utilizationEnergyOverdrawMission 0
scalar OsgEarthNet.uav[6] utilizationEnergyOverdrawMaintenance 0
scalar OsgEarthNet.uav[6] utilizationCountMissions 18
scalar OsgEarthNet.uav[6] utilizationCountManeuversMission 366
scalar OsgEarthNet.uav[6] utilizationCountManeuversMaintenance 36
scalar OsgEarthNet.uav[6] utilizationCountChargeState 18
scalar OsgEarthNet.uav[6] utilizationCountOverdrawnAfterMission 0
scalar OsgEarthNet.uav[6] utilizationCountIdleState 19
scalar OsgEarthNet.uav[6] utilizationFail 0
scalar OsgEarthNet.uav[6] simulationTime 259200
scalar OsgEarthNet.uav[7] utilizationSecMission 26760.433577277
scalar OsgEarthNet.uav[7] utilizationSecMaintenance 15521.857447232
scalar OsgEarthNet.uav[7] utilizationSecCharge 161150.39189366
scalar OsgEarthNet.uav[7] utilizationSecIdle 55767.316081831
scalar OsgEarthNet.uav[7] utilizationEnergyMission 129211.42045212
scalar OsgEarthNet.uav[7] utilizationEnergyMaintenance 73842.049697876
scalar OsgEarthNet.uav[7] utilizationEnergyCharge 200214.5736084
scalar OsgEarthNet.uav[7] utilizationEnergyOverdrawMission 0
scalar OsgEarthNet.uav[7] utilizationEnergyOverdrawMaintenance 0
scalar OsgEarthNet.uav[7] utilizationCountMissions 51
scalar OsgEarthNet.uav[7] utilizationCountManeuversMission 765
scalar OsgEarthNet.uav[7] utilizationCountManeuversMaintenance 102
scalar OsgEarthNet.uav[7] utilizationCountChargeState 51
scalar OsgEarthNet.uav[7] utilizationCountOverdrawnAfterMission 0
scalar OsgEarthNet.uav[7] utilizationCountIdleState 51
scalar OsgEarthNet.uav[7] utilizationFail 0
scalar OsgEarthNet.uav[7] simulationTime 259200
scalar OsgEarthNet.uav[8] utilizationSecMission 37286.641842973
scalar OsgEarthNet.uav[8] utilizationSecMaintenance 14274.420454844
scalar OsgEarthNet.uav[8] utilizationSecCharge 185616.93270218
scalar OsgEarthNet.uav[8] utilizationSecIdle 22022.004
scalar OsgEarthNet.uav[8] utilizationEnergyMission 180527.85910416
scalar OsgEarthNet.uav[8] utilizationEnergyMaintenance 65095.526847839
scalar OsgEarthNet.uav[8] utilizationEnergyCharge 242250.93237305
scalar OsgEarthNet.uav[8] utilizationEnergyOverdrawMission 0
scalar OsgEarthNet.uav[8] utilizationEnergyOverdrawMaintenance 0
scalar OsgEarthNet.uav[8] utilizationCountMissions 53
scalar OsgEarthNet.uav[8] utilizationCountManeuversMission 1100
scalar OsgEarthNet.uav[8] utilizationCountManeuversMaintenance 106
scalar OsgEarthNet.uav[8] utilizationCountChargeState 53
scalar OsgEarthNet.uav[8] utilizationCountOverdrawnAfterMission 0
scalar OsgEarthNet.uav[8] utilizationCountIdleState 50
scalar OsgEarthNet.uav[8] utilizationFail 0
scalar OsgEarthNet.uav[8] simulationTime 259200
scalar OsgEarthNet.uav[9] utilizationSecMission 8421.8754577408
scalar OsgEarthNet.uav[9] utilizationSecMaintenance 6483.2369748416
scalar OsgEarthNet.uav[9] utilizationSecCharge 55950
scalar OsgEarthNet.uav[9] utilizationSecIdle 188344.88656742
scalar OsgEarthNet.uav[9] utilizationEnergyMission 42446.041511536
scalar OsgEarthNet.uav[9] utilizationEnergyMaintenance 30628.358764648
scalar OsgEarthNet.uav[9] utilizationEnergyCharge 72159.831054688
scalar OsgEarthNet.uav[9] utilizationEnergyOverdrawMission 0
scalar OsgEarthNet.uav[9] utilizationEnergyOverdrawMaintenance 0
scalar OsgEarthNet.uav[9] utilizationCountMissions 16
scalar OsgEarthNet.uav[9] utilizationCountManeuversMission 343
scalar OsgEarthNet.uav[9] utilizationCountManeuversMaintenance 32
scalar OsgEarthNet.uav[9] utilizationCountChargeState 16
scalar OsgEarthNet.uav[9] utilizationCountOverdrawnAfterMission 0
scalar OsgEarthNet.uav[9] utilizationCountIdleState 17
scalar OsgEarthNet.uav[9] utilizationFail 0
scalar OsgEarthNet.uav[9] simulationTime 259200
scalar OsgEarthNet.uav[10] utilizationSecMission 9545.0012206423
scalar OsgEarthNet.uav[10] utilizationSecMaintenance 5474.1113571823
scalar OsgEarthNet.uav[10] utilizationSecCharge 56350
scalar OsgEarthNet.uav[10] utilizationSecIdle 187830.88642218
scalar OsgEarthNet.uav[10] utilizationEnergyMission 45311.83341217
scalar OsgEarthNet.uav[10] utilizationEnergyMaintenance 26004.108978271
scalar OsgEarthNet.uav[10] utilizationEnergyCharge 72590.205078125
scalar OsgEarthNet.uav[10] utilizationEnergyOverdrawMission 0
scalar OsgEarthNet.uav[10] utilizationEnergyOverdrawMaintenance 0
scalar OsgEarthNet.uav[10] utilizationCountMissions 16
scalar OsgEarthNet.uav[10] utilizationCountManeuversMission 269
scalar OsgEarthNet.uav[10] utilizationCountManeuversMaintenance 32
scalar OsgEarthNet.uav[10] utilizationCountChargeState 16
scalar OsgEarthNet.uav[10] utilizationCountOverdrawnAfterMission 0
scalar OsgEarthNet.uav[10] utilizationCountIdleState 17
scalar OsgEarthNet.uav[10] utilizationFail 0
scalar OsgEarthNet.uav[10] simulationTime 259200
scalar OsgEarthNet.uav[11] utilizationSecMission 27046.928668363
scalar OsgEarthNet.uav[11] utilizationSecMaintenance 14850.795787034
scalar OsgEarthNet.uav[11] utilizationSecCharge 158658.60636662
scalar OsgEarthNet.uav[11] utilizationSecIdle 58643.668177988
scalar OsgEarthNet.uav[11] utilizationEnergyMission 128588.08672714
scalar OsgEarthNet.uav[11] utilizationEnergyMaintenance 71377.171878815
scalar OsgEarthNet.uav[11] utilizationEnergyCharge 197230.2098999
scalar OsgEarthNet.uav[11] utilizationEnergyOverdrawMission 0
scalar OsgEarthNet.uav[11] utilizationEnergyOverdrawMaintenance 0
scalar OsgEarthNet.uav[11] utilizationCountMissions 50
scalar OsgEarthNet.uav[11] utilizationCountManeuversMission 721
scalar OsgEarthNet.uav[11] utilizationCountManeuversMaintenance 100
scalar OsgEarthNet.uav[11] utilizationCountChargeState 50
scalar OsgEarthNet.uav[11] utilizationCountOverdrawnAfterMission 0
scalar OsgEarthNet.uav[11] utilizationCountIdleState 50
scalar OsgEarthNet.uav[11] utilizationFail 0
scalar OsgEarthNet.uav[11] simulationTime 259200
scalar OsgEarthNet.uav[12] utilizationSecMission 36306.541495662
scalar OsgEarthNet.uav[12] utilizationSecMaintenance 14535.70999764
scalar OsgEarthNet.uav[12] utilizationSecCharge 185047.04706726
scalar OsgEarthNet.uav[12] utilizationSecIdle 23310.70043944
scalar OsgEarthNet.uav[12] utilizationEnergyMission 176605.83319473
scalar OsgEarthNet.uav[12] utilizationEnergyMaintenance 66924.488536835
scalar OsgEarthNet.uav[12] utilizationEnergyCharge 240142.23413086
scalar OsgEarthNet.uav[12] utilizationEnergyOverdrawMission 0
scalar OsgEarthNet.uav[12] utilizationEnergyOverdrawMaintenance 0
scalar OsgEarthNet.uav[12] utilizationCountMissions 53
scalar OsgEarthNet.uav[12] utilizationCountManeuversMission 1221
scalar OsgEarthNet.uav[12] utilizationCountManeuversMaintenance 106
scalar OsgEarthNet.uav[12] utilizationCountChargeState 53
scalar OsgEarthNet.uav[12] utilizationCountOverdrawnAfterMission 0
scalar OsgEarthNet.uav[12] utilizationCountIdleState 52
scalar OsgEarthNet.uav[12] utilizationFail 0
scalar OsgEarthNet.uav[12] simulationTime 259200
scalar OsgEarthNet.uav[13] utilizationSecMission 8485.0012206423
scalar OsgEarthNet.uav[13] utilizationSecMaintenance 3869.7142107262
scalar OsgEarthNet.uav[13] utilizationSecCharge 45910
scalar OsgEarthNet.uav[13] utilizationSecIdle 200935.28356863
scalar OsgEarthNet.uav[13] utilizationEnergyMission 40863.215156555
scalar OsgEarthNet.uav[13] utilizationEnergyMaintenance 18858.900356293
scalar OsgEarthNet.uav[13] utilizationEnergyCharge 59365.400390625
scalar OsgEarthNet.uav[13] utilizationEnergyOverdrawMission 0
scalar OsgEarthNet.uav[13] utilizationEnergyOverdrawMaintenance 0
scalar OsgEarthNet.uav[13] utilizationCountMissions 13
scalar OsgEarthNet.uav[13] utilizationCountManeuversMission 216
scalar OsgEarthNet.uav[13] utilizationCountManeuversMaintenance 26
scalar OsgEarthNet.uav[13] utilizationCountChargeState 13
scalar OsgEarthNet.uav[13] utilizationCountOverdrawnAfterMission 0
scalar OsgEarthNet.uav[13] utilizationCountIdleState 14
scalar OsgEarthNet.uav[13] utilizationFail 0
scalar OsgEarthNet.uav[13] simulationTime 259200
scalar OsgEarthNet.uav[14] utilizationSecMission 23041.168009542
scalar OsgEarthNet.uav[14] utilizationSecMaintenance 14220.149966954
scalar OsgEarthNet.uav[14] utilizationSecCharge 143850
scalar OsgEarthNet.uav[14] utilizationSecIdle 78088.681023505
scalar OsgEarthNet.uav[14] utilizationEnergyMission 113633.78313065
scalar OsgEarthNet.uav[14] utilizationEnergyMaintenance 67472.394992828
scalar OsgEarthNet.uav[14] utilizationEnergyCharge 181472.54223633
scalar OsgEarthNet.uav[14] utilizationEnergyOverdrawMission 0
scalar OsgEarthNet.uav[14] utilizationEnergyOverdrawMaintenance 0
scalar OsgEarthNet.uav[14] utilizationCountMissions 43
scalar OsgEarthNet.uav[14] utilizationCountManeuversMission 800
scalar OsgEarthNet.uav[14] utilizationCountManeuversMaintenance 86
scalar OsgEarthNet.uav[14] utilizationCountChargeState 43
scalar OsgEarthNet.uav[14] utilizationCountOverdrawnAfterMission 0
scalar OsgEarthNet.uav[14] utilizationCountIdleState 44
scalar OsgEarthNet.uav[14] utilizationFail 0
scalar OsgEarthNet.uav[14] simulationTime 259200
scalar OsgEarthNet.uav[15] utilizationSecMission 35882.399043084
scalar OsgEarthNet.uav[15] utilizationSecMaintenance 15760.594488245
scalar OsgEarthNet.uav[15] utilizationSecCharge 188485.00346867
scalar OsgEarthNet.uav[15] utilizationSecIdle 19072.002
scalar OsgEarthNet.uav[15] utilizationEnergyMission 174340.08973694
scalar OsgEarthNet.uav[15] utilizationEnergyMaintenance 72881.064186096
scalar OsgEarthNet.uav[15] utilizationEnergyCharge 245327.64135742
scalar OsgEarthNet.uav[15] utilizationEnergyOverdrawMission 0
scalar OsgEarthNet.uav[15] utilizationEnergyOverdrawMaintenance 0
scalar OsgEarthNet.uav[15] utilizationCountMissions 54
scalar OsgEarthNet.uav[15] utilizationCountManeuversMission 1240
scalar OsgEarthNet.uav[15] utilizationCountManeuversMaintenance 108
scalar OsgEarthNet.uav[15] utilizationCountChargeState 54
scalar OsgEarthNet.uav[15] utilizationCountOverdrawnAfterMission 0
scalar OsgEarthNet.uav[15] utilizationCountIdleState 50
scalar OsgEarthNet.uav[15] utilizationFail 0
scalar OsgEarthNet.uav[15] simulationTime 259200
scalar OsgEarthNet.uav[16] utilizationSecMission 9632.8677241509
scalar OsgEarthNet.uav[16] utilizationSecMaintenance 7077.4360388103
scalar OsgEarthNet.uav[16] utilizationSecCharge 62690
scalar OsgEarthNet.uav[16] utilizationSecIdle 179799.69523704
scalar OsgEarthNet.uav[16] utilizationEnergyMission 46189.318202972
scalar OsgEarthNet.uav[16] utilizationEnergyMaintenance 33516.454795837
scalar OsgEarthNet.uav[16] utilizationEnergyCharge 80838.795898438
scalar OsgEarthNet.uav[16] utilizationEnergyOverdrawMission 0
scalar OsgEarthNet.uav[16] utilizationEnergyOverdrawMaintenance 0
scalar OsgEarthNet.uav[16] utilizationCountMissions 18
scalar OsgEarthNet.uav[16] utilizationCountManeuversMission 356
scalar OsgEarthNet.uav[16] utilizationCountManeuversMaintenance 36
scalar OsgEarthNet.uav[16] utilizationCountChargeState 18
scalar OsgEarthNet.uav[16] utilizationCountOverdrawnAfterMission 0
scalar OsgEarthNet.uav[16] utilizationCountIdleState 19
scalar OsgEarthNet.uav[16] utilizationFail 0
scalar OsgEarthNet.uav[16] simulationTime 259200
scalar OsgEarthNet.uav[17] utilizationSecMission 28644.623300889
scalar OsgEarthNet.uav[17] utilizationSecMaintenance 16514.045618105
scalar OsgEarthNet.uav[17] utilizationSecCharge 169119.32908101
scalar OsgEarthNet.uav[17] utilizationSecIdle 44922.001
scalar OsgEarthNet.uav[17] utilizationEnergyMission 138070.58821106
scalar OsgEarthNet.uav[17] utilizationEnergyMaintenance 78601.97984314
scalar OsgEarthNet.uav[17] utilizationEnergyCharge 212996.22546387
scalar OsgEarthNet.uav[17] utilizationEnergyOverdrawMission 0
scalar OsgEarthNet.uav[17] utilizationEnergyOverdrawMaintenance 0
scalar OsgEarthNet.uav[17] utilizationCountMissions 52
scalar OsgEarthNet.uav[17] utilizationCountManeuversMission 861
scalar OsgEarthNet.uav[17] utilizationCountManeuversMaintenance 104
scalar OsgEarthNet.uav[17] utilizationCountChargeState 52
scalar OsgEarthNet.uav[17] utilizationCountOverdrawnAfterMission 0
scalar OsgEarthNet.uav[17] utilizationCountIdleState 52
scalar OsgEarthNet.uav[17] utilizationFail 0
scalar OsgEarthNet.uav[17] simulationTime 259200
scalar OsgEarthNet.uav[18] utilizationSecMission 36913.935866906
scalar OsgEarthNet.uav[18] utilizationSecMaintenance 14274.057133094
scalar OsgEarthNet.uav[18] utilizationSecCharge 184900
scalar OsgEarthNet.uav[18] utilizationSecIdle 23112.006
scalar OsgEarthNet.uav[18] utilizationEnergyMission 180104.81917182
scalar OsgEarthNet.uav[18] utilizationEnergyMaintenance 65482.392669678
scalar OsgEarthNet.uav[18] utilizationEnergyCharge 240142.89355469
scalar OsgEarthNet.uav[18] utilizationEnergyOverdrawMission 0
scalar OsgEarthNet.uav[18] utilizationEnergyOverdrawMaintenance 0
scalar OsgEarthNet.uav[18] utilizationCountMissions 52
scalar OsgEarthNet.uav[18] utilizationCountManeuversMission 1119
scalar OsgEarthNet.uav[18] utilizationCountManeuversMaintenance 105
scalar OsgEarthNet.uav[18] utilizationCountChargeState 52
scalar OsgEarthNet.uav[18] utilizationCountOverdrawnAfterMission 0
scalar OsgEarthNet.uav[18] utilizationCountIdleState 50
scalar OsgEarthNet.uav[18] utilizationFail 0
scalar OsgEarthNet.uav[18] simulationTime 259200
scalar OsgEarthNet.uav[19] utilizationSecMission 8234.7431818917
scalar OsgEarthNet.uav[19] utilizationSecMaintenance 3990.173532453
scalar OsgEarthNet.uav[19] utilizationSecCharge 45780
scalar OsgEarthNet.uav[19] utilizationSecIdle 201195.08228566
scalar OsgEarthNet.uav[19] utilizationEnergyMission 39918.981647491
scalar OsgEarthNet.uav[19] utilizationEnergyMaintenance 19225.807033539
scalar OsgEarthNet.uav[19] utilizationEnergyCharge 59019.610351562
scalar OsgEarthNet.uav[19] utilizationEnergyOverdrawMission 0
scalar OsgEarthNet.uav[19] utilizationEnergyOverdrawMaintenance 0
scalar OsgEarthNet.uav[19] utilizationCountMissions 13
scalar OsgEarthNet.uav[19] utilizationCountManeuversMission 208
scalar OsgEarthNet.uav[19] utilizationCountManeuversMaintenance 26
scalar OsgEarthNet.uav[19] utilizationCountChargeState 13
scalar OsgEarthNet.uav[19] utilizationCountOverdrawnAfterMission 0
scalar OsgEarthNet.uav[19] utilizationCountIdleState 14
scalar OsgEarthNet.uav[19] utilizationFail 0
scalar OsgEarthNet.uav[19] simulationTime 259200
scalar OsgEarthNet.uav[20] utilizationSecMission 13117.134717134
scalar OsgEarthNet.uav[20] utilizationSecMaintenance 7090.176085471
scalar OsgEarthNet.uav[20] utilizationSecCharge 74560
scalar OsgEarthNet.uav[20] utilizationSecIdle 164432.6881974
scalar OsgEarthNet.uav[20] utilizationEnergyMission 62449.818504333
scalar OsgEarthNet.uav[20] utilizationEnergyMaintenance 33922.338039398
scalar OsgEarthNet.uav[20] utilizationEnergyCharge 96456.133300781
scalar OsgEarthNet.uav[20] utilizationEnergyOverdrawMission 0
scalar OsgEarthNet.uav[20] utilizationEnergyOverdrawMaintenance 0
scalar OsgEarthNet.uav[20] utilizationCountMissions 21
scalar OsgEarthNet.uav[20] utilizationCountManeuversMission 365
scalar OsgEarthNet.uav[20] utilizationCountManeuversMaintenance 42
scalar OsgEarthNet.uav[20] utilizationCountChargeState 21
scalar OsgEarthNet.uav[20] utilizationCountOverdrawnAfterMission 0
scalar OsgEarthNet.uav[20] utilizationCountIdleState 22
scalar OsgEarthNet.uav[20] utilizationFail 0
scalar OsgEarthNet.uav[20] simulationTime 259200
scalar OsgEarthNet.uav[21] utilizationSecMission 25324.889707094
scalar OsgEarthNet.uav[21] utilizationSecMaintenance 14549.826891029
scalar OsgEarthNet.uav[21] utilizationSecCharge 155250
scalar OsgEarthNet.uav[21] utilizationSecIdle 64075.282401877
scalar OsgEarthNet.uav[21] utilizationEnergyMission 120499.56924057
scalar OsgEarthNet.uav[21] utilizationEnergyMaintenance 69290.826469421
scalar OsgEarthNet.uav[21] utilizationEnergyCharge 191292.22338867
scalar OsgEarthNet.uav[21] utilizationEnergyOverdrawMission 0
scalar OsgEarthNet.uav[21] utilizationEnergyOverdrawMaintenance 0
scalar OsgEarthNet.uav[21] utilizationCountMissions 49
scalar OsgEarthNet.uav[21] utilizationCountManeuversMission 686
scalar OsgEarthNet.uav[21] utilizationCountManeuversMaintenance 98
scalar OsgEarthNet.uav[21] utilizationCountChargeState 49
scalar OsgEarthNet.uav[21] utilizationCountOverdrawnAfterMission 0
scalar OsgEarthNet.uav[21] utilizationCountIdleState 50
scalar OsgEarthNet.uav[21] utilizationFail 0
scalar OsgEarthNet.uav[21] simulationTime 259200
scalar OsgEarthNet.uav[22] utilizationSecMission 36032.942445026
scalar OsgEarthNet.uav[22] utilizationSecMaintenance 15039.607585548
scalar OsgEarthNet.uav[22] utilizationSecCharge 187427.81788876
scalar OsgEarthNet.uav[22] utilizationSecIdle 20699.631080665
scalar OsgEarthNet.uav[22] utilizationEnergyMission 174100.64224243
scalar OsgEarthNet.uav[22] utilizationEnergyMaintenance 69731.99691391
scalar OsgEarthNet.uav[22] utilizationEnergyCharge 244410.22412109
scalar OsgEarthNet.uav[22] utilizationEnergyOverdrawMission 0
scalar OsgEarthNet.uav[22] utilizationEnergyOverdrawMaintenance 0
scalar OsgEarthNet.uav[22] utilizationCountMissions 53
scalar OsgEarthNet.uav[22] utilizationCountManeuversMission 1200
scalar OsgEarthNet.uav[22] utilizationCountManeuversMaintenance 106
scalar OsgEarthNet.uav[22] utilizationCountChargeState 53
scalar OsgEarthNet.uav[22] utilizationCountOverdrawnAfterMission 0
scalar OsgEarthNet.uav[22] utilizationCountIdleState 50
scalar OsgEarthNet.uav[22] utilizationFail 0
scalar OsgEarthNet.uav[22] simulationTime 259200
scalar OsgEarthNet.uav[23] utilizationSecMission 12543.750915482
scalar OsgEarthNet.uav[23] utilizationSecMaintenance 8775.1865112228
scalar OsgEarthNet.uav[23] utilizationSecCharge 80090
scalar OsgEarthNet.uav[23] utilizationSecIdle 157791.0615733
scalar OsgEarthNet.uav[23] utilizationEnergyMission 62049.365161896
scalar OsgEarthNet.uav[23] utilizationEnergyMaintenance 41763.456848144
scalar OsgEarthNet.uav[23] utilizationEnergyCharge 102916.06689453
scalar OsgEarthNet.uav[23] utilizationEnergyOverdrawMission 0
scalar OsgEarthNet.uav[23] utilizationEnergyOverdrawMaintenance 0
scalar OsgEarthNet.uav[23] utilizationCountMissions 23
scalar OsgEarthNet.uav[23] utilizationCountManeuversMission 471
scalar OsgEarthNet.uav[23] utilizationCountManeuversMaintenance 46
scalar OsgEarthNet.uav[23] utilizationCountChargeState 23
scalar OsgEarthNet.uav[23] utilizationCountOverdrawnAfterMission 0
scalar OsgEarthNet.uav[23] utilizationCountIdleState 24
scalar OsgEarthNet.uav[23] utilizationFail 0
scalar OsgEarthNet.uav[23] simulationTime 259200
scalar OsgEarthNet.uav[24] utilizationSecMission 27097.621419375
scalar OsgEarthNet.uav[24] utilizationSecMaintenance 15919.027423764
scalar OsgEarthNet.uav[24] utilizationSecCharge 163987.34491696
scalar OsgEarthNet.uav[24] utilizationSecIdle 52196.005239897
scalar OsgEarthNet.uav[24] utilizationEnergyMission 130939.00930405
scalar OsgEarthNet.uav[24] utilizationEnergyMaintenance 75803.437259674
scalar OsgEarthNet.uav[24] utilizationEnergyCharge 206264.9519043
scalar OsgEarthNet.uav[24] utilizationEnergyOverdrawMission 0
scalar OsgEarthNet.uav[24] utilizationEnergyOverdrawMaintenance 0
scalar OsgEarthNet.uav[24] utilizationCountMissions 50
scalar OsgEarthNet.uav[24] utilizationCountManeuversMission 823
scalar OsgEarthNet.uav[24] utilizationCountManeuversMaintenance 100
scalar OsgEarthNet.uav[24] utilizationCountChargeState 50
scalar OsgEarthNet.uav[24] utilizationCountOverdrawnAfterMission 0
scalar OsgEarthNet.uav[24] utilizationCountIdleState 50
scalar OsgEarthNet.uav[24] utilizationFail 0
scalar OsgEarthNet.uav[24] simulationTime 259200
scalar OsgEarthNet.uav[25] utilizationSecMission 36629.788869151
scalar OsgEarthNet.uav[25] utilizationSecMaintenance 14604.38893686
scalar OsgEarthNet.uav[25] utilizationSecCharge 186356.3958467
scalar OsgEarthNet.uav[25] utilizationSecIdle 21609.42534729
scalar OsgEarthNet.uav[25] utilizationEnergyMission 177550.93058014
scalar OsgEarthNet.uav[25] utilizationEnergyMaintenance 66830.370128632
scalar OsgEarthNet.uav[25] utilizationEnergyCharge 242811.66381836
scalar OsgEarthNet.uav[25] utilizationEnergyOverdrawMission 0
scalar OsgEarthNet.uav[25] utilizationEnergyOverdrawMaintenance 0
scalar OsgEarthNet.uav[25] utilizationCountMissions 53
scalar OsgEarthNet.uav[25] utilizationCountManeuversMission 1175
scalar OsgEarthNet.uav[25] utilizationCountManeuversMaintenance 106
scalar OsgEarthNet.uav[25] utilizationCountChargeState 53
scalar OsgEarthNet.uav[25] utilizationCountOverdrawnAfterMission 0
scalar OsgEarthNet.uav[25] utilizationCountIdleState 52
scalar OsgEarthNet.uav[25] utilizationFail 0
scalar OsgEarthNet.uav[25] simulationTime 259200
scalar OsgEarthNet.uav[26] utilizationSecMission 13975.993487052
scalar OsgEarthNet.uav[26] utilizationSecMaintenance 8490.7988163419
scalar OsgEarthNet.uav[26] utilizationSecCharge 84820
scalar OsgEarthNet.uav[26] utilizationSecIdle 151913.20669661
scalar OsgEarthNet.uav[26] utilizationEnergyMission 68285.89573288
scalar OsgEarthNet.uav[26] utilizationEnergyMaintenance 40696.282165527
scalar OsgEarthNet.uav[26] utilizationEnergyCharge 109414.63476562
scalar OsgEarthNet.uav[26] utilizationEnergyOverdrawMission 0
scalar OsgEarthNet.uav[26] utilizationEnergyOverdrawMaintenance 0
scalar OsgEarthNet.uav[26] utilizationCountMissions 24
scalar OsgEarthNet.uav[26] utilizationCountManeuversMission 443
scalar OsgEarthNet.uav[26] utilizationCountManeuversMaintenance 48
scalar OsgEarthNet.uav[26] utilizationCountChargeState 24
scalar OsgEarthNet.uav[26] utilizationCountOverdrawnAfterMission 0
scalar OsgEarthNet.uav[26] utilizationCountIdleState 25
scalar OsgEarthNet.uav[26] utilizationFail 0
scalar OsgEarthNet.uav[26] simulationTime 259200
scalar OsgEarthNet.uav[27] utilizationSecMission 27894.317197963
scalar OsgEarthNet.uav[27] utilizationSecMaintenance 17174.129776736
scalar OsgEarthNet.uav[27] utilizationSecCharge 174560
scalar OsgEarthNet.uav[27] utilizationSecIdle 39571.552025301
scalar OsgEarthNet.uav[27] utilizationEnergyMission 133627.1421814
scalar OsgEarthNet.uav[27] utilizationEnergyMaintenance 81606.208099365
scalar OsgEarthNet.uav[27] utilizationEnergyCharge 215572.33959961
scalar OsgEarthNet.uav[27] utilizationEnergyOverdrawMission 0
scalar OsgEarthNet.uav[27] utilizationEnergyOverdrawMaintenance 0
scalar OsgEarthNet.uav[27] utilizationCountMissions 55
scalar OsgEarthNet.uav[27] utilizationCountManeuversMission 796
scalar OsgEarthNet.uav[27] utilizationCountManeuversMaintenance 110
scalar OsgEarthNet.uav[27] utilizationCountChargeState 55
scalar OsgEarthNet.uav[27] utilizationCountOverdrawnAfterMission 0
scalar OsgEarthNet.uav[27] utilizationCountIdleState 56
scalar OsgEarthNet.uav[27] utilizationFail 0
scalar OsgEarthNet.uav[27] simulationTime 259200
scalar OsgEarthNet.uav[28] utilizationSecMission 37947.391008859
scalar OsgEarthNet.uav[28] utilizationSecMaintenance 13973.310386636
scalar OsgEarthNet.uav[28] utilizationSecCharge 186950.07799059
scalar OsgEarthNet.uav[28] utilizationSecIdle 20329.219613916
scalar OsgEarthNet.uav[28] utilizationEnergyMission 180769.11563873
scalar OsgEarthNet.uav[28] utilizationEnergyMaintenance 64908.640132904
scalar OsgEarthNet.uav[28] utilizationEnergyCharge 244043.70715332
scalar OsgEarthNet.uav[28] utilizationEnergyOverdrawMission 0
scalar OsgEarthNet.uav[28] utilizationEnergyOverdrawMaintenance 0
scalar OsgEarthNet.uav[28] utilizationCountMissions 53
scalar OsgEarthNet.uav[28] utilizationCountManeuversMission 1065
scalar OsgEarthNet.uav[28] utilizationCountManeuversMaintenance 106
scalar OsgEarthNet.uav[28] utilizationCountChargeState 53
scalar OsgEarthNet.uav[28] utilizationCountOverdrawnAfterMission 0
scalar OsgEarthNet.uav[28] utilizationCountIdleState 50
scalar OsgEarthNet.uav[28] utilizationFail 0
scalar OsgEarthNet.uav[28] simulationTime 259200
scalar OsgEarthNet.uav[29] utilizationSecMission 17536.618639633
scalar OsgEarthNet.uav[29] utilizationSecMaintenance 11543.310031514
scalar OsgEarthNet.uav[29] utilizationSecCharge 109220
scalar OsgEarthNet.uav[29] utilizationSecIdle 120900.07032885
scalar OsgEarthNet.uav[29] utilizationEnergyMission 86625.461776733
scalar OsgEarthNet.uav[29] utilizationEnergyMaintenance 54990.998950958
scalar OsgEarthNet.uav[29] utilizationEnergyCharge 140823.23388672
scalar OsgEarthNet.uav[29] utilizationEnergyOverdrawMission 0
scalar OsgEarthNet.uav[29] utilizationEnergyOverdrawMaintenance 0
scalar OsgEarthNet.uav[29] utilizationCountMissions 31
scalar OsgEarthNet.uav[29] utilizationCountManeuversMission 595
scalar OsgEarthNet.uav[29] utilizationCountManeuversMaintenance 62
scalar OsgEarthNet.uav[29] utilizationCountChargeState 31
scalar OsgEarthNet.uav[29] utilizationCountOverdrawnAfterMission 0
scalar OsgEarthNet.uav[29] utilizationCountIdleState 32
scalar OsgEarthNet.uav[29] utilizationFail 0
scalar OsgEarthNet.uav[29] simulationTime 259200
scalar OsgEarthNet.uav[30] utilizationSecMission 15888.236058623
scalar OsgEarthNet.uav[30] utilizationSecMaintenance 8751.241490822
scalar OsgEarthNet.uav[30] utilizationSecCharge 90878.511450555
scalar OsgEarthNet.uav[30] utilizationSecIdle 143682.01
scalar OsgEarthNet.uav[30] utilizationEnergyMission 77043.457855225
scalar OsgEarthNet.uav[30] utilizationEnergyMaintenance 41761.392784119
scalar OsgEarthNet.uav[30] utilizationEnergyCharge 118532.80249023
scalar OsgEarthNet.uav[30] utilizationEnergyOverdrawMission 0
scalar OsgEarthNet.uav[30] utilizationEnergyOverdrawMaintenance 0
scalar OsgEarthNet.uav[30] utilizationCountMissions 26
scalar OsgEarthNet.uav[30] utilizationCountManeuversMission 439
scalar OsgEarthNet.uav[30] utilizationCountManeuversMaintenance 52
scalar OsgEarthNet.uav[30] utilizationCountChargeState 26
scalar OsgEarthNet.uav[30] utilizationCountOverdrawnAfterMission 0
scalar OsgEarthNet.uav[30] utilizationCountIdleState 26
scalar OsgEarthNet.uav[30] utilizationFail 0
scalar OsgEarthNet.uav[30] simulationTime 259200
scalar OsgEarthNet.uav[31] utilizationSecMission 30770.895038038
scalar OsgEarthNet.uav[31] utilizationSecMaintenance 15680.426404413
scalar OsgEarthNet.uav[31] utilizationSecCharge 172307.61976236
scalar OsgEarthNet.uav[31] utilizationSecIdle 40441.057795193
scalar OsgEarthNet.uav[31] utilizationEnergyMission 151280.49775314
scalar OsgEarthNet.uav[31] utilizationEnergyMaintenance 71813.147640228
scalar OsgEarthNet.uav[31] utilizationEnergyCharge 218333.86083984
scalar OsgEarthNet.uav[31] utilizationEnergyOverdrawMission 0
scalar OsgEarthNet.uav[31] utilizationEnergyOverdrawMaintenance 0
scalar OsgEarthNet.uav[31] utilizationCountMissions 52
scalar OsgEarthNet.uav[31] utilizationCountManeuversMission 980
scalar OsgEarthNet.uav[31] utilizationCountManeuversMaintenance 104
scalar OsgEarthNet.uav[31] utilizationCountChargeState 52
scalar OsgEarthNet.uav[31] utilizationCountOverdrawnAfterMission 0
scalar OsgEarthNet.uav[31] utilizationCountIdleState 52
scalar OsgEarthNet.uav[31] utilizationFail 0
scalar OsgEarthNet.uav[31] simulationTime 259200
scalar OsgEarthNet.uav[32] utilizationSecMission 35858.47885801
scalar OsgEarthNet.uav[32] utilizationSecMaintenance 15030.476337848
scalar OsgEarthNet.uav[32] utilizationSecCharge 186529.03880414
scalar OsgEarthNet.uav[32] utilizationSecIdle 21782.005
scalar OsgEarthNet.uav[32] utilizationEnergyMission 174148.93067551
scalar OsgEarthNet.uav[32] utilizationEnergyMaintenance 69005.241996765
scalar OsgEarthNet.uav[32] utilizationEnergyCharge 243625.9987793
scalar OsgEarthNet.uav[32] utilizationEnergyOverdrawMission 0
scalar OsgEarthNet.uav[32] utilizationEnergyOverdrawMaintenance 0
scalar OsgEarthNet.uav[32] utilizationCountMissions 53
scalar OsgEarthNet.uav[32] utilizationCountManeuversMission 1154
scalar OsgEarthNet.uav[32] utilizationCountManeuversMaintenance 106
scalar OsgEarthNet.uav[32] utilizationCountChargeState 53
scalar OsgEarthNet.uav[32] utilizationCountOverdrawnAfterMission 0
scalar OsgEarthNet.uav[32] utilizationCountIdleState 47
scalar OsgEarthNet.uav[32] utilizationFail 0
scalar OsgEarthNet.uav[32] simulationTime 259200
scalar OsgEarthNet.uav[33] utilizationSecMission 15705.626373223
scalar OsgEarthNet.uav[33] utilizationSecMaintenance 10501.679240696
scalar OsgEarthNet.uav[33] utilizationSecCharge 97930.675386081
scalar OsgEarthNet.uav[33] utilizationSecIdle 135062.018
scalar OsgEarthNet.uav[33] utilizationEnergyMission 77383.761234283
scalar OsgEarthNet.uav[33] utilizationEnergyMaintenance 49893.329788208
scalar OsgEarthNet.uav[33] utilizationEnergyCharge 126190.84423828
scalar OsgEarthNet.uav[33] utilizationEnergyOverdrawMission 0
scalar OsgEarthNet.uav[33] utilizationEnergyOverdrawMaintenance 0
scalar OsgEarthNet.uav[33] utilizationCountMissions 28
scalar OsgEarthNet.uav[33] utilizationCountManeuversMission 551
scalar OsgEarthNet.uav[33] utilizationCountManeuversMaintenance 56
scalar OsgEarthNet.uav[33] utilizationCountChargeState 28
scalar OsgEarthNet.uav[33] utilizationCountOverdrawnAfterMission 0
scalar OsgEarthNet.uav[33] utilizationCountIdleState 28
scalar OsgEarthNet.uav[33] utilizationFail 0
scalar OsgEarthNet.uav[33] simulationTime 259200
scalar OsgEarthNet.uav[34] utilizationSecMission 28175.563847734
scalar OsgEarthNet.uav[34] utilizationSecMaintenance 15994.37287478
scalar OsgEarthNet.uav[34] utilizationSecCharge 169525.35657845
scalar OsgEarthNet.uav[34] utilizationSecIdle 45504.705699036
scalar OsgEarthNet.uav[34] utilizationEnergyMission 138946.92711639
scalar OsgEarthNet.uav[34] utilizationEnergyMaintenance 76122.512557983
scalar OsgEarthNet.uav[34] utilizationEnergyCharge 215120.16894531
scalar OsgEarthNet.uav[34] utilizationEnergyOverdrawMission 0
scalar OsgEarthNet.uav[34] utilizationEnergyOverdrawMaintenance 0
scalar OsgEarthNet.uav[34] utilizationCountMissions 50
scalar OsgEarthNet.uav[34] utilizationCountManeuversMission 889
scalar OsgEarthNet.uav[34] utilizationCountManeuversMaintenance 100
scalar OsgEarthNet.uav[34] utilizationCountChargeState 50
scalar OsgEarthNet.uav[34] utilizationCountOverdrawnAfterMission 0
scalar OsgEarthNet.uav[34] utilizationCountIdleState 50
scalar OsgEarthNet.uav[34] utilizationFail 0
scalar OsgEarthNet.uav[34] simulationTime 259200
scalar OsgEarthNet.uav[35] utilizationSecMission 37152.742796433
scalar OsgEarthNet.uav[35] utilizationSecMaintenance 14225.583151981
scalar OsgEarthNet.uav[35] utilizationSecCharge 185360
scalar OsgEarthNet.uav[35] utilizationSecIdle 22461.673051586
scalar OsgEarthNet.uav[35] utilizationEnergyMission 178682.17635907
scalar OsgEarthNet.uav[35] utilizationEnergyMaintenance 66739.101612091
scalar OsgEarthNet.uav[35] utilizationEnergyCharge 241230.61914062
scalar OsgEarthNet.uav[35] utilizationEnergyOverdrawMission 0
scalar OsgEarthNet.uav[35] utilizationEnergyOverdrawMaintenance 0
scalar OsgEarthNet.uav[35] utilizationCountMissions 52
scalar OsgEarthNet.uav[35] utilizationCountManeuversMission 1068
scalar OsgEarthNet.uav[35] utilizationCountManeuversMaintenance 105
scalar OsgEarthNet.uav[35] utilizationCountChargeState 52
scalar OsgEarthNet.uav[35] utilizationCountOverdrawnAfterMission 0
scalar OsgEarthNet.uav[35] utilizationCountIdleState 48
scalar OsgEarthNet.uav[35] utilizationFail 0
scalar OsgEarthNet.uav[35] simulationTime 259200
scalar OsgEarthNet.uav[36] utilizationSecMission 15357.134717134
scalar OsgEarthNet.uav[36] utilizationSecMaintenance 9239.9673977503
scalar OsgEarthNet.uav[36] utilizationSecCharge 88850.876885116
scalar OsgEarthNet.uav[36] utilizationSecIdle 145752.02
scalar OsgEarthNet.uav[36] utilizationEnergyMission 73778.69480896
scalar OsgEarthNet.uav[36] utilizationEnergyMaintenance 43974.266044617
scalar OsgEarthNet.uav[36] utilizationEnergyCharge 115077.51324463
scalar OsgEarthNet.uav[36] utilizationEnergyOverdrawMission 0
scalar OsgEarthNet.uav[36] utilizationEnergyOverdrawMaintenance 0
scalar OsgEarthNet.uav[36] utilizationCountMissions 26
scalar OsgEarthNet.uav[36] utilizationCountManeuversMission 477
scalar OsgEarthNet.uav[36] utilizationCountManeuversMaintenance 52
scalar OsgEarthNet.uav[36] utilizationCountChargeState 26
scalar OsgEarthNet.uav[36] utilizationCountOverdrawnAfterMission 0
scalar OsgEarthNet.uav[36] utilizationCountIdleState 26
scalar OsgEarthNet.uav[36] utilizationFail 0
scalar OsgEarthNet.uav[36] simulationTime 259200
scalar OsgEarthNet.uav[37] utilizationSecMission 28077.265029466
scalar OsgEarthNet.uav[37] utilizationSecMaintenance 17057.265389526
scalar OsgEarthNet.uav[37] utilizationSecCharge 172563.46858101
scalar OsgEarthNet.uav[37] utilizationSecIdle 41502
scalar OsgEarthNet.uav[37] utilizationEnergyMission 134335.09566116
scalar OsgEarthNet.uav[37] utilizationEnergyMaintenance 81069.941608429
scalar OsgEarthNet.uav[37] utilizationEnergyCharge 213462.87426758
scalar OsgEarthNet.uav[37] utilizationEnergyOverdrawMission 0
scalar OsgEarthNet.uav[37] utilizationEnergyOverdrawMaintenance 0
scalar OsgEarthNet.uav[37] utilizationCountMissions 55
scalar OsgEarthNet.uav[37] utilizationCountManeuversMission 783
scalar OsgEarthNet.uav[37] utilizationCountManeuversMaintenance 110
scalar OsgEarthNet.uav[37] utilizationCountChargeState 55
scalar OsgEarthNet.uav[37] utilizationCountOverdrawnAfterMission 0
scalar OsgEarthNet.uav[37] utilizationCountIdleState 55
scalar OsgEarthNet.uav[37] utilizationFail 0
scalar OsgEarthNet.uav[37] simulationTime 259200
scalar OsgEarthNet.uav[38] utilizationSecMission 35623.00443542
scalar OsgEarthNet.uav[38] utilizationSecMaintenance 15927.819454169
scalar OsgEarthNet.uav[38] utilizationSecCharge 190030
scalar OsgEarthNet.uav[38] utilizationSecIdle 17619.175110411
scalar OsgEarthNet.uav[38] utilizationEnergyMission 174888.3892396
scalar OsgEarthNet.uav[38] utilizationEnergyMaintenance 73598.784675598
scalar OsgEarthNet.uav[38] utilizationEnergyCharge 247173.67822266
scalar OsgEarthNet.uav[38] utilizationEnergyOverdrawMission 0
scalar OsgEarthNet.uav[38] utilizationEnergyOverdrawMaintenance 0
scalar OsgEarthNet.uav[38] utilizationCountMissions 54
scalar OsgEarthNet.uav[38] utilizationCountManeuversMission 1257
scalar OsgEarthNet.uav[38] utilizationCountManeuversMaintenance 109
scalar OsgEarthNet.uav[38] utilizationCountChargeState 54
scalar OsgEarthNet.uav[38] utilizationCountOverdrawnAfterMission 0
scalar OsgEarthNet.uav[38] utilizationCountIdleState 48
scalar OsgEarthNet.uav[38] utilizationFail 0
scalar OsgEarthNet.uav[38] simulationTime 259200
scalar OsgEarthNet.uav[39] utilizationSecMission 13995.993487052
scalar OsgEarthNet.uav[39] utilizationSecMaintenance 8578.1661383109
scalar OsgEarthNet.uav[39] utilizationSecCharge 83653.832374637
scalar OsgEarthNet.uav[39] utilizationSecIdle 152972.007
scalar OsgEarthNet.uav[39] utilizationEnergyMission 66630.899909973
scalar OsgEarthNet.uav[39] utilizationEnergyMaintenance 41366.984466553
scalar OsgEarthNet.uav[39] utilizationEnergyCharge 108720.99902344
scalar OsgEarthNet.uav[39] utilizationEnergyOverdrawMission 0
scalar OsgEarthNet.uav[39] utilizationEnergyOverdrawMaintenance 0
scalar OsgEarthNet.uav[39] utilizationCountMissions 24
scalar OsgEarthNet.uav[39] utilizationCountManeuversMission 444
scalar OsgEarthNet.uav[39] utilizationCountManeuversMaintenance 48
scalar OsgEarthNet.uav[39] utilizationCountChargeState 24
scalar OsgEarthNet.uav[39] utilizationCountOverdrawnAfterMission 0
scalar OsgEarthNet.uav[39] utilizationCountIdleState 24
scalar OsgEarthNet.uav[39] utilizationFail 0
scalar OsgEarthNet.uav[39] simulationTime 259200
scalar OsgEarthNet.uav[40] utilizationSecMission 12492.758649072
scalar OsgEarthNet.uav[40] utilizationSecMaintenance 9950.0879171059
scalar OsgEarthNet.uav[40] utilizationSecCharge 82255.133433822
scalar OsgEarthNet.uav[40] utilizationSecIdle 154502.019
scalar OsgEarthNet.uav[40] utilizationEnergyMission 62270.978019714
scalar OsgEarthNet.uav[40] utilizationEnergyMaintenance 47533.220092773
scalar OsgEarthNet.uav[40] utilizationEnergyCharge 106663.8137207
scalar OsgEarthNet.uav[40] utilizationEnergyOverdrawMission 0
scalar OsgEarthNet.uav[40] utilizationEnergyOverdrawMaintenance 0
scalar OsgEarthNet.uav[40] utilizationCountMissions 24
scalar OsgEarthNet.uav[40] utilizationCountManeuversMission 516
scalar OsgEarthNet.uav[40] utilizationCountManeuversMaintenance 48
scalar OsgEarthNet.uav[40] utilizationCountChargeState 24
scalar OsgEarthNet.uav[40] utilizationCountOverdrawnAfterMission 0
scalar OsgEarthNet.uav[40] utilizationCountIdleState 24
scalar OsgEarthNet.uav[40] utilizationFail 0
scalar OsgEarthNet.uav[40] simulationTime 259200
scalar OsgEarthNet.uav[41] utilizationSecMission 28976.664972085
scalar OsgEarthNet.uav[41] utilizationSecMaintenance 16408.964368343
scalar OsgEarthNet.uav[41] utilizationSecCharge 174172.36965957
scalar OsgEarthNet.uav[41] utilizationSecIdle 39642
scalar OsgEarthNet.uav[41] utilizationEnergyMission 137622.15745544
scalar OsgEarthNet.uav[41] utilizationEnergyMaintenance 76773.484210968
scalar OsgEarthNet.uav[41] utilizationEnergyCharge 215664.71435547
scalar OsgEarthNet.uav[41] utilizationEnergyOverdrawMission 0
scalar OsgEarthNet.uav[41] utilizationEnergyOverdrawMaintenance 0
scalar OsgEarthNet.uav[41] utilizationCountMissions 55
scalar OsgEarthNet.uav[41] utilizationCountManeuversMission 777
scalar OsgEarthNet.uav[41] utilizationCountManeuversMaintenance 109
scalar OsgEarthNet.uav[41] utilizationCountChargeState 55
scalar OsgEarthNet.uav[41] utilizationCountOverdrawnAfterMission 0
scalar OsgEarthNet.uav[41] utilizationCountIdleState 55
scalar OsgEarthNet.uav[41] utilizationFail 0
scalar OsgEarthNet.uav[41] simulationTime 259200
scalar OsgEarthNet.uav[42] utilizationSecMission 36381.633495277
scalar OsgEarthNet.uav[42] utilizationSecMaintenance 15272.224395619
scalar OsgEarthNet.uav[42] utilizationSecCharge 189164.1411091
scalar OsgEarthNet.uav[42] utilizationSecIdle 18382
scalar OsgEarthNet.uav[42] utilizationEnergyMission 178121.64730462
scalar OsgEarthNet.uav[42] utilizationEnergyMaintenance 70078.587333679
scalar OsgEarthNet.uav[42] utilizationEnergyCharge 246741.74267578
scalar OsgEarthNet.uav[42] utilizationEnergyOverdrawMission 0
scalar OsgEarthNet.uav[42] utilizationEnergyOverdrawMaintenance 0
scalar OsgEarthNet.uav[42] utilizationCountMissions 54
scalar OsgEarthNet.uav[42] utilizationCountManeuversMission 1247
scalar OsgEarthNet.uav[42] utilizationCountManeuversMaintenance 107
scalar OsgEarthNet.uav[42] utilizationCountChargeState 54
scalar OsgEarthNet.uav[42] utilizationCountOverdrawnAfterMission 0
scalar OsgEarthNet.uav[42] utilizationCountIdleState 52
scalar OsgEarthNet.uav[42] utilizationFail 0
scalar OsgEarthNet.uav[42] simulationTime 259200
scalar OsgEarthNet.uav[43] utilizationSecMission 11482.500610321
scalar OsgEarthNet.uav[43] utilizationSecMaintenance 8933.6131397687
scalar OsgEarthNet.uav[43] utilizationSecCharge 76025.483911802
scalar OsgEarthNet.uav[43] utilizationSecIdle 162758.40133811
scalar OsgEarthNet.uav[43] utilizationEnergyMission 57390.795528412
scalar OsgEarthNet.uav[43] utilizationEnergyMaintenance 42679.873687744
scalar OsgEarthNet.uav[43] utilizationEnergyCharge 98934.404296875
scalar OsgEarthNet.uav[43] utilizationEnergyOverdrawMission 0
scalar OsgEarthNet.uav[43] utilizationEnergyOverdrawMaintenance 0
scalar OsgEarthNet.uav[43] utilizationCountMissions 22
scalar OsgEarthNet.uav[43] utilizationCountManeuversMission 470
scalar OsgEarthNet.uav[43] utilizationCountManeuversMaintenance 44
scalar OsgEarthNet.uav[43] utilizationCountChargeState 22
scalar OsgEarthNet.uav[43] utilizationCountOverdrawnAfterMission 0
scalar OsgEarthNet.uav[43] utilizationCountIdleState 22
scalar OsgEarthNet.uav[43] utilizationFail 0
scalar OsgEarthNet.uav[43] simulationTime 259200
scalar OsgEarthNet.uav[44] utilizationSecMission 29242.231861513
scalar OsgEarthNet.uav[44] utilizationSecMaintenance 16116.610632397
scalar OsgEarthNet.uav[44] utilizationSecCharge 170339.15350609
scalar OsgEarthNet.uav[44] utilizationSecIdle 43502.003
scalar OsgEarthNet.uav[44] utilizationEnergyMission 139078.85200119
scalar OsgEarthNet.uav[44] utilizationEnergyMaintenance 76111.862667084
scalar OsgEarthNet.uav[44] utilizationEnergyCharge 213060.86303711
scalar OsgEarthNet.uav[44] utilizationEnergyOverdrawMission 0
scalar OsgEarthNet.uav[44] utilizationEnergyOverdrawMaintenance 0
scalar OsgEarthNet.uav[44] utilizationCountMissions 53
scalar OsgEarthNet.uav[44] utilizationCountManeuversMission 847
scalar OsgEarthNet.uav[44] utilizationCountManeuversMaintenance 106
scalar OsgEarthNet.uav[44] utilizationCountChargeState 53
scalar OsgEarthNet.uav[44] utilizationCountOverdrawnAfterMission 0
scalar OsgEarthNet.uav[44] utilizationCountIdleState 53
scalar OsgEarthNet.uav[44] utilizationFail 0
scalar OsgEarthNet.uav[44] simulationTime 259200
scalar OsgEarthNet.uav[45] utilizationSecMission 36799.517104348
scalar OsgEarthNet.uav[45] utilizationSecMaintenance 14545.193212463
scalar OsgEarthNet.uav[45] utilizationSecCharge 186733.83572447
scalar OsgEarthNet.uav[45] utilizationSecIdle 21121.452958717
scalar OsgEarthNet.uav[45] utilizationEnergyMission 180002.64654541
scalar OsgEarthNet.uav[45] utilizationEnergyMaintenance 67067.983222961
scalar OsgEarthNet.uav[45] utilizationEnergyCharge 244156.9765625
scalar OsgEarthNet.uav[45] utilizationEnergyOverdrawMission 0
scalar OsgEarthNet.uav[45] utilizationEnergyOverdrawMaintenance 0
scalar OsgEarthNet.uav[45] utilizationCountMissions 53
scalar OsgEarthNet.uav[45] utilizationCountManeuversMission 1132
scalar OsgEarthNet.uav[45] utilizationCountManeuversMaintenance 106
scalar OsgEarthNet.uav[45] utilizationCountChargeState 53
scalar OsgEarthNet.uav[45] utilizationCountOverdrawnAfterMission 0
scalar OsgEarthNet.uav[45] utilizationCountIdleState 48
scalar OsgEarthNet.uav[45] utilizationFail 0
scalar OsgEarthNet.uav[45] simulationTime 259200
scalar OsgEarthNet.uav[46] utilizationSecMission 16720.935531006
scalar OsgEarthNet.uav[46] utilizationSecMaintenance 11266.963084269
scalar OsgEarthNet.uav[46] utilizationSecCharge 103980.09138472
scalar OsgEarthNet.uav[46] utilizationSecIdle 127232.009
scalar OsgEarthNet.uav[46] utilizationEnergyMission 80062.901245117
scalar OsgEarthNet.uav[46] utilizationEnergyMaintenance 53666.896778107
scalar OsgEarthNet.uav[46] utilizationEnergyCharge 132927.49072266
scalar OsgEarthNet.uav[46] utilizationEnergyOverdrawMission 0
scalar OsgEarthNet.uav[46] utilizationEnergyOverdrawMaintenance 0
scalar OsgEarthNet.uav[46] utilizationCountMissions 31
scalar OsgEarthNet.uav[46] utilizationCountManeuversMission 551
scalar OsgEarthNet.uav[46] utilizationCountManeuversMaintenance 62
scalar OsgEarthNet.uav[46] utilizationCountChargeState 31
scalar OsgEarthNet.uav[46] utilizationCountOverdrawnAfterMission 0
scalar OsgEarthNet.uav[46] utilizationCountIdleState 31
scalar OsgEarthNet.uav[46] utilizationFail 0
scalar OsgEarthNet.uav[46] simulationTime 259200
scalar OsgEarthNet.uav[47] utilizationSecMission 29256.474233246
scalar OsgEarthNet.uav[47] utilizationSecMaintenance 16033.284754866
scalar OsgEarthNet.uav[47] utilizationSecCharge 173050
scalar OsgEarthNet.uav[47] utilizationSecIdle 40860.240011889
scalar OsgEarthNet.uav[47] utilizationEnergyMission 140883.73032379
scalar OsgEarthNet.uav[47] utilizationEnergyMaintenance 76467.694301605
scalar OsgEarthNet.uav[47] utilizationEnergyCharge 216248.76635742
scalar OsgEarthNet.uav[47] utilizationEnergyOverdrawMission 0
scalar OsgEarthNet.uav[47] utilizationEnergyOverdrawMaintenance 0
scalar OsgEarthNet.uav[47] utilizationCountMissions 53
scalar OsgEarthNet.uav[47] utilizationCountManeuversMission 817
scalar OsgEarthNet.uav[47] utilizationCountManeuversMaintenance 106
scalar OsgEarthNet.uav[47] utilizationCountChargeState 53
scalar OsgEarthNet.uav[47] utilizationCountOverdrawnAfterMission 0
scalar OsgEarthNet.uav[47] utilizationCountIdleState 54
scalar OsgEarthNet.uav[47] utilizationFail 0
scalar OsgEarthNet.uav[47] simulationTime 259200
scalar OsgEarthNet.uav[48] utilizationSecMission 36995.535128856
scalar OsgEarthNet.uav[48] utilizationSecMaintenance 14462.462871144
scalar OsgEarthNet.uav[48] utilizationSecCharge 187340
scalar OsgEarthNet.uav[48] utilizationSecIdle 20402.001
scalar OsgEarthNet.uav[48] utilizationEnergyMission 179681.37138263
scalar OsgEarthNet.uav[48] utilizationEnergyMaintenance 67323.130397797
scalar OsgEarthNet.uav[48] utilizationEnergyCharge 243841.34765625
scalar OsgEarthNet.uav[48] utilizationEnergyOverdrawMission 0
scalar OsgEarthNet.uav[48] utilizationEnergyOverdrawMaintenance 0
scalar OsgEarthNet.uav[48] utilizationCountMissions 53
scalar OsgEarthNet.uav[48] utilizationCountManeuversMission 1142
scalar OsgEarthNet.uav[48] utilizationCountManeuversMaintenance 107
scalar OsgEarthNet.uav[48] utilizationCountChargeState 53
scalar OsgEarthNet.uav[48] utilizationCountOverdrawnAfterMission 0
scalar OsgEarthNet.uav[48] utilizationCountIdleState 49
scalar OsgEarthNet.uav[48] utilizationFail 0
scalar OsgEarthNet.uav[48] simulationTime 259200
scalar OsgEarthNet.uav[49] utilizationSecMission 14488.398582653
scalar OsgEarthNet.uav[49] utilizationSecMaintenance 9769.586417347
scalar OsgEarthNet.uav[49] utilizationSecCharge 87470
scalar OsgEarthNet.uav[49] utilizationSecIdle 147472.014
scalar OsgEarthNet.uav[49] utilizationEnergyMission 71813.322335041
scalar OsgEarthNet.uav[49] utilizationEnergyMaintenance 45874.093425751
scalar OsgEarthNet.uav[49] utilizationEnergyCharge 112444.875
scalar OsgEarthNet.uav[49] utilizationEnergyOverdrawMission 0
scalar OsgEarthNet.uav[49] utilizationEnergyOverdrawMaintenance 0
scalar OsgEarthNet.uav[49] utilizationCountMissions 25
scalar OsgEarthNet.uav[49] utilizationCountManeuversMission 517
scalar OsgEarthNet.uav[49] utilizationCountManeuversMaintenance 51
scalar OsgEarthNet.uav[49] utilizationCountChargeState 25
scalar OsgEarthNet.uav[49] utilizationCountOverdrawnAfterMission 0
scalar OsgEarthNet.uav[49] utilizationCountIdleState 26
scalar OsgEarthNet.uav[49] utilizationFail 0
scalar OsgEarthNet.uav[49] simulationTime 259200
scalar OsgEarthNet.uav[50] utilizationSecMission 15577.243792213
scalar OsgEarthNet.uav[50] utilizationSecMaintenance 9149.3045230641
scalar OsgEarthNet.uav[50] utilizationSecCharge 92060
scalar OsgEarthNet.uav[50] utilizationSecIdle 142413.45068472
scalar OsgEarthNet.uav[50] utilizationEnergyMission 76006.409645081
scalar OsgEarthNet.uav[50] utilizationEnergyMaintenance 43420.752262115
scalar OsgEarthNet.uav[50] utilizationEnergyCharge 118674.76953125
scalar OsgEarthNet.uav[50] utilizationEnergyOverdrawMission 0
scalar OsgEarthNet.uav[50] utilizationEnergyOverdrawMaintenance 0
scalar OsgEarthNet.uav[50] utilizationCountMissions 26
scalar OsgEarthNet.uav[50] utilizationCountManeuversMission 471
scalar OsgEarthNet.uav[50] utilizationCountManeuversMaintenance 52
scalar OsgEarthNet.uav[50] utilizationCountChargeState 26
scalar OsgEarthNet.uav[50] utilizationCountOverdrawnAfterMission 0
scalar OsgEarthNet.uav[50] utilizationCountIdleState 27
scalar OsgEarthNet.uav[50] utilizationFail 0
scalar OsgEarthNet.uav[50] simulationTime 259200
scalar OsgEarthNet.uav[51] utilizationSecMission 28280.930363063
scalar OsgEarthNet.uav[51] utilizationSecMaintenance 15367.260335408
scalar OsgEarthNet.uav[51] utilizationSecCharge 165450
scalar OsgEarthNet.uav[51] utilizationSecIdle 50101.80830153
scalar OsgEarthNet.uav[51] utilizationEnergyMission 135234.00176239
scalar OsgEarthNet.uav[51] utilizationEnergyMaintenance 72898.927455928
scalar OsgEarthNet.uav[51] utilizationEnergyCharge 205939.47070312
scalar OsgEarthNet.uav[51] utilizationEnergyOverdrawMission 0
scalar OsgEarthNet.uav[51] utilizationEnergyOverdrawMaintenance 0
scalar OsgEarthNet.uav[51] utilizationCountMissions 52
scalar OsgEarthNet.uav[51] utilizationCountManeuversMission 761
scalar OsgEarthNet.uav[51] utilizationCountManeuversMaintenance 104
scalar OsgEarthNet.uav[51] utilizationCountChargeState 51
scalar OsgEarthNet.uav[51] utilizationCountOverdrawnAfterMission 0
scalar OsgEarthNet.uav[51] utilizationCountIdleState 52
scalar OsgEarthNet.uav[51] utilizationFail 0
scalar OsgEarthNet.uav[51] simulationTime 259200
scalar OsgEarthNet.uav[52] utilizationSecMission 34980.796403266
scalar OsgEarthNet.uav[52] utilizationSecMaintenance 15735.980268639
scalar OsgEarthNet.uav[52] utilizationSecCharge 187071.2173281
scalar OsgEarthNet.uav[52] utilizationSecIdle 21412.005
scalar OsgEarthNet.uav[52] utilizationEnergyMission 168335.08874512
scalar OsgEarthNet.uav[52] utilizationEnergyMaintenance 72828.883846283
scalar OsgEarthNet.uav[52] utilizationEnergyCharge 243558.81152344
scalar OsgEarthNet.uav[52] utilizationEnergyOverdrawMission 0
scalar OsgEarthNet.uav[52] utilizationEnergyOverdrawMaintenance 0
scalar OsgEarthNet.uav[52] utilizationCountMissions 53
scalar OsgEarthNet.uav[52] utilizationCountManeuversMission 1134
scalar OsgEarthNet.uav[52] utilizationCountManeuversMaintenance 106
scalar OsgEarthNet.uav[52] utilizationCountChargeState 53
scalar OsgEarthNet.uav[52] utilizationCountOverdrawnAfterMission 0
scalar OsgEarthNet.uav[52] utilizationCountIdleState 49
scalar OsgEarthNet.uav[52] utilizationFail 0
scalar OsgEarthNet.uav[52] simulationTime 259200
scalar OsgEarthNet.uav[53] utilizationSecMission 13244.376068062
scalar OsgEarthNet.uav[53] utilizationSecMaintenance 9317.8420092353
scalar OsgEarthNet.uav[53] utilizationSecCharge 84280
scalar OsgEarthNet.uav[53] utilizationSecIdle 152357.7809227
scalar OsgEarthNet.uav[53] utilizationEnergyMission 66308.088386536
scalar OsgEarthNet.uav[53] utilizationEnergyMaintenance 44239.553142547
scalar OsgEarthNet.uav[53] utilizationEnergyCharge 108792.38769531
scalar OsgEarthNet.uav[53] utilizationEnergyOverdrawMission 0
scalar OsgEarthNet.uav[53] utilizationEnergyOverdrawMaintenance 0
scalar OsgEarthNet.uav[53] utilizationCountMissions 24
scalar OsgEarthNet.uav[53] utilizationCountManeuversMission 480
scalar OsgEarthNet.uav[53] utilizationCountManeuversMaintenance 48
scalar OsgEarthNet.uav[53] utilizationCountChargeState 24
scalar OsgEarthNet.uav[53] utilizationCountOverdrawnAfterMission 0
scalar OsgEarthNet.uav[53] utilizationCountIdleState 25
scalar OsgEarthNet.uav[53] utilizationFail 0
scalar OsgEarthNet.uav[53] simulationTime 259200
scalar OsgEarthNet.uav[54] utilizationSecMission 28371.128724055
scalar OsgEarthNet.uav[54] utilizationSecMaintenance 16356.868769223
scalar OsgEarthNet.uav[54] utilizationSecCharge 171750
scalar OsgEarthNet.uav[54] utilizationSecIdle 42722.001506722
scalar OsgEarthNet.uav[54] utilizationEnergyMission 135449.51371537
scalar OsgEarthNet.uav[54] utilizationEnergyMaintenance 78213.360664368
scalar OsgEarthNet.uav[54] utilizationEnergyCharge 214037.83789062
scalar OsgEarthNet.uav[54] utilizationEnergyOverdrawMission 0
scalar OsgEarthNet.uav[54] utilizationEnergyOverdrawMaintenance 0
scalar OsgEarthNet.uav[54] utilizationCountMissions 53
scalar OsgEarthNet.uav[54] utilizationCountManeuversMission 809
scalar OsgEarthNet.uav[54] utilizationCountManeuversMaintenance 107
scalar OsgEarthNet.uav[54] utilizationCountChargeState 53
scalar OsgEarthNet.uav[54] utilizationCountOverdrawnAfterMission 0
scalar OsgEarthNet.uav[54] utilizationCountIdleState 54
scalar OsgEarthNet.uav[54] utilizationFail 0
scalar OsgEarthNet.uav[54] simulationTime 259200
scalar OsgEarthNet.uav[55] utilizationSecMission 35813.866826997
scalar OsgEarthNet.uav[55] utilizationSecMaintenance 14857.079126978
scalar OsgEarthNet.uav[55] utilizationSecCharge 186199.59469794
scalar OsgEarthNet.uav[55] utilizationSecIdle 22329.458348089
scalar OsgEarthNet.uav[55] utilizationEnergyMission 175716.7775116
scalar OsgEarthNet.uav[55] utilizationEnergyMaintenance 69217.787788391
scalar OsgEarthNet.uav[55] utilizationEnergyCharge 242253.95019531
scalar OsgEarthNet.uav[55] utilizationEnergyOverdrawMission 0
scalar OsgEarthNet.uav[55] utilizationEnergyOverdrawMaintenance 0
scalar OsgEarthNet.uav[55] utilizationCountMissions 53
scalar OsgEarthNet.uav[55] utilizationCountManeuversMission 1256
scalar OsgEarthNet.uav[55] utilizationCountManeuversMaintenance 106
scalar OsgEarthNet.uav[55] utilizationCountChargeState 53
scalar OsgEarthNet.uav[55] utilizationCountOverdrawnAfterMission 0
scalar OsgEarthNet.uav[55] utilizationCountIdleState 52
scalar OsgEarthNet.uav[55] utilizationFail 0
scalar OsgEarthNet.uav[55] simulationTime 259200
scalar OsgEarthNet.uav[56] utilizationSecMission 15557.243792213
scalar OsgEarthNet.uav[56] utilizationSecMaintenance 8877.1712366146
scalar OsgEarthNet.uav[56] utilizationSecCharge 90840
scalar OsgEarthNet.uav[56] utilizationSecIdle 143925.58397117
scalar OsgEarthNet.uav[56] utilizationEnergyMission 76196.415412903
scalar OsgEarthNet.uav[56] utilizationEnergyMaintenance 41983.967033386
scalar OsgEarthNet.uav[56] utilizationEnergyCharge 116684.03564453
scalar OsgEarthNet.uav[56] utilizationEnergyOverdrawMission 0
scalar OsgEarthNet.uav[56] utilizationEnergyOverdrawMaintenance 0
scalar OsgEarthNet.uav[56] utilizationCountMissions 26
scalar OsgEarthNet.uav[56] utilizationCountManeuversMission 470
scalar OsgEarthNet.uav[56] utilizationCountManeuversMaintenance 52
scalar OsgEarthNet.uav[56] utilizationCountChargeState 26
scalar OsgEarthNet.uav[56] utilizationCountOverdrawnAfterMission 0
scalar OsgEarthNet.uav[56] utilizationCountIdleState 27
scalar OsgEarthNet.uav[56] utilizationFail 0
scalar OsgEarthNet.uav[56] simulationTime 259200
scalar OsgEarthNet.uav[57] utilizationSecMission 29357.039784155
scalar OsgEarthNet.uav[57] utilizationSecMaintenance 15936.456410457
scalar OsgEarthNet.uav[57] utilizationSecCharge 172764.49880539
scalar OsgEarthNet.uav[57] utilizationSecIdle 41142.004
scalar OsgEarthNet.uav[57] utilizationEnergyMission 141035.72514725
scalar OsgEarthNet.uav[57] utilizationEnergyMaintenance 75624.800056458
scalar OsgEarthNet.uav[57] utilizationEnergyCharge 215487.85791016
scalar OsgEarthNet.uav[57] utilizationEnergyOverdrawMission 0
scalar OsgEarthNet.uav[57] utilizationEnergyOverdrawMaintenance 0
scalar OsgEarthNet.uav[57] utilizationCountMissions 54
scalar OsgEarthNet.uav[57] utilizationCountManeuversMission 794
scalar OsgEarthNet.uav[57] utilizationCountManeuversMaintenance 108
scalar OsgEarthNet.uav[57] utilizationCountChargeState 54
scalar OsgEarthNet.uav[57] utilizationCountOverdrawnAfterMission 0
scalar OsgEarthNet.uav[57] utilizationCountIdleState 54
scalar OsgEarthNet.uav[57] utilizationFail 0
scalar OsgEarthNet.uav[57] simulationTime 259200
scalar OsgEarthNet.uav[58] utilizationSecMission 36293.722356529
scalar OsgEarthNet.uav[58] utilizationSecMaintenance 15067.40389285
scalar OsgEarthNet.uav[58] utilizationSecCharge 187040
scalar OsgEarthNet.uav[58] utilizationSecIdle 20798.87275062
scalar OsgEarthNet.uav[58] utilizationEnergyMission 176066.5464859
scalar OsgEarthNet.uav[58] utilizationEnergyMaintenance 70051.320697784
scalar OsgEarthNet.uav[58] utilizationEnergyCharge 243437.20410156
scalar OsgEarthNet.uav[58] utilizationEnergyOverdrawMission 0
scalar OsgEarthNet.uav[58] utilizationEnergyOverdrawMaintenance 0
scalar OsgEarthNet.uav[58] utilizationCountMissions 53
scalar OsgEarthNet.uav[58] utilizationCountManeuversMission 1174
scalar OsgEarthNet.uav[58] utilizationCountManeuversMaintenance 106
scalar OsgEarthNet.uav[58] utilizationCountChargeState 53
scalar OsgEarthNet.uav[58] utilizationCountOverdrawnAfterMission 0
scalar OsgEarthNet.uav[58] utilizationCountIdleState 49
scalar OsgEarthNet.uav[58] utilizationFail 0
scalar OsgEarthNet.uav[58] simulationTime 259200
scalar OsgEarthNet.uav[59] utilizationSecMission 17388.643061045
scalar OsgEarthNet.uav[59] utilizationSecMaintenance 10302.781511022
scalar OsgEarthNet.uav[59] utilizationSecCharge 102390
scalar OsgEarthNet.uav[59] utilizationSecIdle 129118.57442793
scalar OsgEarthNet.uav[59] utilizationEnergyMission 81963.449001312
scalar OsgEarthNet.uav[59] utilizationEnergyMaintenance 48853.820827484
scalar OsgEarthNet.uav[59] utilizationEnergyCharge 131910.98681641
scalar OsgEarthNet.uav[59] utilizationEnergyOverdrawMission 0
scalar OsgEarthNet.uav[59] utilizationEnergyOverdrawMaintenance 0
scalar OsgEarthNet.uav[59] utilizationCountMissions 29
scalar OsgEarthNet.uav[59] utilizationCountManeuversMission 522
scalar OsgEarthNet.uav[59] utilizationCountManeuversMaintenance 58
scalar OsgEarthNet.uav[59] utilizationCountChargeState 29
scalar OsgEarthNet.uav[59] utilizationCountOverdrawnAfterMission 0
scalar OsgEarthNet.uav[59] utilizationCountIdleState 30
scalar OsgEarthNet.uav[59] utilizationFail 0
scalar OsgEarthNet.uav[59] simulationTime 259200
scalar OsgEarthNet.uav[60] utilizationSecMission 15325.110295721
scalar OsgEarthNet.uav[60] utilizationSecMaintenance 10305.761274305
scalar OsgEarthNet.uav[60] utilizationSecCharge 97710
scalar OsgEarthNet.uav[60] utilizationSecIdle 135859.12742997
scalar OsgEarthNet.uav[60] utilizationEnergyMission 75376.723251343
scalar OsgEarthNet.uav[60] utilizationEnergyMaintenance 49354.585281372
scalar OsgEarthNet.uav[60] utilizationEnergyCharge 125499.67724609
scalar OsgEarthNet.uav[60] utilizationEnergyOverdrawMission 0
scalar OsgEarthNet.uav[60] utilizationEnergyOverdrawMaintenance 0
scalar OsgEarthNet.uav[60] utilizationCountMissions 28
scalar OsgEarthNet.uav[60] utilizationCountManeuversMission 541
scalar OsgEarthNet.uav[60] utilizationCountManeuversMaintenance 56
scalar OsgEarthNet.uav[60] utilizationCountChargeState 28
scalar OsgEarthNet.uav[60] utilizationCountOverdrawnAfterMission 0
scalar OsgEarthNet.uav[60] utilizationCountIdleState 29
scalar OsgEarthNet.uav[60] utilizationFail 0
scalar OsgEarthNet.uav[60] simulationTime 259200
scalar OsgEarthNet.uav[61] utilizationSecMission 28387.768773474
scalar OsgEarthNet.uav[61] utilizationSecMaintenance 15670.945045284
scalar OsgEarthNet.uav[61] utilizationSecCharge 165543.87529263
scalar OsgEarthNet.uav[61] utilizationSecIdle 49597.409888607
scalar OsgEarthNet.uav[61] utilizationEnergyMission 137329.73767853
scalar OsgEarthNet.uav[61] utilizationEnergyMaintenance 74174.949642181
scalar OsgEarthNet.uav[61] utilizationEnergyCharge 206564.97827148
scalar OsgEarthNet.uav[61] utilizationEnergyOverdrawMission 0
scalar OsgEarthNet.uav[61] utilizationEnergyOverdrawMaintenance 0
scalar OsgEarthNet.uav[61] utilizationCountMissions 52
scalar OsgEarthNet.uav[61] utilizationCountManeuversMission 765
scalar OsgEarthNet.uav[61] utilizationCountManeuversMaintenance 104
scalar OsgEarthNet.uav[61] utilizationCountChargeState 52
scalar OsgEarthNet.uav[61] utilizationCountOverdrawnAfterMission 0
scalar OsgEarthNet.uav[61] utilizationCountIdleState 52
scalar OsgEarthNet.uav[61] utilizationFail 0
scalar OsgEarthNet.uav[61] simulationTime 259200
scalar OsgEarthNet.uav[62] utilizationSecMission 37277.875665903
scalar OsgEarthNet.uav[62] utilizationSecMaintenance 14736.429599506
scalar OsgEarthNet.uav[62] utilizationSecCharge 188583.69273459
scalar OsgEarthNet.uav[62] utilizationSecIdle 18602.001
scalar OsgEarthNet.uav[62] utilizationEnergyMission 182925.350811
scalar OsgEarthNet.uav[62] utilizationEnergyMaintenance 67596.733680725
scalar OsgEarthNet.uav[62] utilizationEnergyCharge 245513.44494629
scalar OsgEarthNet.uav[62] utilizationEnergyOverdrawMission 0
scalar OsgEarthNet.uav[62] utilizationEnergyOverdrawMaintenance 0
scalar OsgEarthNet.uav[62] utilizationCountMissions 54
scalar OsgEarthNet.uav[62] utilizationCountManeuversMission 1259
scalar OsgEarthNet.uav[62] utilizationCountManeuversMaintenance 108
scalar OsgEarthNet.uav[62] utilizationCountChargeState 54
scalar OsgEarthNet.uav[62] utilizationCountOverdrawnAfterMission 0
scalar OsgEarthNet.uav[62] utilizationCountIdleState 52
scalar OsgEarthNet.uav[62] utilizationFail 0
scalar OsgEarthNet.uav[62] simulationTime 259200
scalar OsgEarthNet.uav[63] utilizationSecMission 17818.35778603
scalar OsgEarthNet.uav[63] utilizationSecMaintenance 10688.875248631
scalar OsgEarthNet.uav[63] utilizationSecCharge 104770
scalar OsgEarthNet.uav[63] utilizationSecIdle 125922.76596534
scalar OsgEarthNet.uav[63] utilizationEnergyMission 86116.971091093
scalar OsgEarthNet.uav[63] utilizationEnergyMaintenance 50966.695423126
scalar OsgEarthNet.uav[63] utilizationEnergyCharge 134438.02880859
scalar OsgEarthNet.uav[63] utilizationEnergyOverdrawMission 0
scalar OsgEarthNet.uav[63] utilizationEnergyOverdrawMaintenance 0
scalar OsgEarthNet.uav[63] utilizationCountMissions 30
scalar OsgEarthNet.uav[63] utilizationCountManeuversMission 575
scalar OsgEarthNet.uav[63] utilizationCountManeuversMaintenance 61
scalar OsgEarthNet.uav[63] utilizationCountChargeState 30
scalar OsgEarthNet.uav[63] utilizationCountOverdrawnAfterMission 0
scalar OsgEarthNet.uav[63] utilizationCountIdleState 31
scalar OsgEarthNet.uav[63] utilizationFail 0
scalar OsgEarthNet.uav[63] simulationTime 259200
scalar OsgEarthNet.uav[64] utilizationSecMission 28797.41698065
scalar OsgEarthNet.uav[64] utilizationSecMaintenance 16451.312283741
scalar OsgEarthNet.uav[64] utilizationSecCharge 169939.26373561
scalar OsgEarthNet.uav[64] utilizationSecIdle 44012.006
scalar OsgEarthNet.uav[64] utilizationEnergyMission 136725.53216934
scalar OsgEarthNet.uav[64] utilizationEnergyMaintenance 78534.902614593
scalar OsgEarthNet.uav[64] utilizationEnergyCharge 212359.43359375
scalar OsgEarthNet.uav[64] utilizationEnergyOverdrawMission 0
scalar OsgEarthNet.uav[64] utilizationEnergyOverdrawMaintenance 0
scalar OsgEarthNet.uav[64] utilizationCountMissions 53
scalar OsgEarthNet.uav[64] utilizationCountManeuversMission 837
scalar OsgEarthNet.uav[64] utilizationCountManeuversMaintenance 106
scalar OsgEarthNet.uav[64] utilizationCountChargeState 53
scalar OsgEarthNet.uav[64] utilizationCountOverdrawnAfterMission 0
scalar OsgEarthNet.uav[64] utilizationCountIdleState 53
scalar OsgEarthNet.uav[64] utilizationFail 0
scalar OsgEarthNet.uav[64] simulationTime 259200
scalar OsgEarthNet.uav[65] utilizationSecMission 36482.489445515
scalar OsgEarthNet.uav[65] utilizationSecMaintenance 14611.555480269
[...]
scalar OsgEarthNet.uav[73] utilizationCountMissions 29
scalar OsgEarthNet.uav[73] utilizationCountManeuversMission 530
scalar OsgEarthNet.uav[73] utilizationCountManeuversMaintenance 58
scalar OsgEarthNet.uav[73] utilizationCountChargeState 29
scalar OsgEarthNet.uav[73] utilizationCountOverdrawnAfterMission 0
scalar OsgEarthNet.uav[73] utilizationCountIdleState 29
scalar OsgEarthNet.uav[73] utilizationFail 0
scalar OsgEarthNet.uav[73] simulationTime 259200
scalar OsgEarthNet.uav[74] utilizationSecMission 28872.716858443
scalar OsgEarthNet.uav[74] utilizationSecMaintenance 16045.275141557
scalar OsgEarthNet.uav[74] utilizationSecCharge 170630
scalar OsgEarthNet.uav[74] utilizationSecIdle 43652.007
scalar OsgEarthNet.uav[74] utilizationEnergyMission 137402.9370575
scalar OsgEarthNet.uav[74] utilizationEnergyMaintenance 76224.560741711
scalar OsgEarthNet.uav[74] utilizationEnergyCharge 213727.9050293
scalar OsgEarthNet.uav[74] utilizationEnergyOverdrawMission 0
scalar OsgEarthNet.uav[74] utilizationEnergyOverdrawMaintenance 0
scalar OsgEarthNet.uav[74] utilizationCountMissions 52
scalar OsgEarthNet.uav[74] utilizationCountManeuversMission 781
scalar OsgEarthNet.uav[74] utilizationCountManeuversMaintenance 105
scalar OsgEarthNet.uav[74] utilizationCountChargeState 52
scalar OsgEarthNet.uav[74] utilizationCountOverdrawnAfterMission 0
scalar OsgEarthNet.uav[74] utilizationCountIdleState 53
scalar OsgEarthNet.uav[74] utilizationFail 0
scalar OsgEarthNet.uav[74] simulationTime 259200
scalar OsgEarthNet.uav[75] utilizationSecMission 35924.868175308
scalar OsgEarthNet.uav[75] utilizationSecMaintenance 15418.265362763
scalar OsgEarthNet.uav[75] utilizationSecCharge 186137.02864789
scalar OsgEarthNet.uav[75] utilizationSecIdle 21719.83681404
scalar OsgEarthNet.uav[75] utilizationEnergyMission 173018.34975433
scalar OsgEarthNet.uav[75] utilizationEnergyMaintenance 71648.067974091
scalar OsgEarthNet.uav[75] utilizationEnergyCharge 243026.87451172
scalar OsgEarthNet.uav[75] utilizationEnergyOverdrawMission 0
scalar OsgEarthNet.uav[75] utilizationEnergyOverdrawMaintenance 0
scalar OsgEarthNet.uav[75] utilizationCountMissions 53
scalar OsgEarthNet.uav[75] utilizationCountManeuversMission 1097
scalar OsgEarthNet.uav[75] utilizationCountManeuversMaintenance 106
scalar OsgEarthNet.uav[75] utilizationCountChargeState 53
scalar OsgEarthNet.uav[75] utilizationCountOverdrawnAfterMission 0
scalar OsgEarthNet.uav[75] utilizationCountIdleState 49
scalar OsgEarthNet.uav[75] utilizationFail 0
scalar OsgEarthNet.uav[75] simulationTime 259200
scalar OsgEarthNet.uav[76] utilizationSecMission 36866.064715678
scalar OsgEarthNet.uav[76] utilizationSecMaintenance 14773.182058396
scalar OsgEarthNet.uav[76] utilizationSecCharge 187970
scalar OsgEarthNet.uav[76] utilizationSecIdle 19590.752225926
scalar OsgEarthNet.uav[76] utilizationEnergyMission 176347.77407074
scalar OsgEarthNet.uav[76] utilizationEnergyMaintenance 68284.044044495
scalar OsgEarthNet.uav[76] utilizationEnergyCharge 244842.27734375
scalar OsgEarthNet.uav[76] utilizationEnergyOverdrawMission 0
scalar OsgEarthNet.uav[76] utilizationEnergyOverdrawMaintenance 0
scalar OsgEarthNet.uav[76] utilizationCountMissions 53
scalar OsgEarthNet.uav[76] utilizationCountManeuversMission 1089
scalar OsgEarthNet.uav[76] utilizationCountManeuversMaintenance 105
scalar OsgEarthNet.uav[76] utilizationCountChargeState 53
scalar OsgEarthNet.uav[76] utilizationCountOverdrawnAfterMission 0
scalar OsgEarthNet.uav[76] utilizationCountIdleState 51
scalar OsgEarthNet.uav[76] utilizationFail 0
scalar OsgEarthNet.uav[76] simulationTime 259200
scalar OsgEarthNet.uav[77] utilizationSecMission 30697.898073576
scalar OsgEarthNet.uav[77] utilizationSecMaintenance 16252.687913557
scalar OsgEarthNet.uav[77] utilizationSecCharge 174946.91930449
scalar OsgEarthNet.uav[77] utilizationSecIdle 37302.493708378
scalar OsgEarthNet.uav[77] utilizationEnergyMission 149274.4207077
scalar OsgEarthNet.uav[77] utilizationEnergyMaintenance 76914.994087219
scalar OsgEarthNet.uav[77] utilizationEnergyCharge 221493.0168457
scalar OsgEarthNet.uav[77] utilizationEnergyOverdrawMission 0
scalar OsgEarthNet.uav[77] utilizationEnergyOverdrawMaintenance 0
scalar OsgEarthNet.uav[77] utilizationCountMissions 53
scalar OsgEarthNet.uav[77] utilizationCountManeuversMission 874
scalar OsgEarthNet.uav[77] utilizationCountManeuversMaintenance 106
scalar OsgEarthNet.uav[77] utilizationCountChargeState 53
scalar OsgEarthNet.uav[77] utilizationCountOverdrawnAfterMission 0
scalar OsgEarthNet.uav[77] utilizationCountIdleState 53
scalar OsgEarthNet.uav[77] utilizationFail 0
scalar OsgEarthNet.uav[77] simulationTime 259200
scalar OsgEarthNet.uav[78] utilizationSecMission 37423.129015333
scalar OsgEarthNet.uav[78] utilizationSecMaintenance 14174.867984667
scalar OsgEarthNet.uav[78] utilizationSecCharge 185720
scalar OsgEarthNet.uav[78] utilizationSecIdle 21882.002
scalar OsgEarthNet.uav[78] utilizationEnergyMission 181480.96871185
scalar OsgEarthNet.uav[78] utilizationEnergyMaintenance 66747.151028334
scalar OsgEarthNet.uav[78] utilizationEnergyCharge 242832.90820312
scalar OsgEarthNet.uav[78] utilizationEnergyOverdrawMission 0
scalar OsgEarthNet.uav[78] utilizationEnergyOverdrawMaintenance 0
scalar OsgEarthNet.uav[78] utilizationCountMissions 53
scalar OsgEarthNet.uav[78] utilizationCountManeuversMission 1100
scalar OsgEarthNet.uav[78] utilizationCountManeuversMaintenance 106
scalar OsgEarthNet.uav[78] utilizationCountChargeState 52
scalar OsgEarthNet.uav[78] utilizationCountOverdrawnAfterMission 0
scalar OsgEarthNet.uav[78] utilizationCountIdleState 50
scalar OsgEarthNet.uav[78] utilizationFail 0
scalar OsgEarthNet.uav[78] simulationTime 259200
scalar OsgEarthNet.uav[79] utilizationSecMission 15846.876678383
scalar OsgEarthNet.uav[79] utilizationSecMaintenance 9633.1238023888
scalar OsgEarthNet.uav[79] utilizationSecCharge 92507.986519228
scalar OsgEarthNet.uav[79] utilizationSecIdle 141212.012
scalar OsgEarthNet.uav[79] utilizationEnergyMission 77791.670555115
scalar OsgEarthNet.uav[79] utilizationEnergyMaintenance 45310.965366363
scalar OsgEarthNet.uav[79] utilizationEnergyCharge 119627.87695312
scalar OsgEarthNet.uav[79] utilizationEnergyOverdrawMission 0
scalar OsgEarthNet.uav[79] utilizationEnergyOverdrawMaintenance 0
scalar OsgEarthNet.uav[79] utilizationCountMissions 27
scalar OsgEarthNet.uav[79] utilizationCountManeuversMission 506
scalar OsgEarthNet.uav[79] utilizationCountManeuversMaintenance 54
scalar OsgEarthNet.uav[79] utilizationCountChargeState 27
scalar OsgEarthNet.uav[79] utilizationCountOverdrawnAfterMission 0
scalar OsgEarthNet.uav[79] utilizationCountIdleState 27
scalar OsgEarthNet.uav[79] utilizationFail 0
scalar OsgEarthNet.uav[79] simulationTime 259200
scalar OsgEarthNet.uav[80] utilizationSecMission 15196.618639633
scalar OsgEarthNet.uav[80] utilizationSecMaintenance 9141.4480738703
scalar OsgEarthNet.uav[80] utilizationSecCharge 91090
scalar OsgEarthNet.uav[80] utilizationSecIdle 143771.9322865
scalar OsgEarthNet.uav[80] utilizationEnergyMission 73135.018413544
scalar OsgEarthNet.uav[80] utilizationEnergyMaintenance 43406.891544342
scalar OsgEarthNet.uav[80] utilizationEnergyCharge 117058.16162109
scalar OsgEarthNet.uav[80] utilizationEnergyOverdrawMission 0
scalar OsgEarthNet.uav[80] utilizationEnergyOverdrawMaintenance 0
scalar OsgEarthNet.uav[80] utilizationCountMissions 26
scalar OsgEarthNet.uav[80] utilizationCountManeuversMission 478
scalar OsgEarthNet.uav[80] utilizationCountManeuversMaintenance 52
scalar OsgEarthNet.uav[80] utilizationCountChargeState 26
scalar OsgEarthNet.uav[80] utilizationCountOverdrawnAfterMission 0
scalar OsgEarthNet.uav[80] utilizationCountIdleState 27
scalar OsgEarthNet.uav[80] utilizationFail 0
scalar OsgEarthNet.uav[80] simulationTime 259200
scalar OsgEarthNet.uav[81] utilizationSecMission 28023.332593775
scalar OsgEarthNet.uav[81] utilizationSecMaintenance 16684.656406225
scalar OsgEarthNet.uav[81] utilizationSecCharge 168880
scalar OsgEarthNet.uav[81] utilizationSecIdle 45612.01
scalar OsgEarthNet.uav[81] utilizationEnergyMission 136326.01227817
scalar OsgEarthNet.uav[81] utilizationEnergyMaintenance 79037.194076538
scalar OsgEarthNet.uav[81] utilizationEnergyCharge 210530.24389648
scalar OsgEarthNet.uav[81] utilizationEnergyOverdrawMission 0
scalar OsgEarthNet.uav[81] utilizationEnergyOverdrawMaintenance 0
scalar OsgEarthNet.uav[81] utilizationCountMissions 52
scalar OsgEarthNet.uav[81] utilizationCountManeuversMission 859
scalar OsgEarthNet.uav[81] utilizationCountManeuversMaintenance 105
scalar OsgEarthNet.uav[81] utilizationCountChargeState 52
scalar OsgEarthNet.uav[81] utilizationCountOverdrawnAfterMission 0
scalar OsgEarthNet.uav[81] utilizationCountIdleState 53
scalar OsgEarthNet.uav[81] utilizationFail 0
scalar OsgEarthNet.uav[81] simulationTime 259200
scalar OsgEarthNet.uav[82] utilizationSecMission 34998.49229696
scalar OsgEarthNet.uav[82] utilizationSecMaintenance 16521.723993371
scalar OsgEarthNet.uav[82] utilizationSecCharge 188696.25738064
scalar OsgEarthNet.uav[82] utilizationSecIdle 18983.525329029
scalar OsgEarthNet.uav[82] utilizationEnergyMission 171253.18689728
scalar OsgEarthNet.uav[82] utilizationEnergyMaintenance 76864.586250305
scalar OsgEarthNet.uav[82] utilizationEnergyCharge 245921.11831665
scalar OsgEarthNet.uav[82] utilizationEnergyOverdrawMission 0
scalar OsgEarthNet.uav[82] utilizationEnergyOverdrawMaintenance 0
scalar OsgEarthNet.uav[82] utilizationCountMissions 54
scalar OsgEarthNet.uav[82] utilizationCountManeuversMission 1290
scalar OsgEarthNet.uav[82] utilizationCountManeuversMaintenance 108
scalar OsgEarthNet.uav[82] utilizationCountChargeState 54
scalar OsgEarthNet.uav[82] utilizationCountOverdrawnAfterMission 0
scalar OsgEarthNet.uav[82] utilizationCountIdleState 49
scalar OsgEarthNet.uav[82] utilizationFail 0
scalar OsgEarthNet.uav[82] simulationTime 259200
scalar OsgEarthNet.uav[83] utilizationSecMission 17719.526252376
scalar OsgEarthNet.uav[83] utilizationSecMaintenance 9403.3089443055
scalar OsgEarthNet.uav[83] utilizationSecCharge 98650
scalar OsgEarthNet.uav[83] utilizationSecIdle 133427.16380332
scalar OsgEarthNet.uav[83] utilizationEnergyMission 83357.393936157
scalar OsgEarthNet.uav[83] utilizationEnergyMaintenance 44303.746456146
scalar OsgEarthNet.uav[83] utilizationEnergyCharge 127121.22558594
scalar OsgEarthNet.uav[83] utilizationEnergyOverdrawMission 0
scalar OsgEarthNet.uav[83] utilizationEnergyOverdrawMaintenance 0
scalar OsgEarthNet.uav[83] utilizationCountMissions 28
scalar OsgEarthNet.uav[83] utilizationCountManeuversMission 508
scalar OsgEarthNet.uav[83] utilizationCountManeuversMaintenance 56
scalar OsgEarthNet.uav[83] utilizationCountChargeState 28
scalar OsgEarthNet.uav[83] utilizationCountOverdrawnAfterMission 0
scalar OsgEarthNet.uav[83] utilizationCountIdleState 29
scalar OsgEarthNet.uav[83] utilizationFail 0
scalar OsgEarthNet.uav[83] simulationTime 259200
scalar OsgEarthNet.uav[84] utilizationSecMission 28856.935626585
scalar OsgEarthNet.uav[84] utilizationSecMaintenance 15872.613711089
scalar OsgEarthNet.uav[84] utilizationSecCharge 170688.44066233
scalar OsgEarthNet.uav[84] utilizationSecIdle 43782.009
scalar OsgEarthNet.uav[84] utilizationEnergyMission 138970.69682312
scalar OsgEarthNet.uav[84] utilizationEnergyMaintenance 74729.324539185
scalar OsgEarthNet.uav[84] utilizationEnergyCharge 214087.31567383
scalar OsgEarthNet.uav[84] utilizationEnergyOverdrawMission 0
scalar OsgEarthNet.uav[84] utilizationEnergyOverdrawMaintenance 0
scalar OsgEarthNet.uav[84] utilizationCountMissions 52
scalar OsgEarthNet.uav[84] utilizationCountManeuversMission 858
scalar OsgEarthNet.uav[84] utilizationCountManeuversMaintenance 104
scalar OsgEarthNet.uav[84] utilizationCountChargeState 52
scalar OsgEarthNet.uav[84] utilizationCountOverdrawnAfterMission 0
scalar OsgEarthNet.uav[84] utilizationCountIdleState 52
scalar OsgEarthNet.uav[84] utilizationFail 0
scalar OsgEarthNet.uav[84] simulationTime 259200
scalar OsgEarthNet.uav[85] utilizationSecMission 35819.95646824
scalar OsgEarthNet.uav[85] utilizationSecMaintenance 14853.919967204
scalar OsgEarthNet.uav[85] utilizationSecCharge 185904.11856456
scalar OsgEarthNet.uav[85] utilizationSecIdle 22622.004
scalar OsgEarthNet.uav[85] utilizationEnergyMission 172127.5682869
scalar OsgEarthNet.uav[85] utilizationEnergyMaintenance 68776.658870697
scalar OsgEarthNet.uav[85] utilizationEnergyCharge 242453.05554199
scalar OsgEarthNet.uav[85] utilizationEnergyOverdrawMission 0
scalar OsgEarthNet.uav[85] utilizationEnergyOverdrawMaintenance 0
scalar OsgEarthNet.uav[85] utilizationCountMissions 53
scalar OsgEarthNet.uav[85] utilizationCountManeuversMission 1150
scalar OsgEarthNet.uav[85] utilizationCountManeuversMaintenance 106
scalar OsgEarthNet.uav[85] utilizationCountChargeState 53
scalar OsgEarthNet.uav[85] utilizationCountOverdrawnAfterMission 0
scalar OsgEarthNet.uav[85] utilizationCountIdleState 48
scalar OsgEarthNet.uav[85] utilizationFail 0
scalar OsgEarthNet.uav[85] simulationTime 259200
scalar OsgEarthNet.uav[86] utilizationSecMission 19457.759869714
scalar OsgEarthNet.uav[86] utilizationSecMaintenance 12749.941660315
scalar OsgEarthNet.uav[86] utilizationSecCharge 119210
scalar OsgEarthNet.uav[86] utilizationSecIdle 107782.29746997
scalar OsgEarthNet.uav[86] utilizationEnergyMission 94698.979785919
scalar OsgEarthNet.uav[86] utilizationEnergyMaintenance 60474.519168854
scalar OsgEarthNet.uav[86] utilizationEnergyCharge 153365.66894531
scalar OsgEarthNet.uav[86] utilizationEnergyOverdrawMission 0
scalar OsgEarthNet.uav[86] utilizationEnergyOverdrawMaintenance 0
scalar OsgEarthNet.uav[86] utilizationCountMissions 34
scalar OsgEarthNet.uav[86] utilizationCountManeuversMission 656
scalar OsgEarthNet.uav[86] utilizationCountManeuversMaintenance 68
scalar OsgEarthNet.uav[86] utilizationCountChargeState 34
scalar OsgEarthNet.uav[86] utilizationCountOverdrawnAfterMission 0
scalar OsgEarthNet.uav[86] utilizationCountIdleState 35
scalar OsgEarthNet.uav[86] utilizationFail 0
scalar OsgEarthNet.uav[86] simulationTime 259200
scalar OsgEarthNet.uav[87] utilizationSecMission 29780.82772077
scalar OsgEarthNet.uav[87] utilizationSecMaintenance 15496.910184204
scalar OsgEarthNet.uav[87] utilizationSecCharge 171076.45009995
scalar OsgEarthNet.uav[87] utilizationSecIdle 42845.81099508
scalar OsgEarthNet.uav[87] utilizationEnergyMission 141117.31647873
scalar OsgEarthNet.uav[87] utilizationEnergyMaintenance 73347.114265442
scalar OsgEarthNet.uav[87] utilizationEnergyCharge 214430.55834961
scalar OsgEarthNet.uav[87] utilizationEnergyOverdrawMission 0
scalar OsgEarthNet.uav[87] utilizationEnergyOverdrawMaintenance 0
scalar OsgEarthNet.uav[87] utilizationCountMissions 53
scalar OsgEarthNet.uav[87] utilizationCountManeuversMission 770
scalar OsgEarthNet.uav[87] utilizationCountManeuversMaintenance 106
scalar OsgEarthNet.uav[87] utilizationCountChargeState 53
scalar OsgEarthNet.uav[87] utilizationCountOverdrawnAfterMission 0
scalar OsgEarthNet.uav[87] utilizationCountIdleState 53
scalar OsgEarthNet.uav[87] utilizationFail 0
scalar OsgEarthNet.uav[87] simulationTime 259200
scalar OsgEarthNet.uav[88] utilizationSecMission 35210.41308637
scalar OsgEarthNet.uav[88] utilizationSecMaintenance 16498.658064816
scalar OsgEarthNet.uav[88] utilizationSecCharge 189338.92784881
scalar OsgEarthNet.uav[88] utilizationSecIdle 18152
scalar OsgEarthNet.uav[88] utilizationEnergyMission 172803.1269722
scalar OsgEarthNet.uav[88] utilizationEnergyMaintenance 75198.278827667
scalar OsgEarthNet.uav[88] utilizationEnergyCharge 246965.24755859
scalar OsgEarthNet.uav[88] utilizationEnergyOverdrawMission 0
scalar OsgEarthNet.uav[88] utilizationEnergyOverdrawMaintenance 0
scalar OsgEarthNet.uav[88] utilizationCountMissions 54
scalar OsgEarthNet.uav[88] utilizationCountManeuversMission 1202
scalar OsgEarthNet.uav[88] utilizationCountManeuversMaintenance 108
scalar OsgEarthNet.uav[88] utilizationCountChargeState 54
scalar OsgEarthNet.uav[88] utilizationCountOverdrawnAfterMission 0
scalar OsgEarthNet.uav[88] utilizationCountIdleState 52
scalar OsgEarthNet.uav[88] utilizationFail 0
scalar OsgEarthNet.uav[88] simulationTime 259200
scalar OsgEarthNet.uav[89] utilizationSecMission 18479.744402534
scalar OsgEarthNet.uav[89] utilizationSecMaintenance 9834.6820416406
scalar OsgEarthNet.uav[89] utilizationSecCharge 102576.54506552
scalar OsgEarthNet.uav[89] utilizationSecIdle 128309.0274903
scalar OsgEarthNet.uav[89] utilizationEnergyMission 87818.875778198
scalar OsgEarthNet.uav[89] utilizationEnergyMaintenance 46546.23897171
scalar OsgEarthNet.uav[89] utilizationEnergyCharge 132614.95898438
scalar OsgEarthNet.uav[89] utilizationEnergyOverdrawMission 0
scalar OsgEarthNet.uav[89] utilizationEnergyOverdrawMaintenance 0
scalar OsgEarthNet.uav[89] utilizationCountMissions 30
scalar OsgEarthNet.uav[89] utilizationCountManeuversMission 512
scalar OsgEarthNet.uav[89] utilizationCountManeuversMaintenance 60
scalar OsgEarthNet.uav[89] utilizationCountChargeState 30
scalar OsgEarthNet.uav[89] utilizationCountOverdrawnAfterMission 0
scalar OsgEarthNet.uav[89] utilizationCountIdleState 30
scalar OsgEarthNet.uav[89] utilizationFail 0
scalar OsgEarthNet.uav[89] simulationTime 259200
scalar OsgEarthNet.uav[90] utilizationSecMission 17857.134717134
scalar OsgEarthNet.uav[90] utilizationSecMaintenance 11399.790030572
scalar OsgEarthNet.uav[90] utilizationSecCharge 107165.29906638
scalar OsgEarthNet.uav[90] utilizationSecIdle 122777.77518591
scalar OsgEarthNet.uav[90] utilizationEnergyMission 85789.585861206
scalar OsgEarthNet.uav[90] utilizationEnergyMaintenance 53941.6640625
scalar OsgEarthNet.uav[90] utilizationEnergyCharge 138960.43066406
scalar OsgEarthNet.uav[90] utilizationEnergyOverdrawMission 0
scalar OsgEarthNet.uav[90] utilizationEnergyOverdrawMaintenance 0
scalar OsgEarthNet.uav[90] utilizationCountMissions 31
scalar OsgEarthNet.uav[90] utilizationCountManeuversMission 602
scalar OsgEarthNet.uav[90] utilizationCountManeuversMaintenance 62
scalar OsgEarthNet.uav[90] utilizationCountChargeState 31
scalar OsgEarthNet.uav[90] utilizationCountOverdrawnAfterMission 0
scalar OsgEarthNet.uav[90] utilizationCountIdleState 31
scalar OsgEarthNet.uav[90] utilizationFail 0
scalar OsgEarthNet.uav[90] simulationTime 259200
scalar OsgEarthNet.uav[91] utilizationSecMission 28809.036394755
scalar OsgEarthNet.uav[91] utilizationSecMaintenance 15900.804722984
scalar OsgEarthNet.uav[91] utilizationSecCharge 169372.35227428
scalar OsgEarthNet.uav[91] utilizationSecIdle 45117.805607979
scalar OsgEarthNet.uav[91] utilizationEnergyMission 137345.4385643
scalar OsgEarthNet.uav[91] utilizationEnergyMaintenance 75787.407752991
scalar OsgEarthNet.uav[91] utilizationEnergyCharge 211427.41040039
scalar OsgEarthNet.uav[91] utilizationEnergyOverdrawMission 0
scalar OsgEarthNet.uav[91] utilizationEnergyOverdrawMaintenance 0
scalar OsgEarthNet.uav[91] utilizationCountMissions 53
scalar OsgEarthNet.uav[91] utilizationCountManeuversMission 810
scalar OsgEarthNet.uav[91] utilizationCountManeuversMaintenance 106
scalar OsgEarthNet.uav[91] utilizationCountChargeState 53
scalar OsgEarthNet.uav[91] utilizationCountOverdrawnAfterMission 0
scalar OsgEarthNet.uav[91] utilizationCountIdleState 53
scalar OsgEarthNet.uav[91] utilizationFail 0
scalar OsgEarthNet.uav[91] simulationTime 259200
scalar OsgEarthNet.cs[0] usedPower 4008063.5867638
scalar OsgEarthNet.cs[0] chargedPower 4008063.5867638
scalar OsgEarthNet.cs[0] chargedMobileNodes 878
scalar OsgEarthNet.cs[0] reservations 890
scalar OsgEarthNet.cs[1] usedPower 5704039.493818
scalar OsgEarthNet.cs[1] chargedPower 5704039.493818
scalar OsgEarthNet.cs[1] chargedMobileNodes 1396
scalar OsgEarthNet.cs[1] reservations 1415
scalar OsgEarthNet.cs[2] usedPower 6958421.607134
scalar OsgEarthNet.cs[2] chargedPower 6958421.607134
scalar OsgEarthNet.cs[2] chargedMobileNodes 1393
scalar OsgEarthNet.cs[2] reservations 1518

