version 2
run Szenario_Hotel_Gabelbach-541-20180719-23:23:54-24608
attr configname Szenario_Hotel_Gabelbach
attr datetime 20180719-23:23:54
attr experiment Szenario_Hotel_Gabelbach
attr inifile omnetpp.ini
attr iterationvars "$replM=2, $biWeight=0.35, $replSearchM=1, $numUAVs=100"
attr iterationvarsf replM=2,biWeight=0.35,replSearchM=1,numUAVs=100-
attr measurement "$replM=2, $biWeight=0.35, $replSearchM=1, $numUAVs=100"
attr network OsgEarthNet
attr processid 24608
attr repetition 13
attr replication #13
attr resultdir results
attr runnumber 541
attr seedset 541
itervar biWeight 0.35
itervar numUAVs 100
itervar replM 2
itervar replSearchM 1
param *.osgEarthScene.scene "\"Szenario_Hotel_Gabelbach.earth\""
param *.playgroundLatitude 50.6830269
param *.playgroundLongitude 10.8538055
param *.playgroundWidth 3500m
param *.playgroundHeight 3500m
param *.cs[0].posX 3537m
param *.cs[0].posY 965m
param *.cs[0].posZ 538m
param *.cs[1].posX 312m
param *.cs[1].posY 1262m
param *.cs[1].posZ 539m
param *.cs[2].posX 2185m
param *.cs[2].posY 3026m
param *.cs[2].posZ 777m
param *.cs[3].posX 10m
param *.cs[3].posY 2200m
param *.cs[3].posZ 560m
param *.cs[4].posX 750m
param *.cs[4].posY 200m
param *.cs[4].posZ 540m
param *.cs[5].posX 2450m
param *.cs[5].posY 180m
param *.cs[5].posZ 524m
param *.cs[6].posX 3140m
param *.cs[6].posY 1790m
param *.cs[6].posZ 606m
param *.numCSs 3
param *.uav[*].replacementMethod 2
param *.uav[*].weightedSumWeight 0.35
param *.missionControl.replacementSearchMethod 1
param *.numUAVs 100
param *.*.timeStep 10s
param *.uav[*].commandPreviewCommandCount 20
param *.missionControl.missionFiles "\"missions\\\\Szenario_WB_Hotel_Gabelbach_Mission_Hotel.waypoints,missions\\\\Szenario_WB_Hotel_Gabelbach_Mission_Kickelhahn.waypoints,missions\\\\Szenario_WB_Hotel_Gabelbach_Mission_Ilmenau_Sportplatz.waypoints,missions\\\\Szenario_WB_Hotel_Gabelbach_Mission_Manebach_Mitte.waypoints,missions\\\\Szenario_WB_Hotel_Gabelbach_Mission_Manebach_Sued.waypoints,missions\\\\Szenario_WB_Hotel_Gabelbach_Hover_HoheSchlaufe.waypoints,missions\\\\Szenario_WB_Hotel_Gabelbach_Hover_Kickelhahn.waypoints,missions\\\\Szenario_WB_Hotel_Gabelbach_Hover_Gabelbachskopf.waypoints,missions\\\\Szenario_WB_Hotel_Gabelbach_Hover_Dachskopf.waypoints\""
param *.uav[0].startX 3537m
param *.uav[0].startY 965m
param *.uav[0].startZ 539m
param *.uav[1].startX 312m
param *.uav[1].startY 1262m
param *.uav[1].startZ 540m
param *.uav[2].startX 2185m
param *.uav[2].startY 3026m
param *.uav[2].startZ 778m
param *.uav[3].startX 3537m
param *.uav[3].startY 965m
param *.uav[3].startZ 539m
param *.uav[4].startX 312m
param *.uav[4].startY 1262m
param *.uav[4].startZ 540m
param *.uav[5].startX 2185m
param *.uav[5].startY 3026m
param *.uav[5].startZ 778m
param *.uav[6].startX 3537m
param *.uav[6].startY 965m
param *.uav[6].startZ 539m
param *.uav[7].startX 312m
param *.uav[7].startY 1262m
param *.uav[7].startZ 540m
param *.uav[8].startX 2185m
param *.uav[8].startY 3026m
param *.uav[8].startZ 778m
param *.uav[9].startX 3537m
param *.uav[9].startY 965m
param *.uav[9].startZ 539m
param *.uav[10].startX 3537m
param *.uav[10].startY 965m
param *.uav[10].startZ 539m
param *.uav[11].startX 312m
param *.uav[11].startY 1262m
param *.uav[11].startZ 540m
param *.uav[12].startX 2185m
param *.uav[12].startY 3026m
param *.uav[12].startZ 778m
param *.uav[13].startX 3537m
param *.uav[13].startY 965m
param *.uav[13].startZ 539m
param *.uav[14].startX 312m
param *.uav[14].startY 1262m
param *.uav[14].startZ 540m
param *.uav[15].startX 2185m
param *.uav[15].startY 3026m
param *.uav[15].startZ 778m
param *.uav[16].startX 3537m
param *.uav[16].startY 965m
param *.uav[16].startZ 539m
param *.uav[17].startX 312m
param *.uav[17].startY 1262m
param *.uav[17].startZ 540m
param *.uav[18].startX 2185m
param *.uav[18].startY 3026m
param *.uav[18].startZ 778m
param *.uav[19].startX 3537m
param *.uav[19].startY 965m
param *.uav[19].startZ 539m
param *.uav[20].startX 3537m
param *.uav[20].startY 965m
param *.uav[20].startZ 539m
param *.uav[21].startX 312m
param *.uav[21].startY 1262m
param *.uav[21].startZ 540m
param *.uav[22].startX 2185m
param *.uav[22].startY 3026m
param *.uav[22].startZ 778m
param *.uav[23].startX 3537m
param *.uav[23].startY 965m
param *.uav[23].startZ 539m
param *.uav[24].startX 312m
param *.uav[24].startY 1262m
param *.uav[24].startZ 540m
param *.uav[25].startX 2185m
param *.uav[25].startY 3026m
param *.uav[25].startZ 778m
param *.uav[26].startX 3537m
param *.uav[26].startY 965m
param *.uav[26].startZ 539m
param *.uav[27].startX 312m
param *.uav[27].startY 1262m
param *.uav[27].startZ 540m
param *.uav[28].startX 2185m
param *.uav[28].startY 3026m
param *.uav[28].startZ 778m
param *.uav[29].startX 3537m
param *.uav[29].startY 965m
param *.uav[29].startZ 539m
param *.uav[30].startX 3537m
param *.uav[30].startY 965m
param *.uav[30].startZ 539m
param *.uav[31].startX 312m
param *.uav[31].startY 1262m
param *.uav[31].startZ 540m
param *.uav[32].startX 2185m
param *.uav[32].startY 3026m
param *.uav[32].startZ 778m
param *.uav[33].startX 3537m
param *.uav[33].startY 965m
param *.uav[33].startZ 539m
param *.uav[34].startX 312m
param *.uav[34].startY 1262m
param *.uav[34].startZ 540m
param *.uav[35].startX 2185m
param *.uav[35].startY 3026m
param *.uav[35].startZ 778m
param *.uav[36].startX 3537m
param *.uav[36].startY 965m
param *.uav[36].startZ 539m
param *.uav[37].startX 312m
param *.uav[37].startY 1262m
param *.uav[37].startZ 540m
param *.uav[38].startX 2185m
param *.uav[38].startY 3026m
param *.uav[38].startZ 778m
param *.uav[39].startX 3537m
param *.uav[39].startY 965m
param *.uav[39].startZ 539m
param *.uav[40].startX 3537m
param *.uav[40].startY 965m
param *.uav[40].startZ 539m
param *.uav[41].startX 312m
param *.uav[41].startY 1262m
param *.uav[41].startZ 540m
param *.uav[42].startX 2185m
param *.uav[42].startY 3026m
param *.uav[42].startZ 778m
param *.uav[43].startX 3537m
param *.uav[43].startY 965m
param *.uav[43].startZ 539m
param *.uav[44].startX 312m
param *.uav[44].startY 1262m
param *.uav[44].startZ 540m
param *.uav[45].startX 2185m
param *.uav[45].startY 3026m
param *.uav[45].startZ 778m
param *.uav[46].startX 3537m
param *.uav[46].startY 965m
param *.uav[46].startZ 539m
param *.uav[47].startX 312m
param *.uav[47].startY 1262m
param *.uav[47].startZ 540m
param *.uav[48].startX 2185m
param *.uav[48].startY 3026m
param *.uav[48].startZ 778m
param *.uav[49].startX 3537m
param *.uav[49].startY 965m
param *.uav[49].startZ 539m
param *.uav[50].startX 3537m
param *.uav[50].startY 965m
param *.uav[50].startZ 539m
param *.uav[51].startX 312m
param *.uav[51].startY 1262m
param *.uav[51].startZ 540m
param *.uav[52].startX 2185m
param *.uav[52].startY 3026m
param *.uav[52].startZ 778m
param *.uav[53].startX 3537m
param *.uav[53].startY 965m
param *.uav[53].startZ 539m
param *.uav[54].startX 312m
param *.uav[54].startY 1262m
param *.uav[54].startZ 540m
param *.uav[55].startX 2185m
param *.uav[55].startY 3026m
param *.uav[55].startZ 778m
param *.uav[56].startX 3537m
param *.uav[56].startY 965m
param *.uav[56].startZ 539m
param *.uav[57].startX 312m
param *.uav[57].startY 1262m
param *.uav[57].startZ 540m
param *.uav[58].startX 2185m
param *.uav[58].startY 3026m
param *.uav[58].startZ 778m
param *.uav[59].startX 3537m
param *.uav[59].startY 965m
param *.uav[59].startZ 539m
param *.uav[60].startX 3537m
param *.uav[60].startY 965m
param *.uav[60].startZ 539m
param *.uav[61].startX 312m
param *.uav[61].startY 1262m
param *.uav[61].startZ 540m
param *.uav[62].startX 2185m
param *.uav[62].startY 3026m
param *.uav[62].startZ 778m
param *.uav[63].startX 3537m
param *.uav[63].startY 965m
param *.uav[63].startZ 539m
param *.uav[64].startX 312m
param *.uav[64].startY 1262m
param *.uav[64].startZ 540m
param *.uav[65].startX 2185m
param *.uav[65].startY 3026m
param *.uav[65].startZ 778m
param *.uav[66].startX 3537m
param *.uav[66].startY 965m
param *.uav[66].startZ 539m
param *.uav[67].startX 312m
param *.uav[67].startY 1262m
param *.uav[67].startZ 540m
param *.uav[68].startX 2185m
param *.uav[68].startY 3026m
param *.uav[68].startZ 778m
param *.uav[69].startX 3537m
param *.uav[69].startY 965m
param *.uav[69].startZ 539m
param *.uav[70].startX 3537m
param *.uav[70].startY 965m
param *.uav[70].startZ 539m
param *.uav[71].startX 312m
param *.uav[71].startY 1262m
param *.uav[71].startZ 540m
param *.uav[72].startX 2185m
param *.uav[72].startY 3026m
param *.uav[72].startZ 778m
param *.uav[73].startX 3537m
param *.uav[73].startY 965m
param *.uav[73].startZ 539m
param *.uav[74].startX 312m
param *.uav[74].startY 1262m
param *.uav[74].startZ 540m
param *.uav[75].startX 2185m
param *.uav[75].startY 3026m
param *.uav[75].startZ 778m
param *.uav[76].startX 3537m
param *.uav[76].startY 965m
param *.uav[76].startZ 539m
param *.uav[77].startX 312m
param *.uav[77].startY 1262m
param *.uav[77].startZ 540m
param *.uav[78].startX 2185m
param *.uav[78].startY 3026m
param *.uav[78].startZ 778m
param *.uav[79].startX 3537m
param *.uav[79].startY 965m
param *.uav[79].startZ 539m
param *.uav[80].startX 3537m
param *.uav[80].startY 965m
param *.uav[80].startZ 539m
param *.uav[81].startX 312m
param *.uav[81].startY 1262m
param *.uav[81].startZ 540m
param *.uav[82].startX 2185m
param *.uav[82].startY 3026m
param *.uav[82].startZ 778m
param *.uav[83].startX 3537m
param *.uav[83].startY 965m
param *.uav[83].startZ 539m
param *.uav[84].startX 312m
param *.uav[84].startY 1262m
param *.uav[84].startZ 540m
param *.uav[85].startX 2185m
param *.uav[85].startY 3026m
param *.uav[85].startZ 778m
param *.uav[86].startX 3537m
param *.uav[86].startY 965m
param *.uav[86].startZ 539m
param *.uav[87].startX 312m
param *.uav[87].startY 1262m
param *.uav[87].startZ 540m
param *.uav[88].startX 2185m
param *.uav[88].startY 3026m
param *.uav[88].startZ 778m
param *.uav[89].startX 3537m
param *.uav[89].startY 965m
param *.uav[89].startZ 539m
param *.uav[90].startX 3537m
param *.uav[90].startY 965m
param *.uav[90].startZ 539m
param *.uav[91].startX 312m
param *.uav[91].startY 1262m
param *.uav[91].startZ 540m
param *.uav[92].startX 2185m
param *.uav[92].startY 3026m
param *.uav[92].startZ 778m
param *.uav[93].startX 3537m
param *.uav[93].startY 965m
param *.uav[93].startZ 539m
param *.uav[94].startX 312m
param *.uav[94].startY 1262m
param *.uav[94].startZ 540m
param *.uav[95].startX 2185m
param *.uav[95].startY 3026m
param *.uav[95].startZ 778m
param *.uav[96].startX 3537m
param *.uav[96].startY 965m
param *.uav[96].startZ 539m
param *.uav[97].startX 312m
param *.uav[97].startY 1262m
param *.uav[97].startZ 540m
param *.uav[98].startX 2185m
param *.uav[98].startY 3026m
param *.uav[98].startZ 778m
param *.uav[99].startX 3537m
param *.uav[99].startY 965m
param *.uav[99].startZ 539m
param *.osgEarthScene.scene "\"boston.earth\""
param *.playgroundLatitude 42.3558
param *.playgroundLongitude -71.0677
param *.playgroundWidth 400m
param *.playgroundHeight 200m
param *.channelController.connectionColor "\"#0000FF40\""
param *.channelController.showConnections false
param *.uav[*].modelURL "\"quadrocopter.small.obj.15.scale.0,0,90.rot\""
param *.uav[*].labelColor "\"#FF7C00CC\""
param *.uav[*].label2Color "\"#FF7C00EE\""
param *.uav[*].batteryCapacity 5200mAh
param *.uav[*].batteryRemaining uav[index].batteryCapacity
param *.uav[*].predictionQuantile 0.95
param *.uav[*].replacementMethod 2
param *.uav[*].weightedSumWeight 0.5
param *.cs[*].modelURL "\"chargingstation_v1.osgt.2.scale.0,0,0.rot.0,0,-15e-1.trans\""
param *.cs[*].spotsWaiting 999
param *.cs[*].spotsCharging 999
param *.cs[*].chargeEffectivenessPercentage 100
param *.cs[*].nonLinearPhaseStartPercentage 85
param *.cs[*].chargeCurrent 6.0A
param *.cs[*].prioritizeFastCharge true
param *.missionControl.replacementSearchMethod 0
param *.*.timeStep 9s

scalar OsgEarthNet.uav[0] utilizationSecMission 460
scalar OsgEarthNet.uav[0] utilizationSecMaintenance 447.1303002674
scalar OsgEarthNet.uav[0] utilizationSecCharge 3440
scalar OsgEarthNet.uav[0] utilizationSecIdle 254852.86869973
scalar OsgEarthNet.uav[0] utilizationEnergyMission 2447.5876693726
scalar OsgEarthNet.uav[0] utilizationEnergyMaintenance 2143.3115348816
scalar OsgEarthNet.uav[0] utilizationEnergyCharge 4354.1899414062
scalar OsgEarthNet.uav[0] utilizationEnergyOverdrawMission 0
scalar OsgEarthNet.uav[0] utilizationEnergyOverdrawMaintenance 0
scalar OsgEarthNet.uav[0] utilizationCountMissions 1
scalar OsgEarthNet.uav[0] utilizationCountManeuversMission 23
scalar OsgEarthNet.uav[0] utilizationCountManeuversMaintenance 2
scalar OsgEarthNet.uav[0] utilizationCountChargeState 1
scalar OsgEarthNet.uav[0] utilizationCountOverdrawnAfterMission 0
scalar OsgEarthNet.uav[0] utilizationCountIdleState 2
scalar OsgEarthNet.uav[0] utilizationFail 0
scalar OsgEarthNet.uav[0] simulationTime 259200
scalar OsgEarthNet.uav[1] utilizationSecMission 26587.661731224
scalar OsgEarthNet.uav[1] utilizationSecMaintenance 13330.335268776
scalar OsgEarthNet.uav[1] utilizationSecCharge 144850
scalar OsgEarthNet.uav[1] utilizationSecIdle 74432.002
scalar OsgEarthNet.uav[1] utilizationEnergyMission 129929.37397003
scalar OsgEarthNet.uav[1] utilizationEnergyMaintenance 62774.268521151
scalar OsgEarthNet.uav[1] utilizationEnergyCharge 188950.83178711
scalar OsgEarthNet.uav[1] utilizationEnergyOverdrawMission 0
scalar OsgEarthNet.uav[1] utilizationEnergyOverdrawMaintenance 0
scalar OsgEarthNet.uav[1] utilizationCountMissions 43
scalar OsgEarthNet.uav[1] utilizationCountManeuversMission 802
scalar OsgEarthNet.uav[1] utilizationCountManeuversMaintenance 87
scalar OsgEarthNet.uav[1] utilizationCountChargeState 43
scalar OsgEarthNet.uav[1] utilizationCountOverdrawnAfterMission 0
scalar OsgEarthNet.uav[1] utilizationCountIdleState 31
scalar OsgEarthNet.uav[1] utilizationFail 0
scalar OsgEarthNet.uav[1] simulationTime 259200
scalar OsgEarthNet.uav[2] utilizationSecMission 39513.731226831
scalar OsgEarthNet.uav[2] utilizationSecMaintenance 17714.266773169
scalar OsgEarthNet.uav[2] utilizationSecCharge 197780
scalar OsgEarthNet.uav[2] utilizationSecIdle 4192.001
scalar OsgEarthNet.uav[2] utilizationEnergyMission 191925.58993893
scalar OsgEarthNet.uav[2] utilizationEnergyMaintenance 81956.70262146
scalar OsgEarthNet.uav[2] utilizationEnergyCharge 273239.40820312
scalar OsgEarthNet.uav[2] utilizationEnergyOverdrawMission 0
scalar OsgEarthNet.uav[2] utilizationEnergyOverdrawMaintenance 0
scalar OsgEarthNet.uav[2] utilizationCountMissions 59
scalar OsgEarthNet.uav[2] utilizationCountManeuversMission 1271
scalar OsgEarthNet.uav[2] utilizationCountManeuversMaintenance 119
scalar OsgEarthNet.uav[2] utilizationCountChargeState 59
scalar OsgEarthNet.uav[2] utilizationCountOverdrawnAfterMission 0
scalar OsgEarthNet.uav[2] utilizationCountIdleState 22
scalar OsgEarthNet.uav[2] utilizationFail 0
scalar OsgEarthNet.uav[2] simulationTime 259200
scalar OsgEarthNet.uav[3] utilizationSecMission 760.62515258028
scalar OsgEarthNet.uav[3] utilizationSecMaintenance 202.91610409653
scalar OsgEarthNet.uav[3] utilizationSecCharge 3470
scalar OsgEarthNet.uav[3] utilizationSecIdle 254766.45774332
scalar OsgEarthNet.uav[3] utilizationEnergyMission 3547.8857574463
scalar OsgEarthNet.uav[3] utilizationEnergyMaintenance 969.96758270263
scalar OsgEarthNet.uav[3] utilizationEnergyCharge 4404.6411132812
scalar OsgEarthNet.uav[3] utilizationEnergyOverdrawMission 0
scalar OsgEarthNet.uav[3] utilizationEnergyOverdrawMaintenance 0
scalar OsgEarthNet.uav[3] utilizationCountMissions 1
scalar OsgEarthNet.uav[3] utilizationCountManeuversMission 12
scalar OsgEarthNet.uav[3] utilizationCountManeuversMaintenance 2
scalar OsgEarthNet.uav[3] utilizationCountChargeState 1
scalar OsgEarthNet.uav[3] utilizationCountOverdrawnAfterMission 0
scalar OsgEarthNet.uav[3] utilizationCountIdleState 2
scalar OsgEarthNet.uav[3] utilizationFail 0
scalar OsgEarthNet.uav[3] simulationTime 259200
scalar OsgEarthNet.uav[4] utilizationSecMission 3372.7001962491
scalar OsgEarthNet.uav[4] utilizationSecMaintenance 2328.8261869316
scalar OsgEarthNet.uav[4] utilizationSecCharge 22450
scalar OsgEarthNet.uav[4] utilizationSecIdle 231048.47261682
scalar OsgEarthNet.uav[4] utilizationEnergyMission 16483.083644867
scalar OsgEarthNet.uav[4] utilizationEnergyMaintenance 11045.624256134
scalar OsgEarthNet.uav[4] utilizationEnergyCharge 27777.036621094
scalar OsgEarthNet.uav[4] utilizationEnergyOverdrawMission 0
scalar OsgEarthNet.uav[4] utilizationEnergyOverdrawMaintenance 0
scalar OsgEarthNet.uav[4] utilizationCountMissions 7
scalar OsgEarthNet.uav[4] utilizationCountManeuversMission 109
scalar OsgEarthNet.uav[4] utilizationCountManeuversMaintenance 14
scalar OsgEarthNet.uav[4] utilizationCountChargeState 7
scalar OsgEarthNet.uav[4] utilizationCountOverdrawnAfterMission 0
scalar OsgEarthNet.uav[4] utilizationCountIdleState 8
scalar OsgEarthNet.uav[4] utilizationFail 0
scalar OsgEarthNet.uav[4] simulationTime 259200
scalar OsgEarthNet.uav[5] utilizationSecMission 39295.104564
scalar OsgEarthNet.uav[5] utilizationSecMaintenance 17564.970602756
scalar OsgEarthNet.uav[5] utilizationSecCharge 196247.91683324
scalar OsgEarthNet.uav[5] utilizationSecIdle 6092.007
scalar OsgEarthNet.uav[5] utilizationEnergyMission 189996.98395538
scalar OsgEarthNet.uav[5] utilizationEnergyMaintenance 81732.363315582
scalar OsgEarthNet.uav[5] utilizationEnergyCharge 270385.23681641
scalar OsgEarthNet.uav[5] utilizationEnergyOverdrawMission 0
scalar OsgEarthNet.uav[5] utilizationEnergyOverdrawMaintenance 0
scalar OsgEarthNet.uav[5] utilizationCountMissions 59
scalar OsgEarthNet.uav[5] utilizationCountManeuversMission 1240
scalar OsgEarthNet.uav[5] utilizationCountManeuversMaintenance 118
scalar OsgEarthNet.uav[5] utilizationCountChargeState 59
scalar OsgEarthNet.uav[5] utilizationCountOverdrawnAfterMission 0
scalar OsgEarthNet.uav[5] utilizationCountIdleState 17
scalar OsgEarthNet.uav[5] utilizationFail 0
scalar OsgEarthNet.uav[5] simulationTime 259200
scalar OsgEarthNet.uav[6] utilizationSecMission 760.62515258028
scalar OsgEarthNet.uav[6] utilizationSecMaintenance 202.91610409653
scalar OsgEarthNet.uav[6] utilizationSecCharge 3480
scalar OsgEarthNet.uav[6] utilizationSecIdle 254756.45774332
scalar OsgEarthNet.uav[6] utilizationEnergyMission 3478.7411880493
scalar OsgEarthNet.uav[6] utilizationEnergyMaintenance 941.11513519287
scalar OsgEarthNet.uav[6] utilizationEnergyCharge 4441.658203125
scalar OsgEarthNet.uav[6] utilizationEnergyOverdrawMission 0
scalar OsgEarthNet.uav[6] utilizationEnergyOverdrawMaintenance 0
scalar OsgEarthNet.uav[6] utilizationCountMissions 1
scalar OsgEarthNet.uav[6] utilizationCountManeuversMission 12
scalar OsgEarthNet.uav[6] utilizationCountManeuversMaintenance 2
scalar OsgEarthNet.uav[6] utilizationCountChargeState 1
scalar OsgEarthNet.uav[6] utilizationCountOverdrawnAfterMission 0
scalar OsgEarthNet.uav[6] utilizationCountIdleState 2
scalar OsgEarthNet.uav[6] utilizationFail 0
scalar OsgEarthNet.uav[6] simulationTime 259200
scalar OsgEarthNet.uav[7] utilizationSecMission 4095.6480277527
scalar OsgEarthNet.uav[7] utilizationSecMaintenance 2627.2556894003
scalar OsgEarthNet.uav[7] utilizationSecCharge 25660
scalar OsgEarthNet.uav[7] utilizationSecIdle 226817.09528285
scalar OsgEarthNet.uav[7] utilizationEnergyMission 19558.327465057
scalar OsgEarthNet.uav[7] utilizationEnergyMaintenance 11921.369884491
scalar OsgEarthNet.uav[7] utilizationEnergyCharge 31804.877197266
scalar OsgEarthNet.uav[7] utilizationEnergyOverdrawMission 0
scalar OsgEarthNet.uav[7] utilizationEnergyOverdrawMaintenance 0
scalar OsgEarthNet.uav[7] utilizationCountMissions 8
scalar OsgEarthNet.uav[7] utilizationCountManeuversMission 123
scalar OsgEarthNet.uav[7] utilizationCountManeuversMaintenance 16
scalar OsgEarthNet.uav[7] utilizationCountChargeState 8
scalar OsgEarthNet.uav[7] utilizationCountOverdrawnAfterMission 0
scalar OsgEarthNet.uav[7] utilizationCountIdleState 9
scalar OsgEarthNet.uav[7] utilizationFail 0
scalar OsgEarthNet.uav[7] simulationTime 259200
scalar OsgEarthNet.uav[8] utilizationSecMission 40256.13219237
scalar OsgEarthNet.uav[8] utilizationSecMaintenance 16812.340408922
scalar OsgEarthNet.uav[8] utilizationSecCharge 195539.52039871
scalar OsgEarthNet.uav[8] utilizationSecIdle 6592.006
scalar OsgEarthNet.uav[8] utilizationEnergyMission 195144.3441124
scalar OsgEarthNet.uav[8] utilizationEnergyMaintenance 77415.147769928
scalar OsgEarthNet.uav[8] utilizationEnergyCharge 270255.61987305
scalar OsgEarthNet.uav[8] utilizationEnergyOverdrawMission 0
scalar OsgEarthNet.uav[8] utilizationEnergyOverdrawMaintenance 0
scalar OsgEarthNet.uav[8] utilizationCountMissions 59
scalar OsgEarthNet.uav[8] utilizationCountManeuversMission 1255
scalar OsgEarthNet.uav[8] utilizationCountManeuversMaintenance 118
scalar OsgEarthNet.uav[8] utilizationCountChargeState 59
scalar OsgEarthNet.uav[8] utilizationCountOverdrawnAfterMission 0
scalar OsgEarthNet.uav[8] utilizationCountIdleState 18
scalar OsgEarthNet.uav[8] utilizationFail 0
scalar OsgEarthNet.uav[8] simulationTime 259200
scalar OsgEarthNet.uav[9] utilizationSecMission 420
scalar OsgEarthNet.uav[9] utilizationSecMaintenance 447.1303002674
scalar OsgEarthNet.uav[9] utilizationSecCharge 3490
scalar OsgEarthNet.uav[9] utilizationSecIdle 254842.86869973
scalar OsgEarthNet.uav[9] utilizationEnergyMission 2139.6123390198
scalar OsgEarthNet.uav[9] utilizationEnergyMaintenance 2108.2115592956
scalar OsgEarthNet.uav[9] utilizationEnergyCharge 4461.0219726562
scalar OsgEarthNet.uav[9] utilizationEnergyOverdrawMission 0
scalar OsgEarthNet.uav[9] utilizationEnergyOverdrawMaintenance 0
scalar OsgEarthNet.uav[9] utilizationCountMissions 1
scalar OsgEarthNet.uav[9] utilizationCountManeuversMission 21
scalar OsgEarthNet.uav[9] utilizationCountManeuversMaintenance 2
scalar OsgEarthNet.uav[9] utilizationCountChargeState 1
scalar OsgEarthNet.uav[9] utilizationCountOverdrawnAfterMission 0
scalar OsgEarthNet.uav[9] utilizationCountIdleState 2
scalar OsgEarthNet.uav[9] utilizationFail 0
scalar OsgEarthNet.uav[9] simulationTime 259200
scalar OsgEarthNet.uav[10] utilizationSecMission 460
scalar OsgEarthNet.uav[10] utilizationSecMaintenance 447.1303002674
scalar OsgEarthNet.uav[10] utilizationSecCharge 3530
scalar OsgEarthNet.uav[10] utilizationSecIdle 254762.86869973
scalar OsgEarthNet.uav[10] utilizationEnergyMission 2254.974155426
scalar OsgEarthNet.uav[10] utilizationEnergyMaintenance 2109.6872673035
scalar OsgEarthNet.uav[10] utilizationEnergyCharge 4552.6010742188
scalar OsgEarthNet.uav[10] utilizationEnergyOverdrawMission 0
scalar OsgEarthNet.uav[10] utilizationEnergyOverdrawMaintenance 0
scalar OsgEarthNet.uav[10] utilizationCountMissions 1
scalar OsgEarthNet.uav[10] utilizationCountManeuversMission 23
scalar OsgEarthNet.uav[10] utilizationCountManeuversMaintenance 2
scalar OsgEarthNet.uav[10] utilizationCountChargeState 1
scalar OsgEarthNet.uav[10] utilizationCountOverdrawnAfterMission 0
scalar OsgEarthNet.uav[10] utilizationCountIdleState 2
scalar OsgEarthNet.uav[10] utilizationFail 0
scalar OsgEarthNet.uav[10] simulationTime 259200
scalar OsgEarthNet.uav[11] utilizationSecMission 14649.670693962
scalar OsgEarthNet.uav[11] utilizationSecMaintenance 11801.432217267
scalar OsgEarthNet.uav[11] utilizationSecCharge 105810
scalar OsgEarthNet.uav[11] utilizationSecIdle 126938.89608877
scalar OsgEarthNet.uav[11] utilizationEnergyMission 73347.742347717
scalar OsgEarthNet.uav[11] utilizationEnergyMaintenance 56456.301265717
scalar OsgEarthNet.uav[11] utilizationEnergyCharge 129513.89306641
scalar OsgEarthNet.uav[11] utilizationEnergyOverdrawMission 0
scalar OsgEarthNet.uav[11] utilizationEnergyOverdrawMaintenance 0
scalar OsgEarthNet.uav[11] utilizationCountMissions 34
scalar OsgEarthNet.uav[11] utilizationCountManeuversMission 574
scalar OsgEarthNet.uav[11] utilizationCountManeuversMaintenance 68
scalar OsgEarthNet.uav[11] utilizationCountChargeState 34
scalar OsgEarthNet.uav[11] utilizationCountOverdrawnAfterMission 0
scalar OsgEarthNet.uav[11] utilizationCountIdleState 35
scalar OsgEarthNet.uav[11] utilizationFail 0
scalar OsgEarthNet.uav[11] simulationTime 259200
scalar OsgEarthNet.uav[12] utilizationSecMission 39173.190418258
scalar OsgEarthNet.uav[12] utilizationSecMaintenance 17588.820448879
scalar OsgEarthNet.uav[12] utilizationSecCharge 195958.15131882
scalar OsgEarthNet.uav[12] utilizationSecIdle 6479.83681404
scalar OsgEarthNet.uav[12] utilizationEnergyMission 190503.96030426
scalar OsgEarthNet.uav[12] utilizationEnergyMaintenance 80317.63628006
scalar OsgEarthNet.uav[12] utilizationEnergyCharge 269252.77734375
scalar OsgEarthNet.uav[12] utilizationEnergyOverdrawMission 0
scalar OsgEarthNet.uav[12] utilizationEnergyOverdrawMaintenance 0
scalar OsgEarthNet.uav[12] utilizationCountMissions 59
scalar OsgEarthNet.uav[12] utilizationCountManeuversMission 1295
scalar OsgEarthNet.uav[12] utilizationCountManeuversMaintenance 118
scalar OsgEarthNet.uav[12] utilizationCountChargeState 59
scalar OsgEarthNet.uav[12] utilizationCountOverdrawnAfterMission 0
scalar OsgEarthNet.uav[12] utilizationCountIdleState 24
scalar OsgEarthNet.uav[12] utilizationFail 0
scalar OsgEarthNet.uav[12] simulationTime 259200
scalar OsgEarthNet.uav[13] utilizationSecMission 13065.001220642
scalar OsgEarthNet.uav[13] utilizationSecMaintenance 8518.7661231609
scalar OsgEarthNet.uav[13] utilizationSecCharge 80180
scalar OsgEarthNet.uav[13] utilizationSecIdle 157436.2316562
scalar OsgEarthNet.uav[13] utilizationEnergyMission 63981.957622528
scalar OsgEarthNet.uav[13] utilizationEnergyMaintenance 40276.246265411
scalar OsgEarthNet.uav[13] utilizationEnergyCharge 102971.66943359
scalar OsgEarthNet.uav[13] utilizationEnergyOverdrawMission 0
scalar OsgEarthNet.uav[13] utilizationEnergyOverdrawMaintenance 0
scalar OsgEarthNet.uav[13] utilizationCountMissions 23
scalar OsgEarthNet.uav[13] utilizationCountManeuversMission 445
scalar OsgEarthNet.uav[13] utilizationCountManeuversMaintenance 46
scalar OsgEarthNet.uav[13] utilizationCountChargeState 23
scalar OsgEarthNet.uav[13] utilizationCountOverdrawnAfterMission 0
scalar OsgEarthNet.uav[13] utilizationCountIdleState 24
scalar OsgEarthNet.uav[13] utilizationFail 0
scalar OsgEarthNet.uav[13] simulationTime 259200
scalar OsgEarthNet.uav[14] utilizationSecMission 10238.30738861
scalar OsgEarthNet.uav[14] utilizationSecMaintenance 7439.3384860927
scalar OsgEarthNet.uav[14] utilizationSecCharge 68580.348125297
scalar OsgEarthNet.uav[14] utilizationSecIdle 172942.005
scalar OsgEarthNet.uav[14] utilizationEnergyMission 49060.248435974
scalar OsgEarthNet.uav[14] utilizationEnergyMaintenance 35244.945972443
scalar OsgEarthNet.uav[14] utilizationEnergyCharge 83819.398925781
scalar OsgEarthNet.uav[14] utilizationEnergyOverdrawMission 0
scalar OsgEarthNet.uav[14] utilizationEnergyOverdrawMaintenance 0
scalar OsgEarthNet.uav[14] utilizationCountMissions 23
scalar OsgEarthNet.uav[14] utilizationCountManeuversMission 310
scalar OsgEarthNet.uav[14] utilizationCountManeuversMaintenance 46
scalar OsgEarthNet.uav[14] utilizationCountChargeState 23
scalar OsgEarthNet.uav[14] utilizationCountOverdrawnAfterMission 0
scalar OsgEarthNet.uav[14] utilizationCountIdleState 23
scalar OsgEarthNet.uav[14] utilizationFail 0
scalar OsgEarthNet.uav[14] simulationTime 259200
scalar OsgEarthNet.uav[15] utilizationSecMission 39418.679527112
scalar OsgEarthNet.uav[15] utilizationSecMaintenance 16902.784847159
scalar OsgEarthNet.uav[15] utilizationSecCharge 196356.52962573
scalar OsgEarthNet.uav[15] utilizationSecIdle 6522.005
scalar OsgEarthNet.uav[15] utilizationEnergyMission 191362.811409
scalar OsgEarthNet.uav[15] utilizationEnergyMaintenance 78139.417972565
scalar OsgEarthNet.uav[15] utilizationEnergyCharge 270272.57885742
scalar OsgEarthNet.uav[15] utilizationEnergyOverdrawMission 0
scalar OsgEarthNet.uav[15] utilizationEnergyOverdrawMaintenance 0
scalar OsgEarthNet.uav[15] utilizationCountMissions 59
scalar OsgEarthNet.uav[15] utilizationCountManeuversMission 1266
scalar OsgEarthNet.uav[15] utilizationCountManeuversMaintenance 118
scalar OsgEarthNet.uav[15] utilizationCountChargeState 59
scalar OsgEarthNet.uav[15] utilizationCountOverdrawnAfterMission 0
scalar OsgEarthNet.uav[15] utilizationCountIdleState 19
scalar OsgEarthNet.uav[15] utilizationFail 0
scalar OsgEarthNet.uav[15] simulationTime 259200
scalar OsgEarthNet.uav[16] utilizationSecMission 14414.629482615
scalar OsgEarthNet.uav[16] utilizationSecMaintenance 7883.6296419791
scalar OsgEarthNet.uav[16] utilizationSecCharge 79779.739875406
scalar OsgEarthNet.uav[16] utilizationSecIdle 157122
scalar OsgEarthNet.uav[16] utilizationEnergyMission 68689.759113312
scalar OsgEarthNet.uav[16] utilizationEnergyMaintenance 37486.926105499
scalar OsgEarthNet.uav[16] utilizationEnergyCharge 104074.671875
scalar OsgEarthNet.uav[16] utilizationEnergyOverdrawMission 0
scalar OsgEarthNet.uav[16] utilizationEnergyOverdrawMaintenance 0
scalar OsgEarthNet.uav[16] utilizationCountMissions 23
scalar OsgEarthNet.uav[16] utilizationCountManeuversMission 418
scalar OsgEarthNet.uav[16] utilizationCountManeuversMaintenance 45
scalar OsgEarthNet.uav[16] utilizationCountChargeState 23
scalar OsgEarthNet.uav[16] utilizationCountOverdrawnAfterMission 0
scalar OsgEarthNet.uav[16] utilizationCountIdleState 23
scalar OsgEarthNet.uav[16] utilizationFail 0
scalar OsgEarthNet.uav[16] simulationTime 259200
scalar OsgEarthNet.uav[17] utilizationSecMission 14311.709655231
scalar OsgEarthNet.uav[17] utilizationSecMaintenance 10490.351502856
scalar OsgEarthNet.uav[17] utilizationSecCharge 96930
scalar OsgEarthNet.uav[17] utilizationSecIdle 137467.93784191
scalar OsgEarthNet.uav[17] utilizationEnergyMission 69420.990463257
scalar OsgEarthNet.uav[17] utilizationEnergyMaintenance 49651.229511261
scalar OsgEarthNet.uav[17] utilizationEnergyCharge 118612.32739258
scalar OsgEarthNet.uav[17] utilizationEnergyOverdrawMission 0
scalar OsgEarthNet.uav[17] utilizationEnergyOverdrawMaintenance 0
scalar OsgEarthNet.uav[17] utilizationCountMissions 31
scalar OsgEarthNet.uav[17] utilizationCountManeuversMission 506
scalar OsgEarthNet.uav[17] utilizationCountManeuversMaintenance 62
scalar OsgEarthNet.uav[17] utilizationCountChargeState 31
scalar OsgEarthNet.uav[17] utilizationCountOverdrawnAfterMission 0
scalar OsgEarthNet.uav[17] utilizationCountIdleState 32
scalar OsgEarthNet.uav[17] utilizationFail 0
scalar OsgEarthNet.uav[17] simulationTime 259200
scalar OsgEarthNet.uav[18] utilizationSecMission 42295.949487438
scalar OsgEarthNet.uav[18] utilizationSecMaintenance 15480.276845726
scalar OsgEarthNet.uav[18] utilizationSecCharge 195754.55305292
scalar OsgEarthNet.uav[18] utilizationSecIdle 5669.2196139157
scalar OsgEarthNet.uav[18] utilizationEnergyMission 202787.70516968
scalar OsgEarthNet.uav[18] utilizationEnergyMaintenance 70290.794471741
scalar OsgEarthNet.uav[18] utilizationEnergyCharge 265996.16052246
scalar OsgEarthNet.uav[18] utilizationEnergyOverdrawMission 0
scalar OsgEarthNet.uav[18] utilizationEnergyOverdrawMaintenance 0
scalar OsgEarthNet.uav[18] utilizationCountMissions 58
scalar OsgEarthNet.uav[18] utilizationCountManeuversMission 1077
scalar OsgEarthNet.uav[18] utilizationCountManeuversMaintenance 116
scalar OsgEarthNet.uav[18] utilizationCountChargeState 58
scalar OsgEarthNet.uav[18] utilizationCountOverdrawnAfterMission 0
scalar OsgEarthNet.uav[18] utilizationCountIdleState 30
scalar OsgEarthNet.uav[18] utilizationFail 0
scalar OsgEarthNet.uav[18] simulationTime 259200
scalar OsgEarthNet.uav[19] utilizationSecMission 11824.376068062
scalar OsgEarthNet.uav[19] utilizationSecMaintenance 7888.1795067173
scalar OsgEarthNet.uav[19] utilizationSecCharge 74260
scalar OsgEarthNet.uav[19] utilizationSecIdle 165227.44342522
scalar OsgEarthNet.uav[19] utilizationEnergyMission 58507.592124939
scalar OsgEarthNet.uav[19] utilizationEnergyMaintenance 37347.971443176
scalar OsgEarthNet.uav[19] utilizationEnergyCharge 95746.443847656
scalar OsgEarthNet.uav[19] utilizationEnergyOverdrawMission 0
scalar OsgEarthNet.uav[19] utilizationEnergyOverdrawMaintenance 0
scalar OsgEarthNet.uav[19] utilizationCountMissions 21
scalar OsgEarthNet.uav[19] utilizationCountManeuversMission 409
scalar OsgEarthNet.uav[19] utilizationCountManeuversMaintenance 42
scalar OsgEarthNet.uav[19] utilizationCountChargeState 21
scalar OsgEarthNet.uav[19] utilizationCountOverdrawnAfterMission 0
scalar OsgEarthNet.uav[19] utilizationCountIdleState 22
scalar OsgEarthNet.uav[19] utilizationFail 0
scalar OsgEarthNet.uav[19] simulationTime 259200
scalar OsgEarthNet.uav[20] utilizationSecMission 13805.001220642
scalar OsgEarthNet.uav[20] utilizationSecMaintenance 9336.2935754336
scalar OsgEarthNet.uav[20] utilizationSecCharge 87330
scalar OsgEarthNet.uav[20] utilizationSecIdle 148728.70420392
scalar OsgEarthNet.uav[20] utilizationEnergyMission 66273.711280823
scalar OsgEarthNet.uav[20] utilizationEnergyMaintenance 44371.802330017
scalar OsgEarthNet.uav[20] utilizationEnergyCharge 112307.63085938
scalar OsgEarthNet.uav[20] utilizationEnergyOverdrawMission 0
scalar OsgEarthNet.uav[20] utilizationEnergyOverdrawMaintenance 0
scalar OsgEarthNet.uav[20] utilizationCountMissions 25
scalar OsgEarthNet.uav[20] utilizationCountManeuversMission 482
scalar OsgEarthNet.uav[20] utilizationCountManeuversMaintenance 50
scalar OsgEarthNet.uav[20] utilizationCountChargeState 25
scalar OsgEarthNet.uav[20] utilizationCountOverdrawnAfterMission 0
scalar OsgEarthNet.uav[20] utilizationCountIdleState 26
scalar OsgEarthNet.uav[20] utilizationFail 0
scalar OsgEarthNet.uav[20] simulationTime 259200
scalar OsgEarthNet.uav[21] utilizationSecMission 12643.789451892
scalar OsgEarthNet.uav[21] utilizationSecMaintenance 7903.1449112181
scalar OsgEarthNet.uav[21] utilizationSecCharge 78220
scalar OsgEarthNet.uav[21] utilizationSecIdle 160433.06463689
scalar OsgEarthNet.uav[21] utilizationEnergyMission 61659.881256104
scalar OsgEarthNet.uav[21] utilizationEnergyMaintenance 37791.806568146
scalar OsgEarthNet.uav[21] utilizationEnergyCharge 99098.188476562
scalar OsgEarthNet.uav[21] utilizationEnergyOverdrawMission 0
scalar OsgEarthNet.uav[21] utilizationEnergyOverdrawMaintenance 0
scalar OsgEarthNet.uav[21] utilizationCountMissions 23
scalar OsgEarthNet.uav[21] utilizationCountManeuversMission 432
scalar OsgEarthNet.uav[21] utilizationCountManeuversMaintenance 46
scalar OsgEarthNet.uav[21] utilizationCountChargeState 23
scalar OsgEarthNet.uav[21] utilizationCountOverdrawnAfterMission 0
scalar OsgEarthNet.uav[21] utilizationCountIdleState 24
scalar OsgEarthNet.uav[21] utilizationFail 0
scalar OsgEarthNet.uav[21] simulationTime 259200
scalar OsgEarthNet.uav[22] utilizationSecMission 40768.773481437
scalar OsgEarthNet.uav[22] utilizationSecMaintenance 16669.236142213
scalar OsgEarthNet.uav[22] utilizationSecCharge 196029.98537635
scalar OsgEarthNet.uav[22] utilizationSecIdle 5732.004
scalar OsgEarthNet.uav[22] utilizationEnergyMission 196620.73328781
scalar OsgEarthNet.uav[22] utilizationEnergyMaintenance 76499.728729248
scalar OsgEarthNet.uav[22] utilizationEnergyCharge 269629.48535156
scalar OsgEarthNet.uav[22] utilizationEnergyOverdrawMission 0
scalar OsgEarthNet.uav[22] utilizationEnergyOverdrawMaintenance 0
scalar OsgEarthNet.uav[22] utilizationCountMissions 59
scalar OsgEarthNet.uav[22] utilizationCountManeuversMission 1259
scalar OsgEarthNet.uav[22] utilizationCountManeuversMaintenance 118
scalar OsgEarthNet.uav[22] utilizationCountChargeState 59
scalar OsgEarthNet.uav[22] utilizationCountOverdrawnAfterMission 0
scalar OsgEarthNet.uav[22] utilizationCountIdleState 21
scalar OsgEarthNet.uav[22] utilizationFail 0
scalar OsgEarthNet.uav[22] simulationTime 259200
scalar OsgEarthNet.uav[23] utilizationSecMission 11454.829380183
scalar OsgEarthNet.uav[23] utilizationSecMaintenance 7349.2728935047
scalar OsgEarthNet.uav[23] utilizationSecCharge 66830
scalar OsgEarthNet.uav[23] utilizationSecIdle 173565.89672631
scalar OsgEarthNet.uav[23] utilizationEnergyMission 55264.58351496
scalar OsgEarthNet.uav[23] utilizationEnergyMaintenance 35056.668960571
scalar OsgEarthNet.uav[23] utilizationEnergyCharge 86092.765136719
scalar OsgEarthNet.uav[23] utilizationEnergyOverdrawMission 0
scalar OsgEarthNet.uav[23] utilizationEnergyOverdrawMaintenance 0
scalar OsgEarthNet.uav[23] utilizationCountMissions 19
scalar OsgEarthNet.uav[23] utilizationCountManeuversMission 393
scalar OsgEarthNet.uav[23] utilizationCountManeuversMaintenance 39
scalar OsgEarthNet.uav[23] utilizationCountChargeState 19
scalar OsgEarthNet.uav[23] utilizationCountOverdrawnAfterMission 0
scalar OsgEarthNet.uav[23] utilizationCountIdleState 20
scalar OsgEarthNet.uav[23] utilizationFail 0
scalar OsgEarthNet.uav[23] simulationTime 259200
scalar OsgEarthNet.uav[24] utilizationSecMission 17063.996251754
scalar OsgEarthNet.uav[24] utilizationSecMaintenance 11529.452236243
scalar OsgEarthNet.uav[24] utilizationSecCharge 106202.88233401
scalar OsgEarthNet.uav[24] utilizationSecIdle 124403.66817799
scalar OsgEarthNet.uav[24] utilizationEnergyMission 82490.224239349
scalar OsgEarthNet.uav[24] utilizationEnergyMaintenance 54776.095848083
scalar OsgEarthNet.uav[24] utilizationEnergyCharge 133476.88092041
scalar OsgEarthNet.uav[24] utilizationEnergyOverdrawMission 0
scalar OsgEarthNet.uav[24] utilizationEnergyOverdrawMaintenance 0
scalar OsgEarthNet.uav[24] utilizationCountMissions 33
scalar OsgEarthNet.uav[24] utilizationCountManeuversMission 630
scalar OsgEarthNet.uav[24] utilizationCountManeuversMaintenance 66
scalar OsgEarthNet.uav[24] utilizationCountChargeState 33
scalar OsgEarthNet.uav[24] utilizationCountOverdrawnAfterMission 0
scalar OsgEarthNet.uav[24] utilizationCountIdleState 33
scalar OsgEarthNet.uav[24] utilizationFail 0
scalar OsgEarthNet.uav[24] simulationTime 259200
scalar OsgEarthNet.uav[25] utilizationSecMission 40666.093366037
scalar OsgEarthNet.uav[25] utilizationSecMaintenance 16820.924103922
scalar OsgEarthNet.uav[25] utilizationSecCharge 197503.80641963
scalar OsgEarthNet.uav[25] utilizationSecIdle 4209.1751104107
scalar OsgEarthNet.uav[25] utilizationEnergyMission 197124.29754257
scalar OsgEarthNet.uav[25] utilizationEnergyMaintenance 76494.919681549
scalar OsgEarthNet.uav[25] utilizationEnergyCharge 271685.61279297
scalar OsgEarthNet.uav[25] utilizationEnergyOverdrawMission 0
scalar OsgEarthNet.uav[25] utilizationEnergyOverdrawMaintenance 0
scalar OsgEarthNet.uav[25] utilizationCountMissions 59
scalar OsgEarthNet.uav[25] utilizationCountManeuversMission 1213
scalar OsgEarthNet.uav[25] utilizationCountManeuversMaintenance 118
scalar OsgEarthNet.uav[25] utilizationCountChargeState 59
scalar OsgEarthNet.uav[25] utilizationCountOverdrawnAfterMission 0
scalar OsgEarthNet.uav[25] utilizationCountIdleState 21
scalar OsgEarthNet.uav[25] utilizationFail 0
scalar OsgEarthNet.uav[25] simulationTime 259200
scalar OsgEarthNet.uav[26] utilizationSecMission 13285.626373223
scalar OsgEarthNet.uav[26] utilizationSecMaintenance 8351.8879284167
scalar OsgEarthNet.uav[26] utilizationSecCharge 80460.472698361
scalar OsgEarthNet.uav[26] utilizationSecIdle 157102.012
scalar OsgEarthNet.uav[26] utilizationEnergyMission 65152.974716187
scalar OsgEarthNet.uav[26] utilizationEnergyMaintenance 39532.837879181
scalar OsgEarthNet.uav[26] utilizationEnergyCharge 104425.36621094
scalar OsgEarthNet.uav[26] utilizationEnergyOverdrawMission 0
scalar OsgEarthNet.uav[26] utilizationEnergyOverdrawMaintenance 0
scalar OsgEarthNet.uav[26] utilizationCountMissions 23
scalar OsgEarthNet.uav[26] utilizationCountManeuversMission 430
scalar OsgEarthNet.uav[26] utilizationCountManeuversMaintenance 46
scalar OsgEarthNet.uav[26] utilizationCountChargeState 23
scalar OsgEarthNet.uav[26] utilizationCountOverdrawnAfterMission 0
scalar OsgEarthNet.uav[26] utilizationCountIdleState 23
scalar OsgEarthNet.uav[26] utilizationFail 0
scalar OsgEarthNet.uav[26] simulationTime 259200
scalar OsgEarthNet.uav[27] utilizationSecMission 16201.255220114
scalar OsgEarthNet.uav[27] utilizationSecMaintenance 11595.427378548
scalar OsgEarthNet.uav[27] utilizationSecCharge 106500
scalar OsgEarthNet.uav[27] utilizationSecIdle 124903.31640134
scalar OsgEarthNet.uav[27] utilizationEnergyMission 78877.101196289
scalar OsgEarthNet.uav[27] utilizationEnergyMaintenance 54784.833730841
scalar OsgEarthNet.uav[27] utilizationEnergyCharge 132534.85571289
scalar OsgEarthNet.uav[27] utilizationEnergyOverdrawMission 0
scalar OsgEarthNet.uav[27] utilizationEnergyOverdrawMaintenance 0
scalar OsgEarthNet.uav[27] utilizationCountMissions 34
scalar OsgEarthNet.uav[27] utilizationCountManeuversMission 586
scalar OsgEarthNet.uav[27] utilizationCountManeuversMaintenance 68
scalar OsgEarthNet.uav[27] utilizationCountChargeState 33
scalar OsgEarthNet.uav[27] utilizationCountOverdrawnAfterMission 0
scalar OsgEarthNet.uav[27] utilizationCountIdleState 34
scalar OsgEarthNet.uav[27] utilizationFail 0
scalar OsgEarthNet.uav[27] simulationTime 259200
scalar OsgEarthNet.uav[28] utilizationSecMission 39745.567981724
scalar OsgEarthNet.uav[28] utilizationSecMaintenance 17195.50815503
scalar OsgEarthNet.uav[28] utilizationSecCharge 196939.49751596
scalar OsgEarthNet.uav[28] utilizationSecIdle 5319.4253472904
scalar OsgEarthNet.uav[28] utilizationEnergyMission 193286.73305511
scalar OsgEarthNet.uav[28] utilizationEnergyMaintenance 78980.086917877
scalar OsgEarthNet.uav[28] utilizationEnergyCharge 270938.57666016
scalar OsgEarthNet.uav[28] utilizationEnergyOverdrawMission 0
scalar OsgEarthNet.uav[28] utilizationEnergyOverdrawMaintenance 0
scalar OsgEarthNet.uav[28] utilizationCountMissions 59
scalar OsgEarthNet.uav[28] utilizationCountManeuversMission 1182
scalar OsgEarthNet.uav[28] utilizationCountManeuversMaintenance 118
scalar OsgEarthNet.uav[28] utilizationCountChargeState 59
scalar OsgEarthNet.uav[28] utilizationCountOverdrawnAfterMission 0
scalar OsgEarthNet.uav[28] utilizationCountIdleState 23
scalar OsgEarthNet.uav[28] utilizationFail 0
scalar OsgEarthNet.uav[28] simulationTime 259200
scalar OsgEarthNet.uav[29] utilizationSecMission 15066.251525803
scalar OsgEarthNet.uav[29] utilizationSecMaintenance 9439.9375922524
scalar OsgEarthNet.uav[29] utilizationSecCharge 91770
scalar OsgEarthNet.uav[29] utilizationSecIdle 142923.80988194
scalar OsgEarthNet.uav[29] utilizationEnergyMission 72340.374401093
scalar OsgEarthNet.uav[29] utilizationEnergyMaintenance 44973.114433288
scalar OsgEarthNet.uav[29] utilizationEnergyCharge 118438.85742188
scalar OsgEarthNet.uav[29] utilizationEnergyOverdrawMission 0
scalar OsgEarthNet.uav[29] utilizationEnergyOverdrawMaintenance 0
scalar OsgEarthNet.uav[29] utilizationCountMissions 26
scalar OsgEarthNet.uav[29] utilizationCountManeuversMission 493
scalar OsgEarthNet.uav[29] utilizationCountManeuversMaintenance 52
scalar OsgEarthNet.uav[29] utilizationCountChargeState 26
scalar OsgEarthNet.uav[29] utilizationCountOverdrawnAfterMission 0
scalar OsgEarthNet.uav[29] utilizationCountIdleState 27
scalar OsgEarthNet.uav[29] utilizationFail 0
scalar OsgEarthNet.uav[29] simulationTime 259200
scalar OsgEarthNet.uav[30] utilizationSecMission 11184.376068062
scalar OsgEarthNet.uav[30] utilizationSecMaintenance 7353.3804578986
scalar OsgEarthNet.uav[30] utilizationSecCharge 70260
scalar OsgEarthNet.uav[30] utilizationSecIdle 170402.24247404
scalar OsgEarthNet.uav[30] utilizationEnergyMission 54690.014225006
scalar OsgEarthNet.uav[30] utilizationEnergyMaintenance 35220.411830902
scalar OsgEarthNet.uav[30] utilizationEnergyCharge 90412.92578125
scalar OsgEarthNet.uav[30] utilizationEnergyOverdrawMission 0
scalar OsgEarthNet.uav[30] utilizationEnergyOverdrawMaintenance 0
scalar OsgEarthNet.uav[30] utilizationCountMissions 20
scalar OsgEarthNet.uav[30] utilizationCountManeuversMission 377
scalar OsgEarthNet.uav[30] utilizationCountManeuversMaintenance 40
scalar OsgEarthNet.uav[30] utilizationCountChargeState 20
scalar OsgEarthNet.uav[30] utilizationCountOverdrawnAfterMission 0
scalar OsgEarthNet.uav[30] utilizationCountIdleState 21
scalar OsgEarthNet.uav[30] utilizationFail 0
scalar OsgEarthNet.uav[30] simulationTime 259200
scalar OsgEarthNet.uav[31] utilizationSecMission 14504.40985148
scalar OsgEarthNet.uav[31] utilizationSecMaintenance 10074.20973533
scalar OsgEarthNet.uav[31] utilizationSecCharge 96560
scalar OsgEarthNet.uav[31] utilizationSecIdle 138061.37941319
scalar OsgEarthNet.uav[31] utilizationEnergyMission 70550.697032928
scalar OsgEarthNet.uav[31] utilizationEnergyMaintenance 47409.72346878
scalar OsgEarthNet.uav[31] utilizationEnergyCharge 118110.0300293
scalar OsgEarthNet.uav[31] utilizationEnergyOverdrawMission 0
scalar OsgEarthNet.uav[31] utilizationEnergyOverdrawMaintenance 0
scalar OsgEarthNet.uav[31] utilizationCountMissions 31
scalar OsgEarthNet.uav[31] utilizationCountManeuversMission 456
scalar OsgEarthNet.uav[31] utilizationCountManeuversMaintenance 62
scalar OsgEarthNet.uav[31] utilizationCountChargeState 31
scalar OsgEarthNet.uav[31] utilizationCountOverdrawnAfterMission 0
scalar OsgEarthNet.uav[31] utilizationCountIdleState 32
scalar OsgEarthNet.uav[31] utilizationFail 0
scalar OsgEarthNet.uav[31] simulationTime 259200
scalar OsgEarthNet.uav[32] utilizationSecMission 40092.613706885
scalar OsgEarthNet.uav[32] utilizationSecMaintenance 17333.074065343
scalar OsgEarthNet.uav[32] utilizationSecCharge 197296.86096374
scalar OsgEarthNet.uav[32] utilizationSecIdle 4477.4502640309
scalar OsgEarthNet.uav[32] utilizationEnergyMission 193635.73669052
scalar OsgEarthNet.uav[32] utilizationEnergyMaintenance 80053.819580078
scalar OsgEarthNet.uav[32] utilizationEnergyCharge 269629.40441895
scalar OsgEarthNet.uav[32] utilizationEnergyOverdrawMission 0
scalar OsgEarthNet.uav[32] utilizationEnergyOverdrawMaintenance 0
scalar OsgEarthNet.uav[32] utilizationCountMissions 59
scalar OsgEarthNet.uav[32] utilizationCountManeuversMission 1134
scalar OsgEarthNet.uav[32] utilizationCountManeuversMaintenance 118
scalar OsgEarthNet.uav[32] utilizationCountChargeState 59
scalar OsgEarthNet.uav[32] utilizationCountOverdrawnAfterMission 0
scalar OsgEarthNet.uav[32] utilizationCountIdleState 26
scalar OsgEarthNet.uav[32] utilizationFail 0
scalar OsgEarthNet.uav[32] simulationTime 259200
scalar OsgEarthNet.uav[33] utilizationSecMission 13125.001220642
scalar OsgEarthNet.uav[33] utilizationSecMaintenance 8441.4301217343
scalar OsgEarthNet.uav[33] utilizationSecCharge 78080.801692284
scalar OsgEarthNet.uav[33] utilizationSecIdle 159552.76596534
scalar OsgEarthNet.uav[33] utilizationEnergyMission 65565.918357849
scalar OsgEarthNet.uav[33] utilizationEnergyMaintenance 39997.81463623
scalar OsgEarthNet.uav[33] utilizationEnergyCharge 100956.52392578
scalar OsgEarthNet.uav[33] utilizationEnergyOverdrawMission 0
scalar OsgEarthNet.uav[33] utilizationEnergyOverdrawMaintenance 0
scalar OsgEarthNet.uav[33] utilizationCountMissions 23
scalar OsgEarthNet.uav[33] utilizationCountManeuversMission 448
scalar OsgEarthNet.uav[33] utilizationCountManeuversMaintenance 46
scalar OsgEarthNet.uav[33] utilizationCountChargeState 23
scalar OsgEarthNet.uav[33] utilizationCountOverdrawnAfterMission 0
scalar OsgEarthNet.uav[33] utilizationCountIdleState 23
scalar OsgEarthNet.uav[33] utilizationFail 0
scalar OsgEarthNet.uav[33] simulationTime 259200
scalar OsgEarthNet.uav[34] utilizationSecMission 17119.644279507
scalar OsgEarthNet.uav[34] utilizationSecMaintenance 11378.861935868
scalar OsgEarthNet.uav[34] utilizationSecCharge 110400
scalar OsgEarthNet.uav[34] utilizationSecIdle 120301.49278463
scalar OsgEarthNet.uav[34] utilizationEnergyMission 83447.373950958
scalar OsgEarthNet.uav[34] utilizationEnergyMaintenance 53015.181552887
scalar OsgEarthNet.uav[34] utilizationEnergyCharge 137689.83984375
scalar OsgEarthNet.uav[34] utilizationEnergyOverdrawMission 0
scalar OsgEarthNet.uav[34] utilizationEnergyOverdrawMaintenance 0
scalar OsgEarthNet.uav[34] utilizationCountMissions 34
scalar OsgEarthNet.uav[34] utilizationCountManeuversMission 551
scalar OsgEarthNet.uav[34] utilizationCountManeuversMaintenance 68
scalar OsgEarthNet.uav[34] utilizationCountChargeState 34
scalar OsgEarthNet.uav[34] utilizationCountOverdrawnAfterMission 0
scalar OsgEarthNet.uav[34] utilizationCountIdleState 35
scalar OsgEarthNet.uav[34] utilizationFail 0
scalar OsgEarthNet.uav[34] simulationTime 259200
scalar OsgEarthNet.uav[35] utilizationSecMission 40436.986503539
scalar OsgEarthNet.uav[35] utilizationSecMaintenance 16527.254587891
scalar OsgEarthNet.uav[35] utilizationSecCharge 196006.1268279
scalar OsgEarthNet.uav[35] utilizationSecIdle 6229.6310806652
scalar OsgEarthNet.uav[35] utilizationEnergyMission 193456.13249207
scalar OsgEarthNet.uav[35] utilizationEnergyMaintenance 75751.12587738
scalar OsgEarthNet.uav[35] utilizationEnergyCharge 267113.63012695
scalar OsgEarthNet.uav[35] utilizationEnergyOverdrawMission 0
scalar OsgEarthNet.uav[35] utilizationEnergyOverdrawMaintenance 0
scalar OsgEarthNet.uav[35] utilizationCountMissions 58
scalar OsgEarthNet.uav[35] utilizationCountManeuversMission 1109
scalar OsgEarthNet.uav[35] utilizationCountManeuversMaintenance 116
scalar OsgEarthNet.uav[35] utilizationCountChargeState 58
scalar OsgEarthNet.uav[35] utilizationCountOverdrawnAfterMission 0
scalar OsgEarthNet.uav[35] utilizationCountIdleState 28
scalar OsgEarthNet.uav[35] utilizationFail 0
scalar OsgEarthNet.uav[35] simulationTime 259200
scalar OsgEarthNet.uav[36] utilizationSecMission 17417.868944793
scalar OsgEarthNet.uav[36] utilizationSecMaintenance 10062.588222419
scalar OsgEarthNet.uav[36] utilizationSecCharge 101790
scalar OsgEarthNet.uav[36] utilizationSecIdle 129929.54183279
scalar OsgEarthNet.uav[36] utilizationEnergyMission 84167.955394745
scalar OsgEarthNet.uav[36] utilizationEnergyMaintenance 47204.915168762
scalar OsgEarthNet.uav[36] utilizationEnergyCharge 131131.29638672
scalar OsgEarthNet.uav[36] utilizationEnergyOverdrawMission 0
scalar OsgEarthNet.uav[36] utilizationEnergyOverdrawMaintenance 0
scalar OsgEarthNet.uav[36] utilizationCountMissions 29
scalar OsgEarthNet.uav[36] utilizationCountManeuversMission 537
scalar OsgEarthNet.uav[36] utilizationCountManeuversMaintenance 58
scalar OsgEarthNet.uav[36] utilizationCountChargeState 29
scalar OsgEarthNet.uav[36] utilizationCountOverdrawnAfterMission 0
scalar OsgEarthNet.uav[36] utilizationCountIdleState 30
scalar OsgEarthNet.uav[36] utilizationFail 0
scalar OsgEarthNet.uav[36] simulationTime 259200
scalar OsgEarthNet.uav[37] utilizationSecMission 16271.796341092
scalar OsgEarthNet.uav[37] utilizationSecMaintenance 10833.112330409
scalar OsgEarthNet.uav[37] utilizationSecCharge 103273.0813285
scalar OsgEarthNet.uav[37] utilizationSecIdle 128822.009
scalar OsgEarthNet.uav[37] utilizationEnergyMission 78227.82988739
scalar OsgEarthNet.uav[37] utilizationEnergyMaintenance 51433.58247757
scalar OsgEarthNet.uav[37] utilizationEnergyCharge 130386.44189453
scalar OsgEarthNet.uav[37] utilizationEnergyOverdrawMission 0
scalar OsgEarthNet.uav[37] utilizationEnergyOverdrawMaintenance 0
scalar OsgEarthNet.uav[37] utilizationCountMissions 31
scalar OsgEarthNet.uav[37] utilizationCountManeuversMission 577
scalar OsgEarthNet.uav[37] utilizationCountManeuversMaintenance 62
scalar OsgEarthNet.uav[37] utilizationCountChargeState 31
scalar OsgEarthNet.uav[37] utilizationCountOverdrawnAfterMission 0
scalar OsgEarthNet.uav[37] utilizationCountIdleState 31
scalar OsgEarthNet.uav[37] utilizationFail 0
scalar OsgEarthNet.uav[37] simulationTime 259200
scalar OsgEarthNet.uav[38] utilizationSecMission 39784.234900246
scalar OsgEarthNet.uav[38] utilizationSecMaintenance 17794.180908799
scalar OsgEarthNet.uav[38] utilizationSecCharge 197399.58219096
scalar OsgEarthNet.uav[38] utilizationSecIdle 4222.001
scalar OsgEarthNet.uav[38] utilizationEnergyMission 193922.18089294
scalar OsgEarthNet.uav[38] utilizationEnergyMaintenance 81895.790664673
scalar OsgEarthNet.uav[38] utilizationEnergyCharge 270762.81951904
scalar OsgEarthNet.uav[38] utilizationEnergyOverdrawMission 0
scalar OsgEarthNet.uav[38] utilizationEnergyOverdrawMaintenance 0
scalar OsgEarthNet.uav[38] utilizationCountMissions 60
scalar OsgEarthNet.uav[38] utilizationCountManeuversMission 1284
scalar OsgEarthNet.uav[38] utilizationCountManeuversMaintenance 120
scalar OsgEarthNet.uav[38] utilizationCountChargeState 60
scalar OsgEarthNet.uav[38] utilizationCountOverdrawnAfterMission 0
scalar OsgEarthNet.uav[38] utilizationCountIdleState 20
scalar OsgEarthNet.uav[38] utilizationFail 0
scalar OsgEarthNet.uav[38] simulationTime 259200
scalar OsgEarthNet.uav[39] utilizationSecMission 11884.376068062
scalar OsgEarthNet.uav[39] utilizationSecMaintenance 7790.7808642058
scalar OsgEarthNet.uav[39] utilizationSecCharge 70322.819067732
scalar OsgEarthNet.uav[39] utilizationSecIdle 169202.023
scalar OsgEarthNet.uav[39] utilizationEnergyMission 56875.181221008
scalar OsgEarthNet.uav[39] utilizationEnergyMaintenance 36907.038936615
scalar OsgEarthNet.uav[39] utilizationEnergyCharge 90699.856262207
scalar OsgEarthNet.uav[39] utilizationEnergyOverdrawMission 0
scalar OsgEarthNet.uav[39] utilizationEnergyOverdrawMaintenance 0
scalar OsgEarthNet.uav[39] utilizationCountMissions 21
scalar OsgEarthNet.uav[39] utilizationCountManeuversMission 412
scalar OsgEarthNet.uav[39] utilizationCountManeuversMaintenance 42
scalar OsgEarthNet.uav[39] utilizationCountChargeState 21
scalar OsgEarthNet.uav[39] utilizationCountOverdrawnAfterMission 0
scalar OsgEarthNet.uav[39] utilizationCountIdleState 21
scalar OsgEarthNet.uav[39] utilizationFail 0
scalar OsgEarthNet.uav[39] simulationTime 259200
scalar OsgEarthNet.uav[40] utilizationSecMission 40893.66108917
scalar OsgEarthNet.uav[40] utilizationSecMaintenance 17002.470098621
scalar OsgEarthNet.uav[40] utilizationSecCharge 198561.86781221
scalar OsgEarthNet.uav[40] utilizationSecIdle 2742
scalar OsgEarthNet.uav[40] utilizationEnergyMission 194919.84142303
scalar OsgEarthNet.uav[40] utilizationEnergyMaintenance 78040.658035278
scalar OsgEarthNet.uav[40] utilizationEnergyCharge 274585.91503906
scalar OsgEarthNet.uav[40] utilizationEnergyOverdrawMission 0
scalar OsgEarthNet.uav[40] utilizationEnergyOverdrawMaintenance 0
scalar OsgEarthNet.uav[40] utilizationCountMissions 60
scalar OsgEarthNet.uav[40] utilizationCountManeuversMission 1203
scalar OsgEarthNet.uav[40] utilizationCountManeuversMaintenance 119
scalar OsgEarthNet.uav[40] utilizationCountChargeState 60
scalar OsgEarthNet.uav[40] utilizationCountOverdrawnAfterMission 0
scalar OsgEarthNet.uav[40] utilizationCountIdleState 17
scalar OsgEarthNet.uav[40] utilizationFail 0
scalar OsgEarthNet.uav[40] simulationTime 259200
scalar OsgEarthNet.uav[41] utilizationSecMission 15984.698322126
scalar OsgEarthNet.uav[41] utilizationSecMaintenance 11459.996185523
scalar OsgEarthNet.uav[41] utilizationSecCharge 106760
scalar OsgEarthNet.uav[41] utilizationSecIdle 124995.30449235
scalar OsgEarthNet.uav[41] utilizationEnergyMission 80401.01864624
scalar OsgEarthNet.uav[41] utilizationEnergyMaintenance 54003.877147675
scalar OsgEarthNet.uav[41] utilizationEnergyCharge 134409.47314453
scalar OsgEarthNet.uav[41] utilizationEnergyOverdrawMission 0
scalar OsgEarthNet.uav[41] utilizationEnergyOverdrawMaintenance 0
scalar OsgEarthNet.uav[41] utilizationCountMissions 32
scalar OsgEarthNet.uav[41] utilizationCountManeuversMission 628
scalar OsgEarthNet.uav[41] utilizationCountManeuversMaintenance 64
scalar OsgEarthNet.uav[41] utilizationCountChargeState 32
scalar OsgEarthNet.uav[41] utilizationCountOverdrawnAfterMission 0
scalar OsgEarthNet.uav[41] utilizationCountIdleState 33
scalar OsgEarthNet.uav[41] utilizationFail 0
scalar OsgEarthNet.uav[41] simulationTime 259200
scalar OsgEarthNet.uav[42] utilizationSecMission 39484.497490126
scalar OsgEarthNet.uav[42] utilizationSecMaintenance 17486.876205019
scalar OsgEarthNet.uav[42] utilizationSecCharge 197036.62130486
scalar OsgEarthNet.uav[42] utilizationSecIdle 5192.004
scalar OsgEarthNet.uav[42] utilizationEnergyMission 191533.87766647
scalar OsgEarthNet.uav[42] utilizationEnergyMaintenance 80035.122821808
scalar OsgEarthNet.uav[42] utilizationEnergyCharge 271519.23974609
scalar OsgEarthNet.uav[42] utilizationEnergyOverdrawMission 0
scalar OsgEarthNet.uav[42] utilizationEnergyOverdrawMaintenance 0
scalar OsgEarthNet.uav[42] utilizationCountMissions 59
scalar OsgEarthNet.uav[42] utilizationCountManeuversMission 1216
scalar OsgEarthNet.uav[42] utilizationCountManeuversMaintenance 118
scalar OsgEarthNet.uav[42] utilizationCountChargeState 59
scalar OsgEarthNet.uav[42] utilizationCountOverdrawnAfterMission 0
scalar OsgEarthNet.uav[42] utilizationCountIdleState 16
scalar OsgEarthNet.uav[42] utilizationFail 0
scalar OsgEarthNet.uav[42] simulationTime 259200
scalar OsgEarthNet.uav[43] utilizationSecMission 14786.876678383
scalar OsgEarthNet.uav[43] utilizationSecMaintenance 8601.1113216169
scalar OsgEarthNet.uav[43] utilizationSecCharge 84690
scalar OsgEarthNet.uav[43] utilizationSecIdle 151122.011
scalar OsgEarthNet.uav[43] utilizationEnergyMission 70982.192691803
scalar OsgEarthNet.uav[43] utilizationEnergyMaintenance 40730.082465235
scalar OsgEarthNet.uav[43] utilizationEnergyCharge 109203.66894531
scalar OsgEarthNet.uav[43] utilizationEnergyOverdrawMission 0
scalar OsgEarthNet.uav[43] utilizationEnergyOverdrawMaintenance 0
scalar OsgEarthNet.uav[43] utilizationCountMissions 25
scalar OsgEarthNet.uav[43] utilizationCountManeuversMission 453
scalar OsgEarthNet.uav[43] utilizationCountManeuversMaintenance 50
scalar OsgEarthNet.uav[43] utilizationCountChargeState 24
scalar OsgEarthNet.uav[43] utilizationCountOverdrawnAfterMission 0
scalar OsgEarthNet.uav[43] utilizationCountIdleState 25
scalar OsgEarthNet.uav[43] utilizationFail 0
scalar OsgEarthNet.uav[43] simulationTime 259200
scalar OsgEarthNet.uav[44] utilizationSecMission 17298.30738861
scalar OsgEarthNet.uav[44] utilizationSecMaintenance 12580.680561862
scalar OsgEarthNet.uav[44] utilizationSecCharge 115229.00804953
scalar OsgEarthNet.uav[44] utilizationSecIdle 114092.003
scalar OsgEarthNet.uav[44] utilizationEnergyMission 85285.833095551
scalar OsgEarthNet.uav[44] utilizationEnergyMaintenance 59811.213119507
scalar OsgEarthNet.uav[44] utilizationEnergyCharge 144181.95849609
scalar OsgEarthNet.uav[44] utilizationEnergyOverdrawMission 0
scalar OsgEarthNet.uav[44] utilizationEnergyOverdrawMaintenance 0
scalar OsgEarthNet.uav[44] utilizationCountMissions 36
scalar OsgEarthNet.uav[44] utilizationCountManeuversMission 663
scalar OsgEarthNet.uav[44] utilizationCountManeuversMaintenance 72
scalar OsgEarthNet.uav[44] utilizationCountChargeState 36
scalar OsgEarthNet.uav[44] utilizationCountOverdrawnAfterMission 0
scalar OsgEarthNet.uav[44] utilizationCountIdleState 36
scalar OsgEarthNet.uav[44] utilizationFail 0
scalar OsgEarthNet.uav[44] simulationTime 259200
scalar OsgEarthNet.uav[45] utilizationSecMission 40641.563969198
scalar OsgEarthNet.uav[45] utilizationSecMaintenance 16526.432030802
scalar OsgEarthNet.uav[45] utilizationSecCharge 196390
scalar OsgEarthNet.uav[45] utilizationSecIdle 5642.003
scalar OsgEarthNet.uav[45] utilizationEnergyMission 193483.71935827
scalar OsgEarthNet.uav[45] utilizationEnergyMaintenance 75490.640464783
scalar OsgEarthNet.uav[45] utilizationEnergyCharge 267096.66357422
scalar OsgEarthNet.uav[45] utilizationEnergyOverdrawMission 0
scalar OsgEarthNet.uav[45] utilizationEnergyOverdrawMaintenance 0
scalar OsgEarthNet.uav[45] utilizationCountMissions 58
scalar OsgEarthNet.uav[45] utilizationCountManeuversMission 1035
scalar OsgEarthNet.uav[45] utilizationCountManeuversMaintenance 117
scalar OsgEarthNet.uav[45] utilizationCountChargeState 58
scalar OsgEarthNet.uav[45] utilizationCountOverdrawnAfterMission 0
scalar OsgEarthNet.uav[45] utilizationCountIdleState 24
scalar OsgEarthNet.uav[45] utilizationFail 0
scalar OsgEarthNet.uav[45] simulationTime 259200
scalar OsgEarthNet.uav[46] utilizationSecMission 14556.509564553
scalar OsgEarthNet.uav[46] utilizationSecMaintenance 9134.1485095829
scalar OsgEarthNet.uav[46] utilizationSecCharge 88890
scalar OsgEarthNet.uav[46] utilizationSecIdle 146619.34092586
scalar OsgEarthNet.uav[46] utilizationEnergyMission 71335.0378685
scalar OsgEarthNet.uav[46] utilizationEnergyMaintenance 43363.237804413
scalar OsgEarthNet.uav[46] utilizationEnergyCharge 115004.03613281
scalar OsgEarthNet.uav[46] utilizationEnergyOverdrawMission 0
scalar OsgEarthNet.uav[46] utilizationEnergyOverdrawMaintenance 0
scalar OsgEarthNet.uav[46] utilizationCountMissions 25
scalar OsgEarthNet.uav[46] utilizationCountManeuversMission 463
scalar OsgEarthNet.uav[46] utilizationCountManeuversMaintenance 50
scalar OsgEarthNet.uav[46] utilizationCountChargeState 25
scalar OsgEarthNet.uav[46] utilizationCountOverdrawnAfterMission 0
scalar OsgEarthNet.uav[46] utilizationCountIdleState 26
scalar OsgEarthNet.uav[46] utilizationFail 0
scalar OsgEarthNet.uav[46] simulationTime 259200
scalar OsgEarthNet.uav[47] utilizationSecMission 17953.19966798
scalar OsgEarthNet.uav[47] utilizationSecMaintenance 12574.78533202
scalar OsgEarthNet.uav[47] utilizationSecCharge 117210
scalar OsgEarthNet.uav[47] utilizationSecIdle 111462.014
scalar OsgEarthNet.uav[47] utilizationEnergyMission 87649.050885932
scalar OsgEarthNet.uav[47] utilizationEnergyMaintenance 59241.871883392
scalar OsgEarthNet.uav[47] utilizationEnergyCharge 144398.65576172
scalar OsgEarthNet.uav[47] utilizationEnergyOverdrawMission 0
scalar OsgEarthNet.uav[47] utilizationEnergyOverdrawMaintenance 0
scalar OsgEarthNet.uav[47] utilizationCountMissions 37
scalar OsgEarthNet.uav[47] utilizationCountManeuversMission 614
scalar OsgEarthNet.uav[47] utilizationCountManeuversMaintenance 75
scalar OsgEarthNet.uav[47] utilizationCountChargeState 37
scalar OsgEarthNet.uav[47] utilizationCountOverdrawnAfterMission 0
scalar OsgEarthNet.uav[47] utilizationCountIdleState 38
scalar OsgEarthNet.uav[47] utilizationFail 0
scalar OsgEarthNet.uav[47] simulationTime 259200
scalar OsgEarthNet.uav[48] utilizationSecMission 40848.289055102
scalar OsgEarthNet.uav[48] utilizationSecMaintenance 16253.428125774
scalar OsgEarthNet.uav[48] utilizationSecCharge 198206.28181912
scalar OsgEarthNet.uav[48] utilizationSecIdle 3892
scalar OsgEarthNet.uav[48] utilizationEnergyMission 194485.71285188
scalar OsgEarthNet.uav[48] utilizationEnergyMaintenance 74597.137332916
scalar OsgEarthNet.uav[48] utilizationEnergyCharge 270858.30761719
scalar OsgEarthNet.uav[48] utilizationEnergyOverdrawMission 0
scalar OsgEarthNet.uav[48] utilizationEnergyOverdrawMaintenance 0
scalar OsgEarthNet.uav[48] utilizationCountMissions 59
scalar OsgEarthNet.uav[48] utilizationCountManeuversMission 1201
scalar OsgEarthNet.uav[48] utilizationCountManeuversMaintenance 117
scalar OsgEarthNet.uav[48] utilizationCountChargeState 59
scalar OsgEarthNet.uav[48] utilizationCountOverdrawnAfterMission 0
scalar OsgEarthNet.uav[48] utilizationCountIdleState 24
scalar OsgEarthNet.uav[48] utilizationFail 0
scalar OsgEarthNet.uav[48] simulationTime 259200
scalar OsgEarthNet.uav[49] utilizationSecMission 12103.750915482
scalar OsgEarthNet.uav[49] utilizationSecMaintenance 8502.4894283112
scalar OsgEarthNet.uav[49] utilizationSecCharge 77710
scalar OsgEarthNet.uav[49] utilizationSecIdle 160883.75865621
scalar OsgEarthNet.uav[49] utilizationEnergyMission 59403.645160675
scalar OsgEarthNet.uav[49] utilizationEnergyMaintenance 40524.395709991
scalar OsgEarthNet.uav[49] utilizationEnergyCharge 100115.60791016
scalar OsgEarthNet.uav[49] utilizationEnergyOverdrawMission 0
scalar OsgEarthNet.uav[49] utilizationEnergyOverdrawMaintenance 0
scalar OsgEarthNet.uav[49] utilizationCountMissions 22
scalar OsgEarthNet.uav[49] utilizationCountManeuversMission 449
scalar OsgEarthNet.uav[49] utilizationCountManeuversMaintenance 44
scalar OsgEarthNet.uav[49] utilizationCountChargeState 22
scalar OsgEarthNet.uav[49] utilizationCountOverdrawnAfterMission 0
scalar OsgEarthNet.uav[49] utilizationCountIdleState 23
scalar OsgEarthNet.uav[49] utilizationFail 0
scalar OsgEarthNet.uav[49] simulationTime 259200
scalar OsgEarthNet.uav[50] utilizationSecMission 13765.626373223
scalar OsgEarthNet.uav[50] utilizationSecMaintenance 8711.9523332973
scalar OsgEarthNet.uav[50] utilizationSecCharge 82530.41129348
scalar OsgEarthNet.uav[50] utilizationSecIdle 154192.009
scalar OsgEarthNet.uav[50] utilizationEnergyMission 66980.603263855
scalar OsgEarthNet.uav[50] utilizationEnergyMaintenance 41637.269500732
scalar OsgEarthNet.uav[50] utilizationEnergyCharge 107296.61083984
scalar OsgEarthNet.uav[50] utilizationEnergyOverdrawMission 0
scalar OsgEarthNet.uav[50] utilizationEnergyOverdrawMaintenance 0
scalar OsgEarthNet.uav[50] utilizationCountMissions 24
scalar OsgEarthNet.uav[50] utilizationCountManeuversMission 454
scalar OsgEarthNet.uav[50] utilizationCountManeuversMaintenance 48
scalar OsgEarthNet.uav[50] utilizationCountChargeState 24
scalar OsgEarthNet.uav[50] utilizationCountOverdrawnAfterMission 0
scalar OsgEarthNet.uav[50] utilizationCountIdleState 24
scalar OsgEarthNet.uav[50] utilizationFail 0
scalar OsgEarthNet.uav[50] simulationTime 259200
scalar OsgEarthNet.uav[51] utilizationSecMission 16573.253345991
scalar OsgEarthNet.uav[51] utilizationSecMaintenance 11322.400224191
scalar OsgEarthNet.uav[51] utilizationSecCharge 108556.34360359
scalar OsgEarthNet.uav[51] utilizationSecIdle 122748.00182623
scalar OsgEarthNet.uav[51] utilizationEnergyMission 81430.289978027
scalar OsgEarthNet.uav[51] utilizationEnergyMaintenance 54105.002609253
scalar OsgEarthNet.uav[51] utilizationEnergyCharge 133334.80273438
scalar OsgEarthNet.uav[51] utilizationEnergyOverdrawMission 0
scalar OsgEarthNet.uav[51] utilizationEnergyOverdrawMaintenance 0
scalar OsgEarthNet.uav[51] utilizationCountMissions 35
scalar OsgEarthNet.uav[51] utilizationCountManeuversMission 493
scalar OsgEarthNet.uav[51] utilizationCountManeuversMaintenance 70
scalar OsgEarthNet.uav[51] utilizationCountChargeState 35
scalar OsgEarthNet.uav[51] utilizationCountOverdrawnAfterMission 0
scalar OsgEarthNet.uav[51] utilizationCountIdleState 35
scalar OsgEarthNet.uav[51] utilizationFail 0
scalar OsgEarthNet.uav[51] simulationTime 259200
scalar OsgEarthNet.uav[52] utilizationSecMission 41376.919173388
scalar OsgEarthNet.uav[52] utilizationSecMaintenance 16349.55449538
scalar OsgEarthNet.uav[52] utilizationSecCharge 195080
scalar OsgEarthNet.uav[52] utilizationSecIdle 6393.5253312322
scalar OsgEarthNet.uav[52] utilizationEnergyMission 200184.60173035
scalar OsgEarthNet.uav[52] utilizationEnergyMaintenance 74715.312037568
scalar OsgEarthNet.uav[52] utilizationEnergyCharge 268247.54785156
scalar OsgEarthNet.uav[52] utilizationEnergyOverdrawMission 0
scalar OsgEarthNet.uav[52] utilizationEnergyOverdrawMaintenance 0
scalar OsgEarthNet.uav[52] utilizationCountMissions 58
scalar OsgEarthNet.uav[52] utilizationCountManeuversMission 1144
scalar OsgEarthNet.uav[52] utilizationCountManeuversMaintenance 117
scalar OsgEarthNet.uav[52] utilizationCountChargeState 58
scalar OsgEarthNet.uav[52] utilizationCountOverdrawnAfterMission 0
scalar OsgEarthNet.uav[52] utilizationCountIdleState 18
scalar OsgEarthNet.uav[52] utilizationFail 0
scalar OsgEarthNet.uav[52] simulationTime 259200
scalar OsgEarthNet.uav[53] utilizationSecMission 12933.492876731
scalar OsgEarthNet.uav[53] utilizationSecMaintenance 9420.413561226
scalar OsgEarthNet.uav[53] utilizationSecCharge 83674.086562043
scalar OsgEarthNet.uav[53] utilizationSecIdle 153172.006
scalar OsgEarthNet.uav[53] utilizationEnergyMission 63891.626617432
scalar OsgEarthNet.uav[53] utilizationEnergyMaintenance 45218.977111816
scalar OsgEarthNet.uav[53] utilizationEnergyCharge 109149.29980469
scalar OsgEarthNet.uav[53] utilizationEnergyOverdrawMission 0
scalar OsgEarthNet.uav[53] utilizationEnergyOverdrawMaintenance 0
scalar OsgEarthNet.uav[53] utilizationCountMissions 24
scalar OsgEarthNet.uav[53] utilizationCountManeuversMission 495
scalar OsgEarthNet.uav[53] utilizationCountManeuversMaintenance 48
scalar OsgEarthNet.uav[53] utilizationCountChargeState 24
scalar OsgEarthNet.uav[53] utilizationCountOverdrawnAfterMission 0
scalar OsgEarthNet.uav[53] utilizationCountIdleState 24
scalar OsgEarthNet.uav[53] utilizationFail 0
scalar OsgEarthNet.uav[53] simulationTime 259200
scalar OsgEarthNet.uav[54] utilizationSecMission 19835.705906985
scalar OsgEarthNet.uav[54] utilizationSecMaintenance 13714.445289502
scalar OsgEarthNet.uav[54] utilizationSecCharge 133290
scalar OsgEarthNet.uav[54] utilizationSecIdle 92359.847803513
scalar OsgEarthNet.uav[54] utilizationEnergyMission 96983.878684998
scalar OsgEarthNet.uav[54] utilizationEnergyMaintenance 66506.891799927
scalar OsgEarthNet.uav[54] utilizationEnergyCharge 162669.27587891
scalar OsgEarthNet.uav[54] utilizationEnergyOverdrawMission 0
scalar OsgEarthNet.uav[54] utilizationEnergyOverdrawMaintenance 0
scalar OsgEarthNet.uav[54] utilizationCountMissions 43
scalar OsgEarthNet.uav[54] utilizationCountManeuversMission 559
scalar OsgEarthNet.uav[54] utilizationCountManeuversMaintenance 86
scalar OsgEarthNet.uav[54] utilizationCountChargeState 43
scalar OsgEarthNet.uav[54] utilizationCountOverdrawnAfterMission 0
scalar OsgEarthNet.uav[54] utilizationCountIdleState 44
scalar OsgEarthNet.uav[54] utilizationFail 0
scalar OsgEarthNet.uav[54] simulationTime 259200
scalar OsgEarthNet.uav[55] utilizationSecMission 38901.797014733
scalar OsgEarthNet.uav[55] utilizationSecMaintenance 17395.883350541
scalar OsgEarthNet.uav[55] utilizationSecCharge 196376.86298118
scalar OsgEarthNet.uav[55] utilizationSecIdle 6525.4556535415
scalar OsgEarthNet.uav[55] utilizationEnergyMission 187758.2520256
scalar OsgEarthNet.uav[55] utilizationEnergyMaintenance 80068.909412384
scalar OsgEarthNet.uav[55] utilizationEnergyCharge 268282.81396484
scalar OsgEarthNet.uav[55] utilizationEnergyOverdrawMission 0
scalar OsgEarthNet.uav[55] utilizationEnergyOverdrawMaintenance 0
scalar OsgEarthNet.uav[55] utilizationCountMissions 58
scalar OsgEarthNet.uav[55] utilizationCountManeuversMission 1210
scalar OsgEarthNet.uav[55] utilizationCountManeuversMaintenance 116
scalar OsgEarthNet.uav[55] utilizationCountChargeState 58
scalar OsgEarthNet.uav[55] utilizationCountOverdrawnAfterMission 0
scalar OsgEarthNet.uav[55] utilizationCountIdleState 29
scalar OsgEarthNet.uav[55] utilizationFail 0
scalar OsgEarthNet.uav[55] simulationTime 259200
scalar OsgEarthNet.uav[56] utilizationSecMission 12183.125762901
scalar OsgEarthNet.uav[56] utilizationSecMaintenance 9106.7680293627
scalar OsgEarthNet.uav[56] utilizationSecCharge 80020
scalar OsgEarthNet.uav[56] utilizationSecIdle 157890.10520774
scalar OsgEarthNet.uav[56] utilizationEnergyMission 62358.13451004
scalar OsgEarthNet.uav[56] utilizationEnergyMaintenance 42991.270954132
scalar OsgEarthNet.uav[56] utilizationEnergyCharge 102601.90332031
scalar OsgEarthNet.uav[56] utilizationEnergyOverdrawMission 0
scalar OsgEarthNet.uav[56] utilizationEnergyOverdrawMaintenance 0
scalar OsgEarthNet.uav[56] utilizationCountMissions 23
scalar OsgEarthNet.uav[56] utilizationCountManeuversMission 479
scalar OsgEarthNet.uav[56] utilizationCountManeuversMaintenance 46
scalar OsgEarthNet.uav[56] utilizationCountChargeState 23
scalar OsgEarthNet.uav[56] utilizationCountOverdrawnAfterMission 0
scalar OsgEarthNet.uav[56] utilizationCountIdleState 24
scalar OsgEarthNet.uav[56] utilizationFail 0
scalar OsgEarthNet.uav[56] simulationTime 259200
scalar OsgEarthNet.uav[57] utilizationSecMission 24088.199303372
scalar OsgEarthNet.uav[57] utilizationSecMaintenance 16010.290398433
scalar OsgEarthNet.uav[57] utilizationSecCharge 154100.54531252
scalar OsgEarthNet.uav[57] utilizationSecIdle 65000.963985674
scalar OsgEarthNet.uav[57] utilizationEnergyMission 116842.76180267
scalar OsgEarthNet.uav[57] utilizationEnergyMaintenance 76072.900566101
scalar OsgEarthNet.uav[57] utilizationEnergyCharge 191157.46325684
scalar OsgEarthNet.uav[57] utilizationEnergyOverdrawMission 0
scalar OsgEarthNet.uav[57] utilizationEnergyOverdrawMaintenance 0
scalar OsgEarthNet.uav[57] utilizationCountMissions 49
scalar OsgEarthNet.uav[57] utilizationCountManeuversMission 735
scalar OsgEarthNet.uav[57] utilizationCountManeuversMaintenance 98
scalar OsgEarthNet.uav[57] utilizationCountChargeState 49
scalar OsgEarthNet.uav[57] utilizationCountOverdrawnAfterMission 0
scalar OsgEarthNet.uav[57] utilizationCountIdleState 49
scalar OsgEarthNet.uav[57] utilizationFail 0
scalar OsgEarthNet.uav[57] simulationTime 259200
scalar OsgEarthNet.uav[58] utilizationSecMission 39637.73117617
scalar OsgEarthNet.uav[58] utilizationSecMaintenance 16537.892522554
scalar OsgEarthNet.uav[58] utilizationSecCharge 195954.33275386
scalar OsgEarthNet.uav[58] utilizationSecIdle 7070.0425474148
scalar OsgEarthNet.uav[58] utilizationEnergyMission 191491.57897568
scalar OsgEarthNet.uav[58] utilizationEnergyMaintenance 76516.192085266
scalar OsgEarthNet.uav[58] utilizationEnergyCharge 268051.19921875
scalar OsgEarthNet.uav[58] utilizationEnergyOverdrawMission 0
scalar OsgEarthNet.uav[58] utilizationEnergyOverdrawMaintenance 0
scalar OsgEarthNet.uav[58] utilizationCountMissions 58
scalar OsgEarthNet.uav[58] utilizationCountManeuversMission 1215
scalar OsgEarthNet.uav[58] utilizationCountManeuversMaintenance 116
scalar OsgEarthNet.uav[58] utilizationCountChargeState 58
scalar OsgEarthNet.uav[58] utilizationCountOverdrawnAfterMission 0
scalar OsgEarthNet.uav[58] utilizationCountIdleState 19
scalar OsgEarthNet.uav[58] utilizationFail 0
scalar OsgEarthNet.uav[58] simulationTime 259200
scalar OsgEarthNet.uav[59] utilizationSecMission 14436.509564553
scalar OsgEarthNet.uav[59] utilizationSecMaintenance 8599.3494607642
scalar OsgEarthNet.uav[59] utilizationSecCharge 81772.118974682
scalar OsgEarthNet.uav[59] utilizationSecIdle 154392.021
scalar OsgEarthNet.uav[59] utilizationEnergyMission 70026.719631195
scalar OsgEarthNet.uav[59] utilizationEnergyMaintenance 40725.057678223
scalar OsgEarthNet.uav[59] utilizationEnergyCharge 105721.93701172
scalar OsgEarthNet.uav[59] utilizationEnergyOverdrawMission 0
scalar OsgEarthNet.uav[59] utilizationEnergyOverdrawMaintenance 0
scalar OsgEarthNet.uav[59] utilizationCountMissions 24
scalar OsgEarthNet.uav[59] utilizationCountManeuversMission 457
scalar OsgEarthNet.uav[59] utilizationCountManeuversMaintenance 48
scalar OsgEarthNet.uav[59] utilizationCountChargeState 24
scalar OsgEarthNet.uav[59] utilizationCountOverdrawnAfterMission 0
scalar OsgEarthNet.uav[59] utilizationCountIdleState 24
scalar OsgEarthNet.uav[59] utilizationFail 0
scalar OsgEarthNet.uav[59] simulationTime 259200
scalar OsgEarthNet.uav[60] utilizationSecMission 15025.626373223
scalar OsgEarthNet.uav[60] utilizationSecMaintenance 10054.247513846
scalar OsgEarthNet.uav[60] utilizationSecCharge 94810
scalar OsgEarthNet.uav[60] utilizationSecIdle 139310.12511293
scalar OsgEarthNet.uav[60] utilizationEnergyMission 73792.701339722
scalar OsgEarthNet.uav[60] utilizationEnergyMaintenance 47568.417758942
scalar OsgEarthNet.uav[60] utilizationEnergyCharge 121959.10107422
scalar OsgEarthNet.uav[60] utilizationEnergyOverdrawMission 0
scalar OsgEarthNet.uav[60] utilizationEnergyOverdrawMaintenance 0
scalar OsgEarthNet.uav[60] utilizationCountMissions 27
scalar OsgEarthNet.uav[60] utilizationCountManeuversMission 517
scalar OsgEarthNet.uav[60] utilizationCountManeuversMaintenance 54
scalar OsgEarthNet.uav[60] utilizationCountChargeState 27
scalar OsgEarthNet.uav[60] utilizationCountOverdrawnAfterMission 0
scalar OsgEarthNet.uav[60] utilizationCountIdleState 28
scalar OsgEarthNet.uav[60] utilizationFail 0
scalar OsgEarthNet.uav[60] simulationTime 259200
scalar OsgEarthNet.uav[61] utilizationSecMission 24265.044672005
scalar OsgEarthNet.uav[61] utilizationSecMaintenance 16432.555780332
scalar OsgEarthNet.uav[61] utilizationSecCharge 157277.78665815
scalar OsgEarthNet.uav[61] utilizationSecIdle 61224.611889516
scalar OsgEarthNet.uav[61] utilizationEnergyMission 119026.14395523
scalar OsgEarthNet.uav[61] utilizationEnergyMaintenance 77148.981132507
scalar OsgEarthNet.uav[61] utilizationEnergyCharge 195967.26513672
scalar OsgEarthNet.uav[61] utilizationEnergyOverdrawMission 0
scalar OsgEarthNet.uav[61] utilizationEnergyOverdrawMaintenance 0
scalar OsgEarthNet.uav[61] utilizationCountMissions 49
scalar OsgEarthNet.uav[61] utilizationCountManeuversMission 789
scalar OsgEarthNet.uav[61] utilizationCountManeuversMaintenance 98
scalar OsgEarthNet.uav[61] utilizationCountChargeState 49
scalar OsgEarthNet.uav[61] utilizationCountOverdrawnAfterMission 0
scalar OsgEarthNet.uav[61] utilizationCountIdleState 49
scalar OsgEarthNet.uav[61] utilizationFail 0
scalar OsgEarthNet.uav[61] simulationTime 259200
scalar OsgEarthNet.uav[62] utilizationSecMission 40545.626472018
scalar OsgEarthNet.uav[62] utilizationSecMaintenance 16433.672086339
scalar OsgEarthNet.uav[62] utilizationSecCharge 195530
scalar OsgEarthNet.uav[62] utilizationSecIdle 6690.7004416429
scalar OsgEarthNet.uav[62] utilizationEnergyMission 195773.10814486
scalar OsgEarthNet.uav[62] utilizationEnergyMaintenance 75619.422447205
scalar OsgEarthNet.uav[62] utilizationEnergyCharge 267423.01367188
scalar OsgEarthNet.uav[62] utilizationEnergyOverdrawMission 0
scalar OsgEarthNet.uav[62] utilizationEnergyOverdrawMaintenance 0
scalar OsgEarthNet.uav[62] utilizationCountMissions 58
scalar OsgEarthNet.uav[62] utilizationCountManeuversMission 1236
scalar OsgEarthNet.uav[62] utilizationCountManeuversMaintenance 117
scalar OsgEarthNet.uav[62] utilizationCountChargeState 58
scalar OsgEarthNet.uav[62] utilizationCountOverdrawnAfterMission 0
scalar OsgEarthNet.uav[62] utilizationCountIdleState 23
scalar OsgEarthNet.uav[62] utilizationFail 0
scalar OsgEarthNet.uav[62] simulationTime 259200
scalar OsgEarthNet.uav[63] utilizationSecMission 16266.876678383
scalar OsgEarthNet.uav[63] utilizationSecMaintenance 9993.1882072694
scalar OsgEarthNet.uav[63] utilizationSecCharge 97940
scalar OsgEarthNet.uav[63] utilizationSecIdle 134999.93411435
scalar OsgEarthNet.uav[63] utilizationEnergyMission 77434.804981232
scalar OsgEarthNet.uav[63] utilizationEnergyMaintenance 47478.402542114
scalar OsgEarthNet.uav[63] utilizationEnergyCharge 125862.5
scalar OsgEarthNet.uav[63] utilizationEnergyOverdrawMission 0
scalar OsgEarthNet.uav[63] utilizationEnergyOverdrawMaintenance 0
scalar OsgEarthNet.uav[63] utilizationCountMissions 28
scalar OsgEarthNet.uav[63] utilizationCountManeuversMission 527
scalar OsgEarthNet.uav[63] utilizationCountManeuversMaintenance 56
scalar OsgEarthNet.uav[63] utilizationCountChargeState 28
scalar OsgEarthNet.uav[63] utilizationCountOverdrawnAfterMission 0
scalar OsgEarthNet.uav[63] utilizationCountIdleState 29
scalar OsgEarthNet.uav[63] utilizationFail 0
scalar OsgEarthNet.uav[63] simulationTime 259200
scalar OsgEarthNet.uav[64] utilizationSecMission 18976.696448003
scalar OsgEarthNet.uav[64] utilizationSecMaintenance 13057.481326032
scalar OsgEarthNet.uav[64] utilizationSecCharge 124950
scalar OsgEarthNet.uav[64] utilizationSecIdle 102215.82122596
scalar OsgEarthNet.uav[64] utilizationEnergyMission 94767.729194641
scalar OsgEarthNet.uav[64] utilizationEnergyMaintenance 62326.467018127
scalar OsgEarthNet.uav[64] utilizationEnergyCharge 156457.29052734
scalar OsgEarthNet.uav[64] utilizationEnergyOverdrawMission 0
scalar OsgEarthNet.uav[64] utilizationEnergyOverdrawMaintenance 0
scalar OsgEarthNet.uav[64] utilizationCountMissions 38
scalar OsgEarthNet.uav[64] utilizationCountManeuversMission 666
scalar OsgEarthNet.uav[64] utilizationCountManeuversMaintenance 76
scalar OsgEarthNet.uav[64] utilizationCountChargeState 38
scalar OsgEarthNet.uav[64] utilizationCountOverdrawnAfterMission 0
scalar OsgEarthNet.uav[64] utilizationCountIdleState 39
scalar OsgEarthNet.uav[64] utilizationFail 0
scalar OsgEarthNet.uav[64] simulationTime 259200
scalar OsgEarthNet.uav[65] utilizationSecMission 38848.580349798
scalar OsgEarthNet.uav[65] utilizationSecMaintenance 18705.167000659
scalar OsgEarthNet.uav[65] utilizationSecCharge 200164.25164954
scalar OsgEarthNet.uav[65] utilizationSecIdle 1482
[...]
scalar OsgEarthNet.uav[81] utilizationEnergyOverdrawMaintenance 0
scalar OsgEarthNet.uav[81] utilizationCountMissions 42
scalar OsgEarthNet.uav[81] utilizationCountManeuversMission 721
scalar OsgEarthNet.uav[81] utilizationCountManeuversMaintenance 84
scalar OsgEarthNet.uav[81] utilizationCountChargeState 42
scalar OsgEarthNet.uav[81] utilizationCountOverdrawnAfterMission 0
scalar OsgEarthNet.uav[81] utilizationCountIdleState 42
scalar OsgEarthNet.uav[81] utilizationFail 0
scalar OsgEarthNet.uav[81] simulationTime 259200
scalar OsgEarthNet.uav[82] utilizationSecMission 40183.909214891
scalar OsgEarthNet.uav[82] utilizationSecMaintenance 16688.9866704
scalar OsgEarthNet.uav[82] utilizationSecCharge 194573.6420718
scalar OsgEarthNet.uav[82] utilizationSecIdle 7753.4610429139
scalar OsgEarthNet.uav[82] utilizationEnergyMission 190682.44221497
scalar OsgEarthNet.uav[82] utilizationEnergyMaintenance 76824.274017334
scalar OsgEarthNet.uav[82] utilizationEnergyCharge 267581.74804688
scalar OsgEarthNet.uav[82] utilizationEnergyOverdrawMission 0
scalar OsgEarthNet.uav[82] utilizationEnergyOverdrawMaintenance 0
scalar OsgEarthNet.uav[82] utilizationCountMissions 58
scalar OsgEarthNet.uav[82] utilizationCountManeuversMission 1139
scalar OsgEarthNet.uav[82] utilizationCountManeuversMaintenance 116
scalar OsgEarthNet.uav[82] utilizationCountChargeState 58
scalar OsgEarthNet.uav[82] utilizationCountOverdrawnAfterMission 0
scalar OsgEarthNet.uav[82] utilizationCountIdleState 22
scalar OsgEarthNet.uav[82] utilizationFail 0
scalar OsgEarthNet.uav[82] simulationTime 259200
scalar OsgEarthNet.uav[83] utilizationSecMission 16734.634106813
scalar OsgEarthNet.uav[83] utilizationSecMaintenance 12363.363893187
scalar OsgEarthNet.uav[83] utilizationSecCharge 109190
scalar OsgEarthNet.uav[83] utilizationSecIdle 120912.001
scalar OsgEarthNet.uav[83] utilizationEnergyMission 82741.421424866
scalar OsgEarthNet.uav[83] utilizationEnergyMaintenance 58595.776135764
scalar OsgEarthNet.uav[83] utilizationEnergyCharge 140824.47998047
scalar OsgEarthNet.uav[83] utilizationEnergyOverdrawMission 0
scalar OsgEarthNet.uav[83] utilizationEnergyOverdrawMaintenance 0
scalar OsgEarthNet.uav[83] utilizationCountMissions 31
scalar OsgEarthNet.uav[83] utilizationCountManeuversMission 650
scalar OsgEarthNet.uav[83] utilizationCountManeuversMaintenance 63
scalar OsgEarthNet.uav[83] utilizationCountChargeState 31
scalar OsgEarthNet.uav[83] utilizationCountOverdrawnAfterMission 0
scalar OsgEarthNet.uav[83] utilizationCountIdleState 32
scalar OsgEarthNet.uav[83] utilizationFail 0
scalar OsgEarthNet.uav[83] simulationTime 259200
scalar OsgEarthNet.uav[84] utilizationSecMission 21255.499107123
scalar OsgEarthNet.uav[84] utilizationSecMaintenance 14448.602538769
scalar OsgEarthNet.uav[84] utilizationSecCharge 139550
scalar OsgEarthNet.uav[84] utilizationSecIdle 83945.897354108
scalar OsgEarthNet.uav[84] utilizationEnergyMission 102894.91374207
scalar OsgEarthNet.uav[84] utilizationEnergyMaintenance 68168.480770111
scalar OsgEarthNet.uav[84] utilizationEnergyCharge 172102.24658203
scalar OsgEarthNet.uav[84] utilizationEnergyOverdrawMission 0
scalar OsgEarthNet.uav[84] utilizationEnergyOverdrawMaintenance 0
scalar OsgEarthNet.uav[84] utilizationCountMissions 44
scalar OsgEarthNet.uav[84] utilizationCountManeuversMission 653
scalar OsgEarthNet.uav[84] utilizationCountManeuversMaintenance 88
scalar OsgEarthNet.uav[84] utilizationCountChargeState 44
scalar OsgEarthNet.uav[84] utilizationCountOverdrawnAfterMission 0
scalar OsgEarthNet.uav[84] utilizationCountIdleState 45
scalar OsgEarthNet.uav[84] utilizationFail 0
scalar OsgEarthNet.uav[84] simulationTime 259200
scalar OsgEarthNet.uav[85] utilizationSecMission 39715.104544734
scalar OsgEarthNet.uav[85] utilizationSecMaintenance 17294.604169815
scalar OsgEarthNet.uav[85] utilizationSecCharge 195778.28528545
scalar OsgEarthNet.uav[85] utilizationSecIdle 6412.005
scalar OsgEarthNet.uav[85] utilizationEnergyMission 190750.96125031
scalar OsgEarthNet.uav[85] utilizationEnergyMaintenance 79520.150241852
scalar OsgEarthNet.uav[85] utilizationEnergyCharge 266103.12808228
scalar OsgEarthNet.uav[85] utilizationEnergyOverdrawMission 0
scalar OsgEarthNet.uav[85] utilizationEnergyOverdrawMaintenance 0
scalar OsgEarthNet.uav[85] utilizationCountMissions 59
scalar OsgEarthNet.uav[85] utilizationCountManeuversMission 1205
scalar OsgEarthNet.uav[85] utilizationCountManeuversMaintenance 118
scalar OsgEarthNet.uav[85] utilizationCountChargeState 59
scalar OsgEarthNet.uav[85] utilizationCountOverdrawnAfterMission 0
scalar OsgEarthNet.uav[85] utilizationCountIdleState 25
scalar OsgEarthNet.uav[85] utilizationFail 0
scalar OsgEarthNet.uav[85] simulationTime 259200
scalar OsgEarthNet.uav[86] utilizationSecMission 17488.752136124
scalar OsgEarthNet.uav[86] utilizationSecMaintenance 9677.8833839792
scalar OsgEarthNet.uav[86] utilizationSecCharge 98551.344479897
scalar OsgEarthNet.uav[86] utilizationSecIdle 133482.019
scalar OsgEarthNet.uav[86] utilizationEnergyMission 84985.859634399
scalar OsgEarthNet.uav[86] utilizationEnergyMaintenance 45952.136562347
scalar OsgEarthNet.uav[86] utilizationEnergyCharge 127147.71630859
scalar OsgEarthNet.uav[86] utilizationEnergyOverdrawMission 0
scalar OsgEarthNet.uav[86] utilizationEnergyOverdrawMaintenance 0
scalar OsgEarthNet.uav[86] utilizationCountMissions 29
scalar OsgEarthNet.uav[86] utilizationCountManeuversMission 510
scalar OsgEarthNet.uav[86] utilizationCountManeuversMaintenance 58
scalar OsgEarthNet.uav[86] utilizationCountChargeState 29
scalar OsgEarthNet.uav[86] utilizationCountOverdrawnAfterMission 0
scalar OsgEarthNet.uav[86] utilizationCountIdleState 29
scalar OsgEarthNet.uav[86] utilizationFail 0
scalar OsgEarthNet.uav[86] simulationTime 259200
scalar OsgEarthNet.uav[87] utilizationSecMission 24505.060088184
scalar OsgEarthNet.uav[87] utilizationSecMaintenance 16172.938911816
scalar OsgEarthNet.uav[87] utilizationSecCharge 156900
scalar OsgEarthNet.uav[87] utilizationSecIdle 61622
scalar OsgEarthNet.uav[87] utilizationEnergyMission 118565.34728633
scalar OsgEarthNet.uav[87] utilizationEnergyMaintenance 76056.756420135
scalar OsgEarthNet.uav[87] utilizationEnergyCharge 194267.72485352
scalar OsgEarthNet.uav[87] utilizationEnergyOverdrawMission 0
scalar OsgEarthNet.uav[87] utilizationEnergyOverdrawMaintenance 0
scalar OsgEarthNet.uav[87] utilizationCountMissions 49
scalar OsgEarthNet.uav[87] utilizationCountManeuversMission 749
scalar OsgEarthNet.uav[87] utilizationCountManeuversMaintenance 99
scalar OsgEarthNet.uav[87] utilizationCountChargeState 49
scalar OsgEarthNet.uav[87] utilizationCountOverdrawnAfterMission 0
scalar OsgEarthNet.uav[87] utilizationCountIdleState 50
scalar OsgEarthNet.uav[87] utilizationFail 0
scalar OsgEarthNet.uav[87] simulationTime 259200
scalar OsgEarthNet.uav[88] utilizationSecMission 39971.617482821
scalar OsgEarthNet.uav[88] utilizationSecMaintenance 17993.809178616
scalar OsgEarthNet.uav[88] utilizationSecCharge 199312.57233856
scalar OsgEarthNet.uav[88] utilizationSecIdle 1922
scalar OsgEarthNet.uav[88] utilizationEnergyMission 192997.05441284
scalar OsgEarthNet.uav[88] utilizationEnergyMaintenance 83349.135311127
scalar OsgEarthNet.uav[88] utilizationEnergyCharge 273288.90136719
scalar OsgEarthNet.uav[88] utilizationEnergyOverdrawMission 0
scalar OsgEarthNet.uav[88] utilizationEnergyOverdrawMaintenance 0
scalar OsgEarthNet.uav[88] utilizationCountMissions 60
scalar OsgEarthNet.uav[88] utilizationCountManeuversMission 1303
scalar OsgEarthNet.uav[88] utilizationCountManeuversMaintenance 120
scalar OsgEarthNet.uav[88] utilizationCountChargeState 60
scalar OsgEarthNet.uav[88] utilizationCountOverdrawnAfterMission 0
scalar OsgEarthNet.uav[88] utilizationCountIdleState 20
scalar OsgEarthNet.uav[88] utilizationFail 0
scalar OsgEarthNet.uav[88] simulationTime 259200
scalar OsgEarthNet.uav[89] utilizationSecMission 17816.618639633
scalar OsgEarthNet.uav[89] utilizationSecMaintenance 11553.905148519
scalar OsgEarthNet.uav[89] utilizationSecCharge 111780
scalar OsgEarthNet.uav[89] utilizationSecIdle 118049.47521185
scalar OsgEarthNet.uav[89] utilizationEnergyMission 87158.455364227
scalar OsgEarthNet.uav[89] utilizationEnergyMaintenance 54660.65447998
scalar OsgEarthNet.uav[89] utilizationEnergyCharge 143589.88232422
scalar OsgEarthNet.uav[89] utilizationEnergyOverdrawMission 0
scalar OsgEarthNet.uav[89] utilizationEnergyOverdrawMaintenance 0
scalar OsgEarthNet.uav[89] utilizationCountMissions 32
scalar OsgEarthNet.uav[89] utilizationCountManeuversMission 609
scalar OsgEarthNet.uav[89] utilizationCountManeuversMaintenance 64
scalar OsgEarthNet.uav[89] utilizationCountChargeState 32
scalar OsgEarthNet.uav[89] utilizationCountOverdrawnAfterMission 0
scalar OsgEarthNet.uav[89] utilizationCountIdleState 33
scalar OsgEarthNet.uav[89] utilizationFail 0
scalar OsgEarthNet.uav[89] simulationTime 259200
scalar OsgEarthNet.uav[90] utilizationSecMission 15946.251525803
scalar OsgEarthNet.uav[90] utilizationSecMaintenance 10344.832366494
scalar OsgEarthNet.uav[90] utilizationSecCharge 98480
scalar OsgEarthNet.uav[90] utilizationSecIdle 134428.9151077
scalar OsgEarthNet.uav[90] utilizationEnergyMission 77676.279560089
scalar OsgEarthNet.uav[90] utilizationEnergyMaintenance 49345.248714447
scalar OsgEarthNet.uav[90] utilizationEnergyCharge 126855.47216797
scalar OsgEarthNet.uav[90] utilizationEnergyOverdrawMission 0
scalar OsgEarthNet.uav[90] utilizationEnergyOverdrawMaintenance 0
scalar OsgEarthNet.uav[90] utilizationCountMissions 28
scalar OsgEarthNet.uav[90] utilizationCountManeuversMission 537
scalar OsgEarthNet.uav[90] utilizationCountManeuversMaintenance 56
scalar OsgEarthNet.uav[90] utilizationCountChargeState 28
scalar OsgEarthNet.uav[90] utilizationCountOverdrawnAfterMission 0
scalar OsgEarthNet.uav[90] utilizationCountIdleState 29
scalar OsgEarthNet.uav[90] utilizationFail 0
scalar OsgEarthNet.uav[90] simulationTime 259200
scalar OsgEarthNet.uav[91] utilizationSecMission 22822.798910873
scalar OsgEarthNet.uav[91] utilizationSecMaintenance 15669.18237516
scalar OsgEarthNet.uav[91] utilizationSecCharge 145016.01071397
scalar OsgEarthNet.uav[91] utilizationSecIdle 75692.007
scalar OsgEarthNet.uav[91] utilizationEnergyMission 111343.64014053
scalar OsgEarthNet.uav[91] utilizationEnergyMaintenance 73724.68964386
scalar OsgEarthNet.uav[91] utilizationEnergyCharge 180129.62164307
scalar OsgEarthNet.uav[91] utilizationEnergyOverdrawMission 0
scalar OsgEarthNet.uav[91] utilizationEnergyOverdrawMaintenance 0
scalar OsgEarthNet.uav[91] utilizationCountMissions 46
scalar OsgEarthNet.uav[91] utilizationCountManeuversMission 791
scalar OsgEarthNet.uav[91] utilizationCountManeuversMaintenance 92
scalar OsgEarthNet.uav[91] utilizationCountChargeState 46
scalar OsgEarthNet.uav[91] utilizationCountOverdrawnAfterMission 0
scalar OsgEarthNet.uav[91] utilizationCountIdleState 46
scalar OsgEarthNet.uav[91] utilizationFail 0
scalar OsgEarthNet.uav[91] simulationTime 259200
scalar OsgEarthNet.uav[92] utilizationSecMission 39345.197554609
scalar OsgEarthNet.uav[92] utilizationSecMaintenance 18385.955093859
scalar OsgEarthNet.uav[92] utilizationSecCharge 196149.3880033
scalar OsgEarthNet.uav[92] utilizationSecIdle 5319.4583482277
scalar OsgEarthNet.uav[92] utilizationEnergyMission 189492.06283188
scalar OsgEarthNet.uav[92] utilizationEnergyMaintenance 84546.769538879
scalar OsgEarthNet.uav[92] utilizationEnergyCharge 271536.98913574
scalar OsgEarthNet.uav[92] utilizationEnergyOverdrawMission 0
scalar OsgEarthNet.uav[92] utilizationEnergyOverdrawMaintenance 0
scalar OsgEarthNet.uav[92] utilizationCountMissions 60
scalar OsgEarthNet.uav[92] utilizationCountManeuversMission 1192
scalar OsgEarthNet.uav[92] utilizationCountManeuversMaintenance 120
scalar OsgEarthNet.uav[92] utilizationCountChargeState 60
scalar OsgEarthNet.uav[92] utilizationCountOverdrawnAfterMission 0
scalar OsgEarthNet.uav[92] utilizationCountIdleState 18
scalar OsgEarthNet.uav[92] utilizationFail 0
scalar OsgEarthNet.uav[92] simulationTime 259200
scalar OsgEarthNet.uav[93] utilizationSecMission 18708.752136124
scalar OsgEarthNet.uav[93] utilizationSecMaintenance 10757.512802159
scalar OsgEarthNet.uav[93] utilizationSecCharge 109318.4634876
scalar OsgEarthNet.uav[93] utilizationSecIdle 120415.27057412
scalar OsgEarthNet.uav[93] utilizationEnergyMission 90213.441982269
scalar OsgEarthNet.uav[93] utilizationEnergyMaintenance 50764.112731933
scalar OsgEarthNet.uav[93] utilizationEnergyCharge 141020.59619141
scalar OsgEarthNet.uav[93] utilizationEnergyOverdrawMission 0
scalar OsgEarthNet.uav[93] utilizationEnergyOverdrawMaintenance 0
scalar OsgEarthNet.uav[93] utilizationCountMissions 31
scalar OsgEarthNet.uav[93] utilizationCountManeuversMission 571
scalar OsgEarthNet.uav[93] utilizationCountManeuversMaintenance 62
scalar OsgEarthNet.uav[93] utilizationCountChargeState 31
scalar OsgEarthNet.uav[93] utilizationCountOverdrawnAfterMission 0
scalar OsgEarthNet.uav[93] utilizationCountIdleState 31
scalar OsgEarthNet.uav[93] utilizationFail 0
scalar OsgEarthNet.uav[93] simulationTime 259200
scalar OsgEarthNet.uav[94] utilizationSecMission 23759.633233561
scalar OsgEarthNet.uav[94] utilizationSecMaintenance 15456.979783214
scalar OsgEarthNet.uav[94] utilizationSecCharge 150790
scalar OsgEarthNet.uav[94] utilizationSecIdle 69193.385983224
scalar OsgEarthNet.uav[94] utilizationEnergyMission 114119.82175064
scalar OsgEarthNet.uav[94] utilizationEnergyMaintenance 72913.445026398
scalar OsgEarthNet.uav[94] utilizationEnergyCharge 187103.74804688
scalar OsgEarthNet.uav[94] utilizationEnergyOverdrawMission 0
scalar OsgEarthNet.uav[94] utilizationEnergyOverdrawMaintenance 0
scalar OsgEarthNet.uav[94] utilizationCountMissions 47
scalar OsgEarthNet.uav[94] utilizationCountManeuversMission 732
scalar OsgEarthNet.uav[94] utilizationCountManeuversMaintenance 93
scalar OsgEarthNet.uav[94] utilizationCountChargeState 47
scalar OsgEarthNet.uav[94] utilizationCountOverdrawnAfterMission 0
scalar OsgEarthNet.uav[94] utilizationCountIdleState 48
scalar OsgEarthNet.uav[94] utilizationFail 0
scalar OsgEarthNet.uav[94] simulationTime 259200
scalar OsgEarthNet.uav[95] utilizationSecMission 40393.139568801
scalar OsgEarthNet.uav[95] utilizationSecMaintenance 16771.380109283
scalar OsgEarthNet.uav[95] utilizationSecCharge 196810
scalar OsgEarthNet.uav[95] utilizationSecIdle 5225.4793219159
scalar OsgEarthNet.uav[95] utilizationEnergyMission 196688.62257385
scalar OsgEarthNet.uav[95] utilizationEnergyMaintenance 75940.014789581
scalar OsgEarthNet.uav[95] utilizationEnergyCharge 269974.05517578
scalar OsgEarthNet.uav[95] utilizationEnergyOverdrawMission 0
scalar OsgEarthNet.uav[95] utilizationEnergyOverdrawMaintenance 0
scalar OsgEarthNet.uav[95] utilizationCountMissions 59
scalar OsgEarthNet.uav[95] utilizationCountManeuversMission 1200
scalar OsgEarthNet.uav[95] utilizationCountManeuversMaintenance 118
scalar OsgEarthNet.uav[95] utilizationCountChargeState 59
scalar OsgEarthNet.uav[95] utilizationCountOverdrawnAfterMission 0
scalar OsgEarthNet.uav[95] utilizationCountIdleState 21
scalar OsgEarthNet.uav[95] utilizationFail 0
scalar OsgEarthNet.uav[95] simulationTime 259200
scalar OsgEarthNet.uav[96] utilizationSecMission 18869.377288704
scalar OsgEarthNet.uav[96] utilizationSecMaintenance 10513.267285446
scalar OsgEarthNet.uav[96] utilizationSecCharge 109060
scalar OsgEarthNet.uav[96] utilizationSecIdle 120757.35442585
scalar OsgEarthNet.uav[96] utilizationEnergyMission 89215.741344452
scalar OsgEarthNet.uav[96] utilizationEnergyMaintenance 49524.106334686
scalar OsgEarthNet.uav[96] utilizationEnergyCharge 140431.47802734
scalar OsgEarthNet.uav[96] utilizationEnergyOverdrawMission 0
scalar OsgEarthNet.uav[96] utilizationEnergyOverdrawMaintenance 0
scalar OsgEarthNet.uav[96] utilizationCountMissions 31
scalar OsgEarthNet.uav[96] utilizationCountManeuversMission 553
scalar OsgEarthNet.uav[96] utilizationCountManeuversMaintenance 62
scalar OsgEarthNet.uav[96] utilizationCountChargeState 31
scalar OsgEarthNet.uav[96] utilizationCountOverdrawnAfterMission 0
scalar OsgEarthNet.uav[96] utilizationCountIdleState 32
scalar OsgEarthNet.uav[96] utilizationFail 0
scalar OsgEarthNet.uav[96] simulationTime 259200
scalar OsgEarthNet.uav[97] utilizationSecMission 21134.369016088
scalar OsgEarthNet.uav[97] utilizationSecMaintenance 15707.62998674
scalar OsgEarthNet.uav[97] utilizationSecCharge 144115.99599717
scalar OsgEarthNet.uav[97] utilizationSecIdle 78242.004
scalar OsgEarthNet.uav[97] utilizationEnergyMission 104336.80984879
scalar OsgEarthNet.uav[97] utilizationEnergyMaintenance 74290.311756134
scalar OsgEarthNet.uav[97] utilizationEnergyCharge 176497.55834961
scalar OsgEarthNet.uav[97] utilizationEnergyOverdrawMission 0
scalar OsgEarthNet.uav[97] utilizationEnergyOverdrawMaintenance 0
scalar OsgEarthNet.uav[97] utilizationCountMissions 47
scalar OsgEarthNet.uav[97] utilizationCountManeuversMission 727
scalar OsgEarthNet.uav[97] utilizationCountManeuversMaintenance 94
scalar OsgEarthNet.uav[97] utilizationCountChargeState 47
scalar OsgEarthNet.uav[97] utilizationCountOverdrawnAfterMission 0
scalar OsgEarthNet.uav[97] utilizationCountIdleState 47
scalar OsgEarthNet.uav[97] utilizationFail 0
scalar OsgEarthNet.uav[97] simulationTime 259200
scalar OsgEarthNet.uav[98] utilizationSecMission 41471.010792373
scalar OsgEarthNet.uav[98] utilizationSecMaintenance 15453.907198043
scalar OsgEarthNet.uav[98] utilizationSecCharge 195683.07900958
scalar OsgEarthNet.uav[98] utilizationSecIdle 6592.002
scalar OsgEarthNet.uav[98] utilizationEnergyMission 197966.9972229
scalar OsgEarthNet.uav[98] utilizationEnergyMaintenance 72757.10849762
scalar OsgEarthNet.uav[98] utilizationEnergyCharge 265653.41308594
scalar OsgEarthNet.uav[98] utilizationEnergyOverdrawMission 0
scalar OsgEarthNet.uav[98] utilizationEnergyOverdrawMaintenance 0
scalar OsgEarthNet.uav[98] utilizationCountMissions 58
scalar OsgEarthNet.uav[98] utilizationCountManeuversMission 1113
scalar OsgEarthNet.uav[98] utilizationCountManeuversMaintenance 116
scalar OsgEarthNet.uav[98] utilizationCountChargeState 58
scalar OsgEarthNet.uav[98] utilizationCountOverdrawnAfterMission 0
scalar OsgEarthNet.uav[98] utilizationCountIdleState 32
scalar OsgEarthNet.uav[98] utilizationFail 0
scalar OsgEarthNet.uav[98] simulationTime 259200
scalar OsgEarthNet.uav[99] utilizationSecMission 19049.377288704
scalar OsgEarthNet.uav[99] utilizationSecMaintenance 10755.33793081
scalar OsgEarthNet.uav[99] utilizationSecCharge 106753.26178049
scalar OsgEarthNet.uav[99] utilizationSecIdle 122642.022
scalar OsgEarthNet.uav[99] utilizationEnergyMission 91636.05978775
scalar OsgEarthNet.uav[99] utilizationEnergyMaintenance 50783.995624542
scalar OsgEarthNet.uav[99] utilizationEnergyCharge 138165.29705811
scalar OsgEarthNet.uav[99] utilizationEnergyOverdrawMission 0
scalar OsgEarthNet.uav[99] utilizationEnergyOverdrawMaintenance 0
scalar OsgEarthNet.uav[99] utilizationCountMissions 31
scalar OsgEarthNet.uav[99] utilizationCountManeuversMission 562
scalar OsgEarthNet.uav[99] utilizationCountManeuversMaintenance 62
scalar OsgEarthNet.uav[99] utilizationCountChargeState 31
scalar OsgEarthNet.uav[99] utilizationCountOverdrawnAfterMission 0
scalar OsgEarthNet.uav[99] utilizationCountIdleState 31
scalar OsgEarthNet.uav[99] utilizationFail 0
scalar OsgEarthNet.uav[99] simulationTime 259200
scalar OsgEarthNet.cs[0] usedPower 3999444.1882175
scalar OsgEarthNet.cs[0] chargedPower 3999444.1882175
scalar OsgEarthNet.cs[0] chargedMobileNodes 876
scalar OsgEarthNet.cs[0] reservations 888
scalar OsgEarthNet.cs[1] usedPower 4135825.9118728
scalar OsgEarthNet.cs[1] chargedPower 4135825.9118728
scalar OsgEarthNet.cs[1] chargedMobileNodes 1031
scalar OsgEarthNet.cs[1] reservations 1045
scalar OsgEarthNet.cs[2] usedPower 8656641.0130689
scalar OsgEarthNet.cs[2] chargedPower 8656641.0130689
scalar OsgEarthNet.cs[2] chargedMobileNodes 708
scalar OsgEarthNet.cs[2] reservations 1888

