version 2
run Szenario_Hotel_Gabelbach-63-20180722-02:38:22-4448
attr configname Szenario_Hotel_Gabelbach
attr datetime 20180722-02:38:22
attr experiment Szenario_Hotel_Gabelbach
attr inifile omnetpp.ini
attr iterationvars "$replM=2, $biWeight=0.35, $replSearchM=1, $numUAVs=250"
attr iterationvarsf replM=2,biWeight=0.35,replSearchM=1,numUAVs=250-
attr measurement "$replM=2, $biWeight=0.35, $replSearchM=1, $numUAVs=250"
attr network OsgEarthNet
attr processid 4448
attr repetition 15
attr replication #15
attr resultdir results
attr runnumber 63
attr seedset 63
itervar biWeight 0.35
itervar numUAVs 250
itervar replM 2
itervar replSearchM 1
param *.osgEarthScene.scene "\"Szenario_Hotel_Gabelbach.earth\""
param *.playgroundLatitude 50.6830269
param *.playgroundLongitude 10.8538055
param *.playgroundWidth 3500m
param *.playgroundHeight 3500m
param *.cs[0].posX 3537m
param *.cs[0].posY 965m
param *.cs[0].posZ 538m
param *.cs[1].posX 312m
param *.cs[1].posY 1262m
param *.cs[1].posZ 539m
param *.cs[2].posX 2185m
param *.cs[2].posY 3026m
param *.cs[2].posZ 777m
param *.cs[3].posX 10m
param *.cs[3].posY 2200m
param *.cs[3].posZ 560m
param *.cs[4].posX 750m
param *.cs[4].posY 200m
param *.cs[4].posZ 540m
param *.cs[5].posX 2450m
param *.cs[5].posY 180m
param *.cs[5].posZ 524m
param *.cs[6].posX 3140m
param *.cs[6].posY 1790m
param *.cs[6].posZ 606m
param *.numCSs 3
param *.uav[*].replacementMethod 2
param *.uav[*].weightedSumWeight 0.35
param *.missionControl.replacementSearchMethod 1
param *.numUAVs 250
param *.*.timeStep 10s
param *.uav[*].commandPreviewCommandCount 20
param *.missionControl.missionFiles "\"missions\\\\Szenario_WB_Hotel_Gabelbach_Mission_Hotel.waypoints,missions\\\\Szenario_WB_Hotel_Gabelbach_Mission_Kickelhahn.waypoints,missions\\\\Szenario_WB_Hotel_Gabelbach_Mission_Ilmenau_Sportplatz.waypoints,missions\\\\Szenario_WB_Hotel_Gabelbach_Mission_Manebach_Mitte.waypoints,missions\\\\Szenario_WB_Hotel_Gabelbach_Mission_Manebach_Sued.waypoints,missions\\\\Szenario_WB_Hotel_Gabelbach_Hover_HoheSchlaufe.waypoints,missions\\\\Szenario_WB_Hotel_Gabelbach_Hover_Kickelhahn.waypoints,missions\\\\Szenario_WB_Hotel_Gabelbach_Hover_Gabelbachskopf.waypoints,missions\\\\Szenario_WB_Hotel_Gabelbach_Hover_Dachskopf.waypoints\""
param *.uav[0].startX 3537m
param *.uav[0].startY 965m
param *.uav[0].startZ 539m
param *.uav[1].startX 312m
param *.uav[1].startY 1262m
param *.uav[1].startZ 540m
param *.uav[2].startX 2185m
param *.uav[2].startY 3026m
param *.uav[2].startZ 778m
param *.uav[3].startX 3537m
param *.uav[3].startY 965m
param *.uav[3].startZ 539m
param *.uav[4].startX 312m
param *.uav[4].startY 1262m
param *.uav[4].startZ 540m
param *.uav[5].startX 2185m
param *.uav[5].startY 3026m
param *.uav[5].startZ 778m
param *.uav[6].startX 3537m
param *.uav[6].startY 965m
param *.uav[6].startZ 539m
param *.uav[7].startX 312m
param *.uav[7].startY 1262m
param *.uav[7].startZ 540m
param *.uav[8].startX 2185m
param *.uav[8].startY 3026m
param *.uav[8].startZ 778m
param *.uav[9].startX 3537m
param *.uav[9].startY 965m
param *.uav[9].startZ 539m
param *.uav[10].startX 3537m
param *.uav[10].startY 965m
param *.uav[10].startZ 539m
param *.uav[11].startX 312m
param *.uav[11].startY 1262m
param *.uav[11].startZ 540m
param *.uav[12].startX 2185m
param *.uav[12].startY 3026m
param *.uav[12].startZ 778m
param *.uav[13].startX 3537m
param *.uav[13].startY 965m
param *.uav[13].startZ 539m
param *.uav[14].startX 312m
param *.uav[14].startY 1262m
param *.uav[14].startZ 540m
param *.uav[15].startX 2185m
param *.uav[15].startY 3026m
param *.uav[15].startZ 778m
param *.uav[16].startX 3537m
param *.uav[16].startY 965m
param *.uav[16].startZ 539m
param *.uav[17].startX 312m
param *.uav[17].startY 1262m
param *.uav[17].startZ 540m
param *.uav[18].startX 2185m
param *.uav[18].startY 3026m
param *.uav[18].startZ 778m
param *.uav[19].startX 3537m
param *.uav[19].startY 965m
param *.uav[19].startZ 539m
param *.uav[20].startX 3537m
param *.uav[20].startY 965m
param *.uav[20].startZ 539m
param *.uav[21].startX 312m
param *.uav[21].startY 1262m
param *.uav[21].startZ 540m
param *.uav[22].startX 2185m
param *.uav[22].startY 3026m
param *.uav[22].startZ 778m
param *.uav[23].startX 3537m
param *.uav[23].startY 965m
param *.uav[23].startZ 539m
param *.uav[24].startX 312m
param *.uav[24].startY 1262m
param *.uav[24].startZ 540m
param *.uav[25].startX 2185m
param *.uav[25].startY 3026m
param *.uav[25].startZ 778m
param *.uav[26].startX 3537m
param *.uav[26].startY 965m
param *.uav[26].startZ 539m
param *.uav[27].startX 312m
param *.uav[27].startY 1262m
param *.uav[27].startZ 540m
param *.uav[28].startX 2185m
param *.uav[28].startY 3026m
param *.uav[28].startZ 778m
param *.uav[29].startX 3537m
param *.uav[29].startY 965m
param *.uav[29].startZ 539m
param *.uav[30].startX 3537m
param *.uav[30].startY 965m
param *.uav[30].startZ 539m
param *.uav[31].startX 312m
param *.uav[31].startY 1262m
param *.uav[31].startZ 540m
param *.uav[32].startX 2185m
param *.uav[32].startY 3026m
param *.uav[32].startZ 778m
param *.uav[33].startX 3537m
param *.uav[33].startY 965m
param *.uav[33].startZ 539m
param *.uav[34].startX 312m
param *.uav[34].startY 1262m
param *.uav[34].startZ 540m
param *.uav[35].startX 2185m
param *.uav[35].startY 3026m
param *.uav[35].startZ 778m
param *.uav[36].startX 3537m
param *.uav[36].startY 965m
param *.uav[36].startZ 539m
param *.uav[37].startX 312m
param *.uav[37].startY 1262m
param *.uav[37].startZ 540m
param *.uav[38].startX 2185m
param *.uav[38].startY 3026m
param *.uav[38].startZ 778m
param *.uav[39].startX 3537m
param *.uav[39].startY 965m
param *.uav[39].startZ 539m
param *.uav[40].startX 3537m
param *.uav[40].startY 965m
param *.uav[40].startZ 539m
param *.uav[41].startX 312m
param *.uav[41].startY 1262m
param *.uav[41].startZ 540m
param *.uav[42].startX 2185m
param *.uav[42].startY 3026m
param *.uav[42].startZ 778m
param *.uav[43].startX 3537m
param *.uav[43].startY 965m
param *.uav[43].startZ 539m
param *.uav[44].startX 312m
param *.uav[44].startY 1262m
param *.uav[44].startZ 540m
param *.uav[45].startX 2185m
param *.uav[45].startY 3026m
param *.uav[45].startZ 778m
param *.uav[46].startX 3537m
param *.uav[46].startY 965m
param *.uav[46].startZ 539m
param *.uav[47].startX 312m
param *.uav[47].startY 1262m
param *.uav[47].startZ 540m
param *.uav[48].startX 2185m
param *.uav[48].startY 3026m
param *.uav[48].startZ 778m
param *.uav[49].startX 3537m
param *.uav[49].startY 965m
param *.uav[49].startZ 539m
param *.uav[50].startX 3537m
param *.uav[50].startY 965m
param *.uav[50].startZ 539m
param *.uav[51].startX 312m
param *.uav[51].startY 1262m
param *.uav[51].startZ 540m
param *.uav[52].startX 2185m
param *.uav[52].startY 3026m
param *.uav[52].startZ 778m
param *.uav[53].startX 3537m
param *.uav[53].startY 965m
param *.uav[53].startZ 539m
param *.uav[54].startX 312m
param *.uav[54].startY 1262m
param *.uav[54].startZ 540m
param *.uav[55].startX 2185m
param *.uav[55].startY 3026m
param *.uav[55].startZ 778m
param *.uav[56].startX 3537m
param *.uav[56].startY 965m
param *.uav[56].startZ 539m
param *.uav[57].startX 312m
param *.uav[57].startY 1262m
param *.uav[57].startZ 540m
param *.uav[58].startX 2185m
param *.uav[58].startY 3026m
param *.uav[58].startZ 778m
param *.uav[59].startX 3537m
param *.uav[59].startY 965m
param *.uav[59].startZ 539m
param *.uav[60].startX 3537m
param *.uav[60].startY 965m
param *.uav[60].startZ 539m
param *.uav[61].startX 312m
param *.uav[61].startY 1262m
param *.uav[61].startZ 540m
param *.uav[62].startX 2185m
param *.uav[62].startY 3026m
param *.uav[62].startZ 778m
param *.uav[63].startX 3537m
param *.uav[63].startY 965m
param *.uav[63].startZ 539m
param *.uav[64].startX 312m
param *.uav[64].startY 1262m
param *.uav[64].startZ 540m
param *.uav[65].startX 2185m
param *.uav[65].startY 3026m
param *.uav[65].startZ 778m
param *.uav[66].startX 3537m
param *.uav[66].startY 965m
param *.uav[66].startZ 539m
param *.uav[67].startX 312m
param *.uav[67].startY 1262m
param *.uav[67].startZ 540m
param *.uav[68].startX 2185m
param *.uav[68].startY 3026m
param *.uav[68].startZ 778m
param *.uav[69].startX 3537m
param *.uav[69].startY 965m
param *.uav[69].startZ 539m
param *.uav[70].startX 3537m
param *.uav[70].startY 965m
param *.uav[70].startZ 539m
param *.uav[71].startX 312m
param *.uav[71].startY 1262m
param *.uav[71].startZ 540m
param *.uav[72].startX 2185m
param *.uav[72].startY 3026m
param *.uav[72].startZ 778m
param *.uav[73].startX 3537m
param *.uav[73].startY 965m
param *.uav[73].startZ 539m
param *.uav[74].startX 312m
param *.uav[74].startY 1262m
param *.uav[74].startZ 540m
param *.uav[75].startX 2185m
param *.uav[75].startY 3026m
param *.uav[75].startZ 778m
param *.uav[76].startX 3537m
param *.uav[76].startY 965m
param *.uav[76].startZ 539m
param *.uav[77].startX 312m
param *.uav[77].startY 1262m
param *.uav[77].startZ 540m
param *.uav[78].startX 2185m
param *.uav[78].startY 3026m
param *.uav[78].startZ 778m
param *.uav[79].startX 3537m
param *.uav[79].startY 965m
param *.uav[79].startZ 539m
param *.uav[80].startX 3537m
param *.uav[80].startY 965m
param *.uav[80].startZ 539m
param *.uav[81].startX 312m
param *.uav[81].startY 1262m
param *.uav[81].startZ 540m
param *.uav[82].startX 2185m
param *.uav[82].startY 3026m
param *.uav[82].startZ 778m
param *.uav[83].startX 3537m
param *.uav[83].startY 965m
param *.uav[83].startZ 539m
param *.uav[84].startX 312m
param *.uav[84].startY 1262m
param *.uav[84].startZ 540m
param *.uav[85].startX 2185m
param *.uav[85].startY 3026m
param *.uav[85].startZ 778m
param *.uav[86].startX 3537m
param *.uav[86].startY 965m
param *.uav[86].startZ 539m
param *.uav[87].startX 312m
param *.uav[87].startY 1262m
param *.uav[87].startZ 540m
param *.uav[88].startX 2185m
param *.uav[88].startY 3026m
param *.uav[88].startZ 778m
param *.uav[89].startX 3537m
param *.uav[89].startY 965m
param *.uav[89].startZ 539m
param *.uav[90].startX 3537m
param *.uav[90].startY 965m
param *.uav[90].startZ 539m
param *.uav[91].startX 312m
param *.uav[91].startY 1262m
param *.uav[91].startZ 540m
param *.uav[92].startX 2185m
param *.uav[92].startY 3026m
param *.uav[92].startZ 778m
param *.uav[93].startX 3537m
param *.uav[93].startY 965m
param *.uav[93].startZ 539m
param *.uav[94].startX 312m
param *.uav[94].startY 1262m
param *.uav[94].startZ 540m
param *.uav[95].startX 2185m
param *.uav[95].startY 3026m
param *.uav[95].startZ 778m
param *.uav[96].startX 3537m
param *.uav[96].startY 965m
param *.uav[96].startZ 539m
param *.uav[97].startX 312m
param *.uav[97].startY 1262m
param *.uav[97].startZ 540m
param *.uav[98].startX 2185m
param *.uav[98].startY 3026m
param *.uav[98].startZ 778m
param *.uav[99].startX 3537m
param *.uav[99].startY 965m
param *.uav[99].startZ 539m
param *.osgEarthScene.scene "\"boston.earth\""
param *.playgroundLatitude 42.3558
param *.playgroundLongitude -71.0677
param *.playgroundWidth 400m
param *.playgroundHeight 200m
param *.channelController.connectionColor "\"#0000FF40\""
param *.channelController.showConnections false
param *.uav[*].modelURL "\"quadrocopter.small.obj.15.scale.0,0,90.rot\""
param *.uav[*].labelColor "\"#FF7C00CC\""
param *.uav[*].label2Color "\"#FF7C00EE\""
param *.uav[*].batteryCapacity 5200mAh
param *.uav[*].batteryRemaining uav[index].batteryCapacity
param *.uav[*].predictionQuantile 0.95
param *.uav[*].replacementMethod 2
param *.uav[*].weightedSumWeight 0.5
param *.cs[*].modelURL "\"chargingstation_v1.osgt.2.scale.0,0,0.rot.0,0,-15e-1.trans\""
param *.cs[*].spotsWaiting 999
param *.cs[*].spotsCharging 999
param *.cs[*].chargeEffectivenessPercentage 100
param *.cs[*].nonLinearPhaseStartPercentage 85
param *.cs[*].chargeCurrent 6.0A
param *.cs[*].prioritizeFastCharge true
param *.missionControl.replacementSearchMethod 0
param *.*.timeStep 9s

scalar OsgEarthNet.uav[0] utilizationSecMission 940
scalar OsgEarthNet.uav[0] utilizationSecMaintenance 894.56202711707
scalar OsgEarthNet.uav[0] utilizationSecCharge 7060
scalar OsgEarthNet.uav[0] utilizationSecIdle 250305.43697288
scalar OsgEarthNet.uav[0] utilizationEnergyMission 4661.6383552551
scalar OsgEarthNet.uav[0] utilizationEnergyMaintenance 4287.4816513061
scalar OsgEarthNet.uav[0] utilizationEnergyCharge 8964.6967773438
scalar OsgEarthNet.uav[0] utilizationEnergyOverdrawMission 0
scalar OsgEarthNet.uav[0] utilizationEnergyOverdrawMaintenance 0
scalar OsgEarthNet.uav[0] utilizationCountMissions 2
scalar OsgEarthNet.uav[0] utilizationCountManeuversMission 47
scalar OsgEarthNet.uav[0] utilizationCountManeuversMaintenance 4
scalar OsgEarthNet.uav[0] utilizationCountChargeState 2
scalar OsgEarthNet.uav[0] utilizationCountOverdrawnAfterMission 0
scalar OsgEarthNet.uav[0] utilizationCountIdleState 3
scalar OsgEarthNet.uav[0] utilizationFail 0
scalar OsgEarthNet.uav[0] simulationTime 259200
scalar OsgEarthNet.uav[1] utilizationSecMission 1100
scalar OsgEarthNet.uav[1] utilizationSecMaintenance 790.69889465529
scalar OsgEarthNet.uav[1] utilizationSecCharge 7200
scalar OsgEarthNet.uav[1] utilizationSecIdle 250109.30010534
scalar OsgEarthNet.uav[1] utilizationEnergyMission 5665.3285522461
scalar OsgEarthNet.uav[1] utilizationEnergyMaintenance 3799.5528182983
scalar OsgEarthNet.uav[1] utilizationEnergyCharge 9365.2729492188
scalar OsgEarthNet.uav[1] utilizationEnergyOverdrawMission 0
scalar OsgEarthNet.uav[1] utilizationEnergyOverdrawMaintenance 0
scalar OsgEarthNet.uav[1] utilizationCountMissions 2
scalar OsgEarthNet.uav[1] utilizationCountManeuversMission 55
scalar OsgEarthNet.uav[1] utilizationCountManeuversMaintenance 4
scalar OsgEarthNet.uav[1] utilizationCountChargeState 2
scalar OsgEarthNet.uav[1] utilizationCountOverdrawnAfterMission 0
scalar OsgEarthNet.uav[1] utilizationCountIdleState 3
scalar OsgEarthNet.uav[1] utilizationFail 0
scalar OsgEarthNet.uav[1] simulationTime 259200
scalar OsgEarthNet.uav[2] utilizationSecMission 39466.263646788
scalar OsgEarthNet.uav[2] utilizationSecMaintenance 18211.735353212
scalar OsgEarthNet.uav[2] utilizationSecCharge 199250
scalar OsgEarthNet.uav[2] utilizationSecIdle 2272
scalar OsgEarthNet.uav[2] utilizationEnergyMission 191611.65059092
scalar OsgEarthNet.uav[2] utilizationEnergyMaintenance 85572.230056763
scalar OsgEarthNet.uav[2] utilizationEnergyCharge 274397.8203125
scalar OsgEarthNet.uav[2] utilizationEnergyOverdrawMission 0
scalar OsgEarthNet.uav[2] utilizationEnergyOverdrawMaintenance 0
scalar OsgEarthNet.uav[2] utilizationCountMissions 60
scalar OsgEarthNet.uav[2] utilizationCountManeuversMission 1188
scalar OsgEarthNet.uav[2] utilizationCountManeuversMaintenance 121
scalar OsgEarthNet.uav[2] utilizationCountChargeState 60
scalar OsgEarthNet.uav[2] utilizationCountOverdrawnAfterMission 0
scalar OsgEarthNet.uav[2] utilizationCountIdleState 19
scalar OsgEarthNet.uav[2] utilizationFail 0
scalar OsgEarthNet.uav[2] simulationTime 259200
scalar OsgEarthNet.uav[3] utilizationSecMission 760.62515258028
scalar OsgEarthNet.uav[3] utilizationSecMaintenance 202.91610409653
scalar OsgEarthNet.uav[3] utilizationSecCharge 3490
scalar OsgEarthNet.uav[3] utilizationSecIdle 254746.45774332
scalar OsgEarthNet.uav[3] utilizationEnergyMission 3405.6906280518
scalar OsgEarthNet.uav[3] utilizationEnergyMaintenance 1009.3008346558
scalar OsgEarthNet.uav[3] utilizationEnergyCharge 4380.283203125
scalar OsgEarthNet.uav[3] utilizationEnergyOverdrawMission 0
scalar OsgEarthNet.uav[3] utilizationEnergyOverdrawMaintenance 0
scalar OsgEarthNet.uav[3] utilizationCountMissions 1
scalar OsgEarthNet.uav[3] utilizationCountManeuversMission 12
scalar OsgEarthNet.uav[3] utilizationCountManeuversMaintenance 2
scalar OsgEarthNet.uav[3] utilizationCountChargeState 1
scalar OsgEarthNet.uav[3] utilizationCountOverdrawnAfterMission 0
scalar OsgEarthNet.uav[3] utilizationCountIdleState 2
scalar OsgEarthNet.uav[3] utilizationFail 0
scalar OsgEarthNet.uav[3] simulationTime 259200
scalar OsgEarthNet.uav[4] utilizationSecMission 11308.745762704
scalar OsgEarthNet.uav[4] utilizationSecMaintenance 8543.0517344644
scalar OsgEarthNet.uav[4] utilizationSecCharge 78736.201502832
scalar OsgEarthNet.uav[4] utilizationSecIdle 160612
scalar OsgEarthNet.uav[4] utilizationEnergyMission 55215.729995728
scalar OsgEarthNet.uav[4] utilizationEnergyMaintenance 41116.605705261
scalar OsgEarthNet.uav[4] utilizationEnergyCharge 96385.759765625
scalar OsgEarthNet.uav[4] utilizationEnergyOverdrawMission 0
scalar OsgEarthNet.uav[4] utilizationEnergyOverdrawMaintenance 0
scalar OsgEarthNet.uav[4] utilizationCountMissions 26
scalar OsgEarthNet.uav[4] utilizationCountManeuversMission 375
scalar OsgEarthNet.uav[4] utilizationCountManeuversMaintenance 51
scalar OsgEarthNet.uav[4] utilizationCountChargeState 26
scalar OsgEarthNet.uav[4] utilizationCountOverdrawnAfterMission 0
scalar OsgEarthNet.uav[4] utilizationCountIdleState 26
scalar OsgEarthNet.uav[4] utilizationFail 0
scalar OsgEarthNet.uav[4] simulationTime 259200
scalar OsgEarthNet.uav[5] utilizationSecMission 41649.888717153
scalar OsgEarthNet.uav[5] utilizationSecMaintenance 16018.105282847
scalar OsgEarthNet.uav[5] utilizationSecCharge 196380
scalar OsgEarthNet.uav[5] utilizationSecIdle 5152.005
scalar OsgEarthNet.uav[5] utilizationEnergyMission 197601.16832337
scalar OsgEarthNet.uav[5] utilizationEnergyMaintenance 73567.629951477
scalar OsgEarthNet.uav[5] utilizationEnergyCharge 269338.25634766
scalar OsgEarthNet.uav[5] utilizationEnergyOverdrawMission 0
scalar OsgEarthNet.uav[5] utilizationEnergyOverdrawMaintenance 0
scalar OsgEarthNet.uav[5] utilizationCountMissions 58
scalar OsgEarthNet.uav[5] utilizationCountManeuversMission 1041
scalar OsgEarthNet.uav[5] utilizationCountManeuversMaintenance 117
scalar OsgEarthNet.uav[5] utilizationCountChargeState 58
scalar OsgEarthNet.uav[5] utilizationCountOverdrawnAfterMission 0
scalar OsgEarthNet.uav[5] utilizationCountIdleState 18
scalar OsgEarthNet.uav[5] utilizationFail 0
scalar OsgEarthNet.uav[5] simulationTime 259200
scalar OsgEarthNet.uav[6] utilizationSecMission 480
scalar OsgEarthNet.uav[6] utilizationSecMaintenance 447.1303002674
scalar OsgEarthNet.uav[6] utilizationSecCharge 3530
scalar OsgEarthNet.uav[6] utilizationSecIdle 254742.86869973
scalar OsgEarthNet.uav[6] utilizationEnergyMission 2509.3606872559
scalar OsgEarthNet.uav[6] utilizationEnergyMaintenance 2121.4076652527
scalar OsgEarthNet.uav[6] utilizationEnergyCharge 4448.00390625
scalar OsgEarthNet.uav[6] utilizationEnergyOverdrawMission 0
scalar OsgEarthNet.uav[6] utilizationEnergyOverdrawMaintenance 0
scalar OsgEarthNet.uav[6] utilizationCountMissions 1
scalar OsgEarthNet.uav[6] utilizationCountManeuversMission 24
scalar OsgEarthNet.uav[6] utilizationCountManeuversMaintenance 2
scalar OsgEarthNet.uav[6] utilizationCountChargeState 1
scalar OsgEarthNet.uav[6] utilizationCountOverdrawnAfterMission 0
scalar OsgEarthNet.uav[6] utilizationCountIdleState 2
scalar OsgEarthNet.uav[6] utilizationFail 0
scalar OsgEarthNet.uav[6] simulationTime 259200
scalar OsgEarthNet.uav[7] utilizationSecMission 11379.009458982
scalar OsgEarthNet.uav[7] utilizationSecMaintenance 8556.7363585973
scalar OsgEarthNet.uav[7] utilizationSecCharge 78730
scalar OsgEarthNet.uav[7] utilizationSecIdle 160534.25318242
scalar OsgEarthNet.uav[7] utilizationEnergyMission 55400.361415863
scalar OsgEarthNet.uav[7] utilizationEnergyMaintenance 40915.251232147
scalar OsgEarthNet.uav[7] utilizationEnergyCharge 96662.239990234
scalar OsgEarthNet.uav[7] utilizationEnergyOverdrawMission 0
scalar OsgEarthNet.uav[7] utilizationEnergyOverdrawMaintenance 0
scalar OsgEarthNet.uav[7] utilizationCountMissions 25
scalar OsgEarthNet.uav[7] utilizationCountManeuversMission 419
scalar OsgEarthNet.uav[7] utilizationCountManeuversMaintenance 50
scalar OsgEarthNet.uav[7] utilizationCountChargeState 25
scalar OsgEarthNet.uav[7] utilizationCountOverdrawnAfterMission 0
scalar OsgEarthNet.uav[7] utilizationCountIdleState 26
scalar OsgEarthNet.uav[7] utilizationFail 0
scalar OsgEarthNet.uav[7] simulationTime 259200
scalar OsgEarthNet.uav[8] utilizationSecMission 41222.399644646
scalar OsgEarthNet.uav[8] utilizationSecMaintenance 16565.926084375
scalar OsgEarthNet.uav[8] utilizationSecCharge 196959.67027098
scalar OsgEarthNet.uav[8] utilizationSecIdle 4452.003
scalar OsgEarthNet.uav[8] utilizationEnergyMission 198227.03038788
scalar OsgEarthNet.uav[8] utilizationEnergyMaintenance 74432.787174225
scalar OsgEarthNet.uav[8] utilizationEnergyCharge 271582.17993164
scalar OsgEarthNet.uav[8] utilizationEnergyOverdrawMission 0
scalar OsgEarthNet.uav[8] utilizationEnergyOverdrawMaintenance 0
scalar OsgEarthNet.uav[8] utilizationCountMissions 59
scalar OsgEarthNet.uav[8] utilizationCountManeuversMission 1130
scalar OsgEarthNet.uav[8] utilizationCountManeuversMaintenance 118
scalar OsgEarthNet.uav[8] utilizationCountChargeState 59
scalar OsgEarthNet.uav[8] utilizationCountOverdrawnAfterMission 0
scalar OsgEarthNet.uav[8] utilizationCountIdleState 18
scalar OsgEarthNet.uav[8] utilizationFail 0
scalar OsgEarthNet.uav[8] simulationTime 259200
scalar OsgEarthNet.uav[9] utilizationSecMission 460
scalar OsgEarthNet.uav[9] utilizationSecMaintenance 447.1303002674
scalar OsgEarthNet.uav[9] utilizationSecCharge 3570
scalar OsgEarthNet.uav[9] utilizationSecIdle 254722.86869973
scalar OsgEarthNet.uav[9] utilizationEnergyMission 2084.6888580322
scalar OsgEarthNet.uav[9] utilizationEnergyMaintenance 2118.8755607605
scalar OsgEarthNet.uav[9] utilizationEnergyCharge 4564.7578125
scalar OsgEarthNet.uav[9] utilizationEnergyOverdrawMission 0
scalar OsgEarthNet.uav[9] utilizationEnergyOverdrawMaintenance 0
scalar OsgEarthNet.uav[9] utilizationCountMissions 1
scalar OsgEarthNet.uav[9] utilizationCountManeuversMission 23
scalar OsgEarthNet.uav[9] utilizationCountManeuversMaintenance 2
scalar OsgEarthNet.uav[9] utilizationCountChargeState 1
scalar OsgEarthNet.uav[9] utilizationCountOverdrawnAfterMission 0
scalar OsgEarthNet.uav[9] utilizationCountIdleState 2
scalar OsgEarthNet.uav[9] utilizationFail 0
scalar OsgEarthNet.uav[9] simulationTime 259200
scalar OsgEarthNet.uav[10] utilizationSecMission 420
scalar OsgEarthNet.uav[10] utilizationSecMaintenance 447.1303002674
scalar OsgEarthNet.uav[10] utilizationSecCharge 3450
scalar OsgEarthNet.uav[10] utilizationSecIdle 254882.86869973
scalar OsgEarthNet.uav[10] utilizationEnergyMission 2081.2531433105
scalar OsgEarthNet.uav[10] utilizationEnergyMaintenance 2122.1226921081
scalar OsgEarthNet.uav[10] utilizationEnergyCharge 4354.0346679688
scalar OsgEarthNet.uav[10] utilizationEnergyOverdrawMission 0
scalar OsgEarthNet.uav[10] utilizationEnergyOverdrawMaintenance 0
scalar OsgEarthNet.uav[10] utilizationCountMissions 1
scalar OsgEarthNet.uav[10] utilizationCountManeuversMission 21
scalar OsgEarthNet.uav[10] utilizationCountManeuversMaintenance 2
scalar OsgEarthNet.uav[10] utilizationCountChargeState 1
scalar OsgEarthNet.uav[10] utilizationCountOverdrawnAfterMission 0
scalar OsgEarthNet.uav[10] utilizationCountIdleState 2
scalar OsgEarthNet.uav[10] utilizationFail 0
scalar OsgEarthNet.uav[10] simulationTime 259200
scalar OsgEarthNet.uav[11] utilizationSecMission 9681.5436907599
scalar OsgEarthNet.uav[11] utilizationSecMaintenance 6358.8940045693
scalar OsgEarthNet.uav[11] utilizationSecCharge 61270
scalar OsgEarthNet.uav[11] utilizationSecIdle 181889.56130467
scalar OsgEarthNet.uav[11] utilizationEnergyMission 47404.152877808
scalar OsgEarthNet.uav[11] utilizationEnergyMaintenance 30516.79573822
scalar OsgEarthNet.uav[11] utilizationEnergyCharge 77804.204345703
scalar OsgEarthNet.uav[11] utilizationEnergyOverdrawMission 0
scalar OsgEarthNet.uav[11] utilizationEnergyOverdrawMaintenance 0
scalar OsgEarthNet.uav[11] utilizationCountMissions 18
scalar OsgEarthNet.uav[11] utilizationCountManeuversMission 358
scalar OsgEarthNet.uav[11] utilizationCountManeuversMaintenance 36
scalar OsgEarthNet.uav[11] utilizationCountChargeState 18
scalar OsgEarthNet.uav[11] utilizationCountOverdrawnAfterMission 0
scalar OsgEarthNet.uav[11] utilizationCountIdleState 19
scalar OsgEarthNet.uav[11] utilizationFail 0
scalar OsgEarthNet.uav[11] simulationTime 259200
scalar OsgEarthNet.uav[12] utilizationSecMission 39829.758411519
scalar OsgEarthNet.uav[12] utilizationSecMaintenance 18029.457982946
scalar OsgEarthNet.uav[12] utilizationSecCharge 198796.28466436
scalar OsgEarthNet.uav[12] utilizationSecIdle 2544.4979411756
scalar OsgEarthNet.uav[12] utilizationEnergyMission 192530.25377655
scalar OsgEarthNet.uav[12] utilizationEnergyMaintenance 83702.763973236
scalar OsgEarthNet.uav[12] utilizationEnergyCharge 275651.17138672
scalar OsgEarthNet.uav[12] utilizationEnergyOverdrawMission 0
scalar OsgEarthNet.uav[12] utilizationEnergyOverdrawMaintenance 0
scalar OsgEarthNet.uav[12] utilizationCountMissions 60
scalar OsgEarthNet.uav[12] utilizationCountManeuversMission 1263
scalar OsgEarthNet.uav[12] utilizationCountManeuversMaintenance 120
scalar OsgEarthNet.uav[12] utilizationCountChargeState 60
scalar OsgEarthNet.uav[12] utilizationCountOverdrawnAfterMission 0
scalar OsgEarthNet.uav[12] utilizationCountIdleState 16
scalar OsgEarthNet.uav[12] utilizationFail 0
scalar OsgEarthNet.uav[12] simulationTime 259200
scalar OsgEarthNet.uav[13] utilizationSecMission 9613.4928767311
scalar OsgEarthNet.uav[13] utilizationSecMaintenance 6201.0241513093
scalar OsgEarthNet.uav[13] utilizationSecCharge 59360
scalar OsgEarthNet.uav[13] utilizationSecIdle 184025.48197196
scalar OsgEarthNet.uav[13] utilizationEnergyMission 48858.823383331
scalar OsgEarthNet.uav[13] utilizationEnergyMaintenance 29332.829021454
scalar OsgEarthNet.uav[13] utilizationEnergyCharge 76267.726074219
scalar OsgEarthNet.uav[13] utilizationEnergyOverdrawMission 0
scalar OsgEarthNet.uav[13] utilizationEnergyOverdrawMaintenance 0
scalar OsgEarthNet.uav[13] utilizationCountMissions 17
scalar OsgEarthNet.uav[13] utilizationCountManeuversMission 329
scalar OsgEarthNet.uav[13] utilizationCountManeuversMaintenance 34
scalar OsgEarthNet.uav[13] utilizationCountChargeState 17
scalar OsgEarthNet.uav[13] utilizationCountOverdrawnAfterMission 0
scalar OsgEarthNet.uav[13] utilizationCountIdleState 18
scalar OsgEarthNet.uav[13] utilizationFail 0
scalar OsgEarthNet.uav[13] simulationTime 259200
scalar OsgEarthNet.uav[14] utilizationSecMission 8691.9981258772
scalar OsgEarthNet.uav[14] utilizationSecMaintenance 5957.2825382144
scalar OsgEarthNet.uav[14] utilizationSecCharge 56290
scalar OsgEarthNet.uav[14] utilizationSecIdle 188260.71833591
scalar OsgEarthNet.uav[14] utilizationEnergyMission 42182.214183807
scalar OsgEarthNet.uav[14] utilizationEnergyMaintenance 28419.231884003
scalar OsgEarthNet.uav[14] utilizationEnergyCharge 70604.620605469
scalar OsgEarthNet.uav[14] utilizationEnergyOverdrawMission 0
scalar OsgEarthNet.uav[14] utilizationEnergyOverdrawMaintenance 0
scalar OsgEarthNet.uav[14] utilizationCountMissions 17
scalar OsgEarthNet.uav[14] utilizationCountManeuversMission 323
scalar OsgEarthNet.uav[14] utilizationCountManeuversMaintenance 34
scalar OsgEarthNet.uav[14] utilizationCountChargeState 17
scalar OsgEarthNet.uav[14] utilizationCountOverdrawnAfterMission 0
scalar OsgEarthNet.uav[14] utilizationCountIdleState 18
scalar OsgEarthNet.uav[14] utilizationFail 0
scalar OsgEarthNet.uav[14] simulationTime 259200
scalar OsgEarthNet.uav[15] utilizationSecMission 41133.873097366
scalar OsgEarthNet.uav[15] utilizationSecMaintenance 16966.494821968
scalar OsgEarthNet.uav[15] utilizationSecCharge 196620
scalar OsgEarthNet.uav[15] utilizationSecIdle 4479.6310806652
scalar OsgEarthNet.uav[15] utilizationEnergyMission 198387.74948574
scalar OsgEarthNet.uav[15] utilizationEnergyMaintenance 77650.70570755
scalar OsgEarthNet.uav[15] utilizationEnergyCharge 271884.19213867
scalar OsgEarthNet.uav[15] utilizationEnergyOverdrawMission 0
scalar OsgEarthNet.uav[15] utilizationEnergyOverdrawMaintenance 0
scalar OsgEarthNet.uav[15] utilizationCountMissions 59
scalar OsgEarthNet.uav[15] utilizationCountManeuversMission 1197
scalar OsgEarthNet.uav[15] utilizationCountManeuversMaintenance 119
scalar OsgEarthNet.uav[15] utilizationCountChargeState 59
scalar OsgEarthNet.uav[15] utilizationCountOverdrawnAfterMission 0
scalar OsgEarthNet.uav[15] utilizationCountIdleState 16
scalar OsgEarthNet.uav[15] utilizationFail 0
scalar OsgEarthNet.uav[15] simulationTime 259200
scalar OsgEarthNet.uav[16] utilizationSecMission 18443.639034465
scalar OsgEarthNet.uav[16] utilizationSecMaintenance 10135.300429271
scalar OsgEarthNet.uav[16] utilizationSecCharge 103899.05953626
scalar OsgEarthNet.uav[16] utilizationSecIdle 126722
scalar OsgEarthNet.uav[16] utilizationEnergyMission 88131.073257446
scalar OsgEarthNet.uav[16] utilizationEnergyMaintenance 47602.261146545
scalar OsgEarthNet.uav[16] utilizationEnergyCharge 134644.43994141
scalar OsgEarthNet.uav[16] utilizationEnergyOverdrawMission 0
scalar OsgEarthNet.uav[16] utilizationEnergyOverdrawMaintenance 0
scalar OsgEarthNet.uav[16] utilizationCountMissions 30
scalar OsgEarthNet.uav[16] utilizationCountManeuversMission 531
scalar OsgEarthNet.uav[16] utilizationCountManeuversMaintenance 59
scalar OsgEarthNet.uav[16] utilizationCountChargeState 30
scalar OsgEarthNet.uav[16] utilizationCountOverdrawnAfterMission 0
scalar OsgEarthNet.uav[16] utilizationCountIdleState 30
scalar OsgEarthNet.uav[16] utilizationFail 0
scalar OsgEarthNet.uav[16] simulationTime 259200
scalar OsgEarthNet.uav[17] utilizationSecMission 15542.914534486
scalar OsgEarthNet.uav[17] utilizationSecMaintenance 11436.120479841
scalar OsgEarthNet.uav[17] utilizationSecCharge 104830
scalar OsgEarthNet.uav[17] utilizationSecIdle 127390.96398567
scalar OsgEarthNet.uav[17] utilizationEnergyMission 76397.376348636
scalar OsgEarthNet.uav[17] utilizationEnergyMaintenance 54491.919151306
scalar OsgEarthNet.uav[17] utilizationEnergyCharge 129236.79443359
scalar OsgEarthNet.uav[17] utilizationEnergyOverdrawMission 0
scalar OsgEarthNet.uav[17] utilizationEnergyOverdrawMaintenance 0
scalar OsgEarthNet.uav[17] utilizationCountMissions 33
scalar OsgEarthNet.uav[17] utilizationCountManeuversMission 568
scalar OsgEarthNet.uav[17] utilizationCountManeuversMaintenance 67
scalar OsgEarthNet.uav[17] utilizationCountChargeState 33
scalar OsgEarthNet.uav[17] utilizationCountOverdrawnAfterMission 0
scalar OsgEarthNet.uav[17] utilizationCountIdleState 34
scalar OsgEarthNet.uav[17] utilizationFail 0
scalar OsgEarthNet.uav[17] simulationTime 259200
scalar OsgEarthNet.uav[18] utilizationSecMission 40249.743029129
scalar OsgEarthNet.uav[18] utilizationSecMaintenance 16746.794928096
scalar OsgEarthNet.uav[18] utilizationSecCharge 196650
scalar OsgEarthNet.uav[18] utilizationSecIdle 5553.4610427756
scalar OsgEarthNet.uav[18] utilizationEnergyMission 193003.14019758
scalar OsgEarthNet.uav[18] utilizationEnergyMaintenance 77472.841312408
scalar OsgEarthNet.uav[18] utilizationEnergyCharge 270381.9296875
scalar OsgEarthNet.uav[18] utilizationEnergyOverdrawMission 0
scalar OsgEarthNet.uav[18] utilizationEnergyOverdrawMaintenance 0
scalar OsgEarthNet.uav[18] utilizationCountMissions 58
scalar OsgEarthNet.uav[18] utilizationCountManeuversMission 1105
scalar OsgEarthNet.uav[18] utilizationCountManeuversMaintenance 117
scalar OsgEarthNet.uav[18] utilizationCountChargeState 58
scalar OsgEarthNet.uav[18] utilizationCountOverdrawnAfterMission 0
scalar OsgEarthNet.uav[18] utilizationCountIdleState 20
scalar OsgEarthNet.uav[18] utilizationFail 0
scalar OsgEarthNet.uav[18] simulationTime 259200
scalar OsgEarthNet.uav[19] utilizationSecMission 12075.993487052
scalar OsgEarthNet.uav[19] utilizationSecMaintenance 6721.1032294856
scalar OsgEarthNet.uav[19] utilizationSecCharge 70190
scalar OsgEarthNet.uav[19] utilizationSecIdle 170212.90228346
scalar OsgEarthNet.uav[19] utilizationEnergyMission 58114.786201477
scalar OsgEarthNet.uav[19] utilizationEnergyMaintenance 31624.824653625
scalar OsgEarthNet.uav[19] utilizationEnergyCharge 90405.321777344
scalar OsgEarthNet.uav[19] utilizationEnergyOverdrawMission 0
scalar OsgEarthNet.uav[19] utilizationEnergyOverdrawMaintenance 0
scalar OsgEarthNet.uav[19] utilizationCountMissions 20
scalar OsgEarthNet.uav[19] utilizationCountManeuversMission 348
scalar OsgEarthNet.uav[19] utilizationCountManeuversMaintenance 40
scalar OsgEarthNet.uav[19] utilizationCountChargeState 20
scalar OsgEarthNet.uav[19] utilizationCountOverdrawnAfterMission 0
scalar OsgEarthNet.uav[19] utilizationCountIdleState 21
scalar OsgEarthNet.uav[19] utilizationFail 0
scalar OsgEarthNet.uav[19] simulationTime 259200
scalar OsgEarthNet.uav[20] utilizationSecMission 12926.876678383
scalar OsgEarthNet.uav[20] utilizationSecMaintenance 6871.1974398641
scalar OsgEarthNet.uav[20] utilizationSecCharge 74180
scalar OsgEarthNet.uav[20] utilizationSecIdle 165221.92488175
scalar OsgEarthNet.uav[20] utilizationEnergyMission 62334.74123764
scalar OsgEarthNet.uav[20] utilizationEnergyMaintenance 32842.042701721
scalar OsgEarthNet.uav[20] utilizationEnergyCharge 95579.322265625
scalar OsgEarthNet.uav[20] utilizationEnergyOverdrawMission 0
scalar OsgEarthNet.uav[20] utilizationEnergyOverdrawMaintenance 0
scalar OsgEarthNet.uav[20] utilizationCountMissions 21
scalar OsgEarthNet.uav[20] utilizationCountManeuversMission 360
scalar OsgEarthNet.uav[20] utilizationCountManeuversMaintenance 42
scalar OsgEarthNet.uav[20] utilizationCountChargeState 21
scalar OsgEarthNet.uav[20] utilizationCountOverdrawnAfterMission 0
scalar OsgEarthNet.uav[20] utilizationCountIdleState 22
scalar OsgEarthNet.uav[20] utilizationFail 0
scalar OsgEarthNet.uav[20] simulationTime 259200
scalar OsgEarthNet.uav[21] utilizationSecMission 13631.007584859
scalar OsgEarthNet.uav[21] utilizationSecMaintenance 9768.4414823335
scalar OsgEarthNet.uav[21] utilizationSecCharge 93150
scalar OsgEarthNet.uav[21] utilizationSecIdle 142650.54993281
scalar OsgEarthNet.uav[21] utilizationEnergyMission 67109.898921967
scalar OsgEarthNet.uav[21] utilizationEnergyMaintenance 47131.290107727
scalar OsgEarthNet.uav[21] utilizationEnergyCharge 113640.04345703
scalar OsgEarthNet.uav[21] utilizationEnergyOverdrawMission 0
scalar OsgEarthNet.uav[21] utilizationEnergyOverdrawMaintenance 0
scalar OsgEarthNet.uav[21] utilizationCountMissions 30
scalar OsgEarthNet.uav[21] utilizationCountManeuversMission 420
scalar OsgEarthNet.uav[21] utilizationCountManeuversMaintenance 60
scalar OsgEarthNet.uav[21] utilizationCountChargeState 30
scalar OsgEarthNet.uav[21] utilizationCountOverdrawnAfterMission 0
scalar OsgEarthNet.uav[21] utilizationCountIdleState 31
scalar OsgEarthNet.uav[21] utilizationFail 0
scalar OsgEarthNet.uav[21] simulationTime 259200
scalar OsgEarthNet.uav[22] utilizationSecMission 39862.702227186
scalar OsgEarthNet.uav[22] utilizationSecMaintenance 17503.568502723
scalar OsgEarthNet.uav[22] utilizationSecCharge 195803.68572268
scalar OsgEarthNet.uav[22] utilizationSecIdle 6030.0425474148
scalar OsgEarthNet.uav[22] utilizationEnergyMission 190883.97621918
scalar OsgEarthNet.uav[22] utilizationEnergyMaintenance 80762.671482086
scalar OsgEarthNet.uav[22] utilizationEnergyCharge 270774.31933594
scalar OsgEarthNet.uav[22] utilizationEnergyOverdrawMission 0
scalar OsgEarthNet.uav[22] utilizationEnergyOverdrawMaintenance 0
scalar OsgEarthNet.uav[22] utilizationCountMissions 59
scalar OsgEarthNet.uav[22] utilizationCountManeuversMission 1089
scalar OsgEarthNet.uav[22] utilizationCountManeuversMaintenance 118
scalar OsgEarthNet.uav[22] utilizationCountChargeState 59
scalar OsgEarthNet.uav[22] utilizationCountOverdrawnAfterMission 0
scalar OsgEarthNet.uav[22] utilizationCountIdleState 18
scalar OsgEarthNet.uav[22] utilizationFail 0
scalar OsgEarthNet.uav[22] simulationTime 259200
scalar OsgEarthNet.uav[23] utilizationSecMission 11685.001220642
scalar OsgEarthNet.uav[23] utilizationSecMaintenance 7176.4709426119
scalar OsgEarthNet.uav[23] utilizationSecCharge 70620
scalar OsgEarthNet.uav[23] utilizationSecIdle 169718.52683675
scalar OsgEarthNet.uav[23] utilizationEnergyMission 56433.894939423
scalar OsgEarthNet.uav[23] utilizationEnergyMaintenance 33961.202194214
scalar OsgEarthNet.uav[23] utilizationEnergyCharge 91155.024414062
scalar OsgEarthNet.uav[23] utilizationEnergyOverdrawMission 0
scalar OsgEarthNet.uav[23] utilizationEnergyOverdrawMaintenance 0
scalar OsgEarthNet.uav[23] utilizationCountMissions 20
scalar OsgEarthNet.uav[23] utilizationCountManeuversMission 376
scalar OsgEarthNet.uav[23] utilizationCountManeuversMaintenance 40
scalar OsgEarthNet.uav[23] utilizationCountChargeState 20
scalar OsgEarthNet.uav[23] utilizationCountOverdrawnAfterMission 0
scalar OsgEarthNet.uav[23] utilizationCountIdleState 21
scalar OsgEarthNet.uav[23] utilizationFail 0
scalar OsgEarthNet.uav[23] simulationTime 259200
scalar OsgEarthNet.uav[24] utilizationSecMission 16193.541816637
scalar OsgEarthNet.uav[24] utilizationSecMaintenance 10734.501944164
scalar OsgEarthNet.uav[24] utilizationSecCharge 102790
scalar OsgEarthNet.uav[24] utilizationSecIdle 129481.9552392
scalar OsgEarthNet.uav[24] utilizationEnergyMission 81837.663768768
scalar OsgEarthNet.uav[24] utilizationEnergyMaintenance 50797.502490997
scalar OsgEarthNet.uav[24] utilizationEnergyCharge 129297.90209961
scalar OsgEarthNet.uav[24] utilizationEnergyOverdrawMission 0
scalar OsgEarthNet.uav[24] utilizationEnergyOverdrawMaintenance 0
scalar OsgEarthNet.uav[24] utilizationCountMissions 31
scalar OsgEarthNet.uav[24] utilizationCountManeuversMission 572
scalar OsgEarthNet.uav[24] utilizationCountManeuversMaintenance 62
scalar OsgEarthNet.uav[24] utilizationCountChargeState 31
scalar OsgEarthNet.uav[24] utilizationCountOverdrawnAfterMission 0
scalar OsgEarthNet.uav[24] utilizationCountIdleState 32
scalar OsgEarthNet.uav[24] utilizationFail 0
scalar OsgEarthNet.uav[24] simulationTime 259200
scalar OsgEarthNet.uav[25] utilizationSecMission 40521.120036993
scalar OsgEarthNet.uav[25] utilizationSecMaintenance 17087.529890344
scalar OsgEarthNet.uav[25] utilizationSecCharge 196691.89072457
scalar OsgEarthNet.uav[25] utilizationSecIdle 4899.4583480894
scalar OsgEarthNet.uav[25] utilizationEnergyMission 196033.89535141
scalar OsgEarthNet.uav[25] utilizationEnergyMaintenance 77909.575145721
scalar OsgEarthNet.uav[25] utilizationEnergyCharge 270494.94699097
scalar OsgEarthNet.uav[25] utilizationEnergyOverdrawMission 0
scalar OsgEarthNet.uav[25] utilizationEnergyOverdrawMaintenance 0
scalar OsgEarthNet.uav[25] utilizationCountMissions 60
scalar OsgEarthNet.uav[25] utilizationCountManeuversMission 1313
scalar OsgEarthNet.uav[25] utilizationCountManeuversMaintenance 120
scalar OsgEarthNet.uav[25] utilizationCountChargeState 60
scalar OsgEarthNet.uav[25] utilizationCountOverdrawnAfterMission 0
scalar OsgEarthNet.uav[25] utilizationCountIdleState 20
scalar OsgEarthNet.uav[25] utilizationFail 0
scalar OsgEarthNet.uav[25] simulationTime 259200
scalar OsgEarthNet.uav[26] utilizationSecMission 12876.509564553
scalar OsgEarthNet.uav[26] utilizationSecMaintenance 7082.3196362772
scalar OsgEarthNet.uav[26] utilizationSecCharge 73540
scalar OsgEarthNet.uav[26] utilizationSecIdle 165701.16979917
scalar OsgEarthNet.uav[26] utilizationEnergyMission 62531.335147858
scalar OsgEarthNet.uav[26] utilizationEnergyMaintenance 33589.067317963
scalar OsgEarthNet.uav[26] utilizationEnergyCharge 94539.872070312
scalar OsgEarthNet.uav[26] utilizationEnergyOverdrawMission 0
scalar OsgEarthNet.uav[26] utilizationEnergyOverdrawMaintenance 0
scalar OsgEarthNet.uav[26] utilizationCountMissions 21
scalar OsgEarthNet.uav[26] utilizationCountManeuversMission 379
scalar OsgEarthNet.uav[26] utilizationCountManeuversMaintenance 42
scalar OsgEarthNet.uav[26] utilizationCountChargeState 21
scalar OsgEarthNet.uav[26] utilizationCountOverdrawnAfterMission 0
scalar OsgEarthNet.uav[26] utilizationCountIdleState 22
scalar OsgEarthNet.uav[26] utilizationFail 0
scalar OsgEarthNet.uav[26] simulationTime 259200
scalar OsgEarthNet.uav[27] utilizationSecMission 16238.30738861
scalar OsgEarthNet.uav[27] utilizationSecMaintenance 11789.704857898
scalar OsgEarthNet.uav[27] utilizationSecCharge 109590
scalar OsgEarthNet.uav[27] utilizationSecIdle 121581.98675349
scalar OsgEarthNet.uav[27] utilizationEnergyMission 80427.369056702
scalar OsgEarthNet.uav[27] utilizationEnergyMaintenance 55872.67943573
scalar OsgEarthNet.uav[27] utilizationEnergyCharge 136074.26586914
scalar OsgEarthNet.uav[27] utilizationEnergyOverdrawMission 0
scalar OsgEarthNet.uav[27] utilizationEnergyOverdrawMaintenance 0
scalar OsgEarthNet.uav[27] utilizationCountMissions 34
scalar OsgEarthNet.uav[27] utilizationCountManeuversMission 610
scalar OsgEarthNet.uav[27] utilizationCountManeuversMaintenance 68
scalar OsgEarthNet.uav[27] utilizationCountChargeState 34
scalar OsgEarthNet.uav[27] utilizationCountOverdrawnAfterMission 0
scalar OsgEarthNet.uav[27] utilizationCountIdleState 35
scalar OsgEarthNet.uav[27] utilizationFail 0
scalar OsgEarthNet.uav[27] simulationTime 259200
scalar OsgEarthNet.uav[28] utilizationSecMission 40153.252634963
scalar OsgEarthNet.uav[28] utilizationSecMaintenance 17741.286936134
scalar OsgEarthNet.uav[28] utilizationSecCharge 198303.4584289
scalar OsgEarthNet.uav[28] utilizationSecIdle 3002.001
scalar OsgEarthNet.uav[28] utilizationEnergyMission 196154.21887589
scalar OsgEarthNet.uav[28] utilizationEnergyMaintenance 82223.663219452
scalar OsgEarthNet.uav[28] utilizationEnergyCharge 273656.97729492
scalar OsgEarthNet.uav[28] utilizationEnergyOverdrawMission 0
scalar OsgEarthNet.uav[28] utilizationEnergyOverdrawMaintenance 0
scalar OsgEarthNet.uav[28] utilizationCountMissions 60
scalar OsgEarthNet.uav[28] utilizationCountManeuversMission 1152
scalar OsgEarthNet.uav[28] utilizationCountManeuversMaintenance 120
scalar OsgEarthNet.uav[28] utilizationCountChargeState 60
scalar OsgEarthNet.uav[28] utilizationCountOverdrawnAfterMission 0
scalar OsgEarthNet.uav[28] utilizationCountIdleState 20
scalar OsgEarthNet.uav[28] utilizationFail 0
scalar OsgEarthNet.uav[28] simulationTime 259200
scalar OsgEarthNet.uav[29] utilizationSecMission 9853.383801652
scalar OsgEarthNet.uav[29] utilizationSecMaintenance 6836.5173953565
scalar OsgEarthNet.uav[29] utilizationSecCharge 63140
scalar OsgEarthNet.uav[29] utilizationSecIdle 179370.09780299
scalar OsgEarthNet.uav[29] utilizationEnergyMission 47429.141017914
scalar OsgEarthNet.uav[29] utilizationEnergyMaintenance 32429.073356628
scalar OsgEarthNet.uav[29] utilizationEnergyCharge 81200.66015625
scalar OsgEarthNet.uav[29] utilizationEnergyOverdrawMission 0
scalar OsgEarthNet.uav[29] utilizationEnergyOverdrawMaintenance 0
scalar OsgEarthNet.uav[29] utilizationCountMissions 18
scalar OsgEarthNet.uav[29] utilizationCountManeuversMission 358
scalar OsgEarthNet.uav[29] utilizationCountManeuversMaintenance 36
scalar OsgEarthNet.uav[29] utilizationCountChargeState 18
scalar OsgEarthNet.uav[29] utilizationCountOverdrawnAfterMission 0
scalar OsgEarthNet.uav[29] utilizationCountIdleState 19
scalar OsgEarthNet.uav[29] utilizationFail 0
scalar OsgEarthNet.uav[29] simulationTime 259200
scalar OsgEarthNet.uav[30] utilizationSecMission 14306.767603304
scalar OsgEarthNet.uav[30] utilizationSecMaintenance 8391.5228170683
scalar OsgEarthNet.uav[30] utilizationSecCharge 84039.686579628
scalar OsgEarthNet.uav[30] utilizationSecIdle 152462.022
scalar OsgEarthNet.uav[30] utilizationEnergyMission 67810.262653351
scalar OsgEarthNet.uav[30] utilizationEnergyMaintenance 40125.942474365
scalar OsgEarthNet.uav[30] utilizationEnergyCharge 108543.76123047
scalar OsgEarthNet.uav[30] utilizationEnergyOverdrawMission 0
scalar OsgEarthNet.uav[30] utilizationEnergyOverdrawMaintenance 0
scalar OsgEarthNet.uav[30] utilizationCountMissions 24
scalar OsgEarthNet.uav[30] utilizationCountManeuversMission 446
scalar OsgEarthNet.uav[30] utilizationCountManeuversMaintenance 48
scalar OsgEarthNet.uav[30] utilizationCountChargeState 24
scalar OsgEarthNet.uav[30] utilizationCountOverdrawnAfterMission 0
scalar OsgEarthNet.uav[30] utilizationCountIdleState 24
scalar OsgEarthNet.uav[30] utilizationFail 0
scalar OsgEarthNet.uav[30] simulationTime 259200
scalar OsgEarthNet.uav[31] utilizationSecMission 16563.08738152
scalar OsgEarthNet.uav[31] utilizationSecMaintenance 10750.723761024
scalar OsgEarthNet.uav[31] utilizationSecCharge 104313.463391
scalar OsgEarthNet.uav[31] utilizationSecIdle 127572.72446646
scalar OsgEarthNet.uav[31] utilizationEnergyMission 82401.763408661
scalar OsgEarthNet.uav[31] utilizationEnergyMaintenance 51281.441345215
scalar OsgEarthNet.uav[31] utilizationEnergyCharge 132562.59204102
scalar OsgEarthNet.uav[31] utilizationEnergyOverdrawMission 0
scalar OsgEarthNet.uav[31] utilizationEnergyOverdrawMaintenance 0
scalar OsgEarthNet.uav[31] utilizationCountMissions 31
scalar OsgEarthNet.uav[31] utilizationCountManeuversMission 576
scalar OsgEarthNet.uav[31] utilizationCountManeuversMaintenance 62
scalar OsgEarthNet.uav[31] utilizationCountChargeState 31
scalar OsgEarthNet.uav[31] utilizationCountOverdrawnAfterMission 0
scalar OsgEarthNet.uav[31] utilizationCountIdleState 31
scalar OsgEarthNet.uav[31] utilizationFail 0
scalar OsgEarthNet.uav[31] simulationTime 259200
scalar OsgEarthNet.uav[32] utilizationSecMission 38989.790749338
scalar OsgEarthNet.uav[32] utilizationSecMaintenance 18443.840841212
scalar OsgEarthNet.uav[32] utilizationSecCharge 196270.34415395
scalar OsgEarthNet.uav[32] utilizationSecIdle 5496.0232554966
scalar OsgEarthNet.uav[32] utilizationEnergyMission 188109.45761871
scalar OsgEarthNet.uav[32] utilizationEnergyMaintenance 84908.874660492
scalar OsgEarthNet.uav[32] utilizationEnergyCharge 273562.56079102
scalar OsgEarthNet.uav[32] utilizationEnergyOverdrawMission 0
scalar OsgEarthNet.uav[32] utilizationEnergyOverdrawMaintenance 0
scalar OsgEarthNet.uav[32] utilizationCountMissions 60
scalar OsgEarthNet.uav[32] utilizationCountManeuversMission 1256
scalar OsgEarthNet.uav[32] utilizationCountManeuversMaintenance 120
scalar OsgEarthNet.uav[32] utilizationCountChargeState 60
scalar OsgEarthNet.uav[32] utilizationCountOverdrawnAfterMission 0
scalar OsgEarthNet.uav[32] utilizationCountIdleState 17
scalar OsgEarthNet.uav[32] utilizationFail 0
scalar OsgEarthNet.uav[32] simulationTime 259200
scalar OsgEarthNet.uav[33] utilizationSecMission 11025.001220642
scalar OsgEarthNet.uav[33] utilizationSecMaintenance 6554.3045718242
scalar OsgEarthNet.uav[33] utilizationSecCharge 66310
scalar OsgEarthNet.uav[33] utilizationSecIdle 175310.69320753
scalar OsgEarthNet.uav[33] utilizationEnergyMission 53712.719814301
scalar OsgEarthNet.uav[33] utilizationEnergyMaintenance 31251.698612213
scalar OsgEarthNet.uav[33] utilizationEnergyCharge 85140.185058594
scalar OsgEarthNet.uav[33] utilizationEnergyOverdrawMission 0
scalar OsgEarthNet.uav[33] utilizationEnergyOverdrawMaintenance 0
scalar OsgEarthNet.uav[33] utilizationCountMissions 19
scalar OsgEarthNet.uav[33] utilizationCountManeuversMission 343
scalar OsgEarthNet.uav[33] utilizationCountManeuversMaintenance 38
scalar OsgEarthNet.uav[33] utilizationCountChargeState 19
scalar OsgEarthNet.uav[33] utilizationCountOverdrawnAfterMission 0
scalar OsgEarthNet.uav[33] utilizationCountIdleState 20
scalar OsgEarthNet.uav[33] utilizationFail 0
scalar OsgEarthNet.uav[33] simulationTime 259200
scalar OsgEarthNet.uav[34] utilizationSecMission 22365.539942514
scalar OsgEarthNet.uav[34] utilizationSecMaintenance 14724.720234263
scalar OsgEarthNet.uav[34] utilizationSecCharge 142880
scalar OsgEarthNet.uav[34] utilizationSecIdle 79229.738823222
scalar OsgEarthNet.uav[34] utilizationEnergyMission 107905.72766495
scalar OsgEarthNet.uav[34] utilizationEnergyMaintenance 70392.348526001
scalar OsgEarthNet.uav[34] utilizationEnergyCharge 179516.4699707
scalar OsgEarthNet.uav[34] utilizationEnergyOverdrawMission 0
scalar OsgEarthNet.uav[34] utilizationEnergyOverdrawMaintenance 0
scalar OsgEarthNet.uav[34] utilizationCountMissions 43
scalar OsgEarthNet.uav[34] utilizationCountManeuversMission 769
scalar OsgEarthNet.uav[34] utilizationCountManeuversMaintenance 86
scalar OsgEarthNet.uav[34] utilizationCountChargeState 43
scalar OsgEarthNet.uav[34] utilizationCountOverdrawnAfterMission 0
scalar OsgEarthNet.uav[34] utilizationCountIdleState 44
scalar OsgEarthNet.uav[34] utilizationFail 0
scalar OsgEarthNet.uav[34] simulationTime 259200
scalar OsgEarthNet.uav[35] utilizationSecMission 41375.670241742
scalar OsgEarthNet.uav[35] utilizationSecMaintenance 17326.032749053
scalar OsgEarthNet.uav[35] utilizationSecCharge 196619.44786192
scalar OsgEarthNet.uav[35] utilizationSecIdle 3878.8481472892
scalar OsgEarthNet.uav[35] utilizationEnergyMission 199589.94765854
scalar OsgEarthNet.uav[35] utilizationEnergyMaintenance 79379.060314178
scalar OsgEarthNet.uav[35] utilizationEnergyCharge 272794.00341797
scalar OsgEarthNet.uav[35] utilizationEnergyOverdrawMission 0
scalar OsgEarthNet.uav[35] utilizationEnergyOverdrawMaintenance 0
scalar OsgEarthNet.uav[35] utilizationCountMissions 60
scalar OsgEarthNet.uav[35] utilizationCountManeuversMission 1181
scalar OsgEarthNet.uav[35] utilizationCountManeuversMaintenance 120
scalar OsgEarthNet.uav[35] utilizationCountChargeState 60
scalar OsgEarthNet.uav[35] utilizationCountOverdrawnAfterMission 0
scalar OsgEarthNet.uav[35] utilizationCountIdleState 11
scalar OsgEarthNet.uav[35] utilizationFail 0
scalar OsgEarthNet.uav[35] simulationTime 259200
scalar OsgEarthNet.uav[36] utilizationSecMission 10203.125762901
scalar OsgEarthNet.uav[36] utilizationSecMaintenance 7317.041121964
scalar OsgEarthNet.uav[36] utilizationSecCharge 66670
scalar OsgEarthNet.uav[36] utilizationSecIdle 175009.83211513
scalar OsgEarthNet.uav[36] utilizationEnergyMission 51111.268718719
scalar OsgEarthNet.uav[36] utilizationEnergyMaintenance 34715.851505279
scalar OsgEarthNet.uav[36] utilizationEnergyCharge 85791.162109375
scalar OsgEarthNet.uav[36] utilizationEnergyOverdrawMission 0
scalar OsgEarthNet.uav[36] utilizationEnergyOverdrawMaintenance 0
scalar OsgEarthNet.uav[36] utilizationCountMissions 19
scalar OsgEarthNet.uav[36] utilizationCountManeuversMission 380
scalar OsgEarthNet.uav[36] utilizationCountManeuversMaintenance 38
scalar OsgEarthNet.uav[36] utilizationCountChargeState 19
scalar OsgEarthNet.uav[36] utilizationCountOverdrawnAfterMission 0
scalar OsgEarthNet.uav[36] utilizationCountIdleState 20
scalar OsgEarthNet.uav[36] utilizationFail 0
scalar OsgEarthNet.uav[36] simulationTime 259200
scalar OsgEarthNet.uav[37] utilizationSecMission 18326.862412474
scalar OsgEarthNet.uav[37] utilizationSecMaintenance 13244.158506983
scalar OsgEarthNet.uav[37] utilizationSecCharge 123048.9578064
scalar OsgEarthNet.uav[37] utilizationSecIdle 104580.02027414
scalar OsgEarthNet.uav[37] utilizationEnergyMission 88310.923492432
scalar OsgEarthNet.uav[37] utilizationEnergyMaintenance 63023.050163269
scalar OsgEarthNet.uav[37] utilizationEnergyCharge 149671.27392578
scalar OsgEarthNet.uav[37] utilizationEnergyOverdrawMission 0
scalar OsgEarthNet.uav[37] utilizationEnergyOverdrawMaintenance 0
scalar OsgEarthNet.uav[37] utilizationCountMissions 41
scalar OsgEarthNet.uav[37] utilizationCountManeuversMission 550
scalar OsgEarthNet.uav[37] utilizationCountManeuversMaintenance 82
scalar OsgEarthNet.uav[37] utilizationCountChargeState 41
scalar OsgEarthNet.uav[37] utilizationCountOverdrawnAfterMission 0
scalar OsgEarthNet.uav[37] utilizationCountIdleState 41
scalar OsgEarthNet.uav[37] utilizationFail 0
scalar OsgEarthNet.uav[37] simulationTime 259200
scalar OsgEarthNet.uav[38] utilizationSecMission 30789.533191561
scalar OsgEarthNet.uav[38] utilizationSecMaintenance 15107.109758247
scalar OsgEarthNet.uav[38] utilizationSecCharge 164610
scalar OsgEarthNet.uav[38] utilizationSecIdle 48693.356050192
scalar OsgEarthNet.uav[38] utilizationEnergyMission 148702.3686676
scalar OsgEarthNet.uav[38] utilizationEnergyMaintenance 70371.199638367
scalar OsgEarthNet.uav[38] utilizationEnergyCharge 219063.66333008
scalar OsgEarthNet.uav[38] utilizationEnergyOverdrawMission 0
scalar OsgEarthNet.uav[38] utilizationEnergyOverdrawMaintenance 0
scalar OsgEarthNet.uav[38] utilizationCountMissions 50
scalar OsgEarthNet.uav[38] utilizationCountManeuversMission 919
scalar OsgEarthNet.uav[38] utilizationCountManeuversMaintenance 100
scalar OsgEarthNet.uav[38] utilizationCountChargeState 50
scalar OsgEarthNet.uav[38] utilizationCountOverdrawnAfterMission 0
scalar OsgEarthNet.uav[38] utilizationCountIdleState 27
scalar OsgEarthNet.uav[38] utilizationFail 0
scalar OsgEarthNet.uav[38] simulationTime 259200
scalar OsgEarthNet.uav[39] utilizationSecMission 12043.859990561
scalar OsgEarthNet.uav[39] utilizationSecMaintenance 8217.0292686022
scalar OsgEarthNet.uav[39] utilizationSecCharge 76710
scalar OsgEarthNet.uav[39] utilizationSecIdle 162229.10974084
scalar OsgEarthNet.uav[39] utilizationEnergyMission 59175.920181274
scalar OsgEarthNet.uav[39] utilizationEnergyMaintenance 38961.557746887
scalar OsgEarthNet.uav[39] utilizationEnergyCharge 98335.460449219
scalar OsgEarthNet.uav[39] utilizationEnergyOverdrawMission 0
scalar OsgEarthNet.uav[39] utilizationEnergyOverdrawMaintenance 0
scalar OsgEarthNet.uav[39] utilizationCountMissions 22
scalar OsgEarthNet.uav[39] utilizationCountManeuversMission 429
scalar OsgEarthNet.uav[39] utilizationCountManeuversMaintenance 44
scalar OsgEarthNet.uav[39] utilizationCountChargeState 22
scalar OsgEarthNet.uav[39] utilizationCountOverdrawnAfterMission 0
scalar OsgEarthNet.uav[39] utilizationCountIdleState 23
scalar OsgEarthNet.uav[39] utilizationFail 0
scalar OsgEarthNet.uav[39] simulationTime 259200
scalar OsgEarthNet.uav[40] utilizationSecMission 11374.634106813
scalar OsgEarthNet.uav[40] utilizationSecMaintenance 7484.9917815364
scalar OsgEarthNet.uav[40] utilizationSecCharge 71120
scalar OsgEarthNet.uav[40] utilizationSecIdle 169220.37311165
scalar OsgEarthNet.uav[40] utilizationEnergyMission 55866.231975555
scalar OsgEarthNet.uav[40] utilizationEnergyMaintenance 35601.64225769
scalar OsgEarthNet.uav[40] utilizationEnergyCharge 91821.609375
scalar OsgEarthNet.uav[40] utilizationEnergyOverdrawMission 0
scalar OsgEarthNet.uav[40] utilizationEnergyOverdrawMaintenance 0
scalar OsgEarthNet.uav[40] utilizationCountMissions 20
scalar OsgEarthNet.uav[40] utilizationCountManeuversMission 382
scalar OsgEarthNet.uav[40] utilizationCountManeuversMaintenance 40
scalar OsgEarthNet.uav[40] utilizationCountChargeState 20
scalar OsgEarthNet.uav[40] utilizationCountOverdrawnAfterMission 0
scalar OsgEarthNet.uav[40] utilizationCountIdleState 21
scalar OsgEarthNet.uav[40] utilizationFail 0
scalar OsgEarthNet.uav[40] simulationTime 259200
scalar OsgEarthNet.uav[41] utilizationSecMission 21244.837872142
scalar OsgEarthNet.uav[41] utilizationSecMaintenance 13597.224159271
scalar OsgEarthNet.uav[41] utilizationSecCharge 130465.93696859
scalar OsgEarthNet.uav[41] utilizationSecIdle 93892
scalar OsgEarthNet.uav[41] utilizationEnergyMission 101892.45269394
scalar OsgEarthNet.uav[41] utilizationEnergyMaintenance 64481.685070038
scalar OsgEarthNet.uav[41] utilizationEnergyCharge 162752.56652832
scalar OsgEarthNet.uav[41] utilizationEnergyOverdrawMission 0
scalar OsgEarthNet.uav[41] utilizationEnergyOverdrawMaintenance 0
scalar OsgEarthNet.uav[41] utilizationCountMissions 41
scalar OsgEarthNet.uav[41] utilizationCountManeuversMission 661
scalar OsgEarthNet.uav[41] utilizationCountManeuversMaintenance 82
scalar OsgEarthNet.uav[41] utilizationCountChargeState 41
scalar OsgEarthNet.uav[41] utilizationCountOverdrawnAfterMission 0
scalar OsgEarthNet.uav[41] utilizationCountIdleState 41
scalar OsgEarthNet.uav[41] utilizationFail 0
scalar OsgEarthNet.uav[41] simulationTime 259200
scalar OsgEarthNet.uav[42] utilizationSecMission 39745.008258925
scalar OsgEarthNet.uav[42] utilizationSecMaintenance 17313.219715263
scalar OsgEarthNet.uav[42] utilizationSecCharge 196609.76602581
scalar OsgEarthNet.uav[42] utilizationSecIdle 5532.005
scalar OsgEarthNet.uav[42] utilizationEnergyMission 191366.05963898
scalar OsgEarthNet.uav[42] utilizationEnergyMaintenance 79911.628158569
scalar OsgEarthNet.uav[42] utilizationEnergyCharge 272981.70996094
scalar OsgEarthNet.uav[42] utilizationEnergyOverdrawMission 0
scalar OsgEarthNet.uav[42] utilizationEnergyOverdrawMaintenance 0
scalar OsgEarthNet.uav[42] utilizationCountMissions 60
scalar OsgEarthNet.uav[42] utilizationCountManeuversMission 1356
scalar OsgEarthNet.uav[42] utilizationCountManeuversMaintenance 120
scalar OsgEarthNet.uav[42] utilizationCountChargeState 60
scalar OsgEarthNet.uav[42] utilizationCountOverdrawnAfterMission 0
scalar OsgEarthNet.uav[42] utilizationCountIdleState 17
scalar OsgEarthNet.uav[42] utilizationFail 0
scalar OsgEarthNet.uav[42] simulationTime 259200
scalar OsgEarthNet.uav[43] utilizationSecMission 13305.626373223
scalar OsgEarthNet.uav[43] utilizationSecMaintenance 8177.1532844786
scalar OsgEarthNet.uav[43] utilizationSecCharge 77835.215342299
scalar OsgEarthNet.uav[43] utilizationSecIdle 159882.004
scalar OsgEarthNet.uav[43] utilizationEnergyMission 63191.911113739
scalar OsgEarthNet.uav[43] utilizationEnergyMaintenance 39399.958972931
scalar OsgEarthNet.uav[43] utilizationEnergyCharge 100239.35839844
scalar OsgEarthNet.uav[43] utilizationEnergyOverdrawMission 0
scalar OsgEarthNet.uav[43] utilizationEnergyOverdrawMaintenance 0
scalar OsgEarthNet.uav[43] utilizationCountMissions 23
scalar OsgEarthNet.uav[43] utilizationCountManeuversMission 431
scalar OsgEarthNet.uav[43] utilizationCountManeuversMaintenance 46
scalar OsgEarthNet.uav[43] utilizationCountChargeState 23
scalar OsgEarthNet.uav[43] utilizationCountOverdrawnAfterMission 0
scalar OsgEarthNet.uav[43] utilizationCountIdleState 23
scalar OsgEarthNet.uav[43] utilizationFail 0
scalar OsgEarthNet.uav[43] simulationTime 259200
scalar OsgEarthNet.uav[44] utilizationSecMission 19056.201177494
scalar OsgEarthNet.uav[44] utilizationSecMaintenance 12797.585447398
scalar OsgEarthNet.uav[44] utilizationSecCharge 122710
scalar OsgEarthNet.uav[44] utilizationSecIdle 104636.21237511
scalar OsgEarthNet.uav[44] utilizationEnergyMission 91798.837551117
scalar OsgEarthNet.uav[44] utilizationEnergyMaintenance 60202.220275879
scalar OsgEarthNet.uav[44] utilizationEnergyCharge 150724.96777344
scalar OsgEarthNet.uav[44] utilizationEnergyOverdrawMission 0
scalar OsgEarthNet.uav[44] utilizationEnergyOverdrawMaintenance 0
scalar OsgEarthNet.uav[44] utilizationCountMissions 39
scalar OsgEarthNet.uav[44] utilizationCountManeuversMission 595
scalar OsgEarthNet.uav[44] utilizationCountManeuversMaintenance 78
scalar OsgEarthNet.uav[44] utilizationCountChargeState 39
scalar OsgEarthNet.uav[44] utilizationCountOverdrawnAfterMission 0
scalar OsgEarthNet.uav[44] utilizationCountIdleState 40
scalar OsgEarthNet.uav[44] utilizationFail 0
scalar OsgEarthNet.uav[44] simulationTime 259200
scalar OsgEarthNet.uav[45] utilizationSecMission 38538.670360629
scalar OsgEarthNet.uav[45] utilizationSecMaintenance 18684.032717111
scalar OsgEarthNet.uav[45] utilizationSecCharge 197905.29292226
scalar OsgEarthNet.uav[45] utilizationSecIdle 4072.003
scalar OsgEarthNet.uav[45] utilizationEnergyMission 185488.36706161
scalar OsgEarthNet.uav[45] utilizationEnergyMaintenance 85605.780197144
scalar OsgEarthNet.uav[45] utilizationEnergyCharge 274762.37744141
scalar OsgEarthNet.uav[45] utilizationEnergyOverdrawMission 0
scalar OsgEarthNet.uav[45] utilizationEnergyOverdrawMaintenance 0
scalar OsgEarthNet.uav[45] utilizationCountMissions 60
scalar OsgEarthNet.uav[45] utilizationCountManeuversMission 1288
scalar OsgEarthNet.uav[45] utilizationCountManeuversMaintenance 120
scalar OsgEarthNet.uav[45] utilizationCountChargeState 60
scalar OsgEarthNet.uav[45] utilizationCountOverdrawnAfterMission 0
scalar OsgEarthNet.uav[45] utilizationCountIdleState 15
scalar OsgEarthNet.uav[45] utilizationFail 0
scalar OsgEarthNet.uav[45] simulationTime 259200
scalar OsgEarthNet.uav[46] utilizationSecMission 11822.500610321
scalar OsgEarthNet.uav[46] utilizationSecMaintenance 9381.0448666184
scalar OsgEarthNet.uav[46] utilizationSecCharge 80570
scalar OsgEarthNet.uav[46] utilizationSecIdle 157426.45352306
scalar OsgEarthNet.uav[46] utilizationEnergyMission 59106.925086975
scalar OsgEarthNet.uav[46] utilizationEnergyMaintenance 44439.61082077
scalar OsgEarthNet.uav[46] utilizationEnergyCharge 103559.56445312
scalar OsgEarthNet.uav[46] utilizationEnergyOverdrawMission 0
scalar OsgEarthNet.uav[46] utilizationEnergyOverdrawMaintenance 0
scalar OsgEarthNet.uav[46] utilizationCountMissions 23
scalar OsgEarthNet.uav[46] utilizationCountManeuversMission 487
scalar OsgEarthNet.uav[46] utilizationCountManeuversMaintenance 46
scalar OsgEarthNet.uav[46] utilizationCountChargeState 23
scalar OsgEarthNet.uav[46] utilizationCountOverdrawnAfterMission 0
scalar OsgEarthNet.uav[46] utilizationCountIdleState 24
scalar OsgEarthNet.uav[46] utilizationFail 0
scalar OsgEarthNet.uav[46] simulationTime 259200
scalar OsgEarthNet.uav[47] utilizationSecMission 19793.7486165
scalar OsgEarthNet.uav[47] utilizationSecMaintenance 13559.735362737
scalar OsgEarthNet.uav[47] utilizationSecCharge 128420
scalar OsgEarthNet.uav[47] utilizationSecIdle 97426.515020763
scalar OsgEarthNet.uav[47] utilizationEnergyMission 98196.99773407
scalar OsgEarthNet.uav[47] utilizationEnergyMaintenance 64052.044483185
scalar OsgEarthNet.uav[47] utilizationEnergyCharge 160835.06494141
scalar OsgEarthNet.uav[47] utilizationEnergyOverdrawMission 0
scalar OsgEarthNet.uav[47] utilizationEnergyOverdrawMaintenance 0
scalar OsgEarthNet.uav[47] utilizationCountMissions 39
scalar OsgEarthNet.uav[47] utilizationCountManeuversMission 729
scalar OsgEarthNet.uav[47] utilizationCountManeuversMaintenance 78
scalar OsgEarthNet.uav[47] utilizationCountChargeState 39
scalar OsgEarthNet.uav[47] utilizationCountOverdrawnAfterMission 0
scalar OsgEarthNet.uav[47] utilizationCountIdleState 40
scalar OsgEarthNet.uav[47] utilizationFail 0
scalar OsgEarthNet.uav[47] simulationTime 259200
scalar OsgEarthNet.uav[48] utilizationSecMission 40284.376123361
scalar OsgEarthNet.uav[48] utilizationSecMaintenance 17424.65331368
scalar OsgEarthNet.uav[48] utilizationSecCharge 199198.96956296
scalar OsgEarthNet.uav[48] utilizationSecIdle 2292
scalar OsgEarthNet.uav[48] utilizationEnergyMission 195409.96263503
scalar OsgEarthNet.uav[48] utilizationEnergyMaintenance 81832.267513275
scalar OsgEarthNet.uav[48] utilizationEnergyCharge 277942.52392578
scalar OsgEarthNet.uav[48] utilizationEnergyOverdrawMission 0
scalar OsgEarthNet.uav[48] utilizationEnergyOverdrawMaintenance 0
scalar OsgEarthNet.uav[48] utilizationCountMissions 60
scalar OsgEarthNet.uav[48] utilizationCountManeuversMission 1244
scalar OsgEarthNet.uav[48] utilizationCountManeuversMaintenance 119
scalar OsgEarthNet.uav[48] utilizationCountChargeState 60
scalar OsgEarthNet.uav[48] utilizationCountOverdrawnAfterMission 0
scalar OsgEarthNet.uav[48] utilizationCountIdleState 13
scalar OsgEarthNet.uav[48] utilizationFail 0
scalar OsgEarthNet.uav[48] simulationTime 259200
scalar OsgEarthNet.uav[49] utilizationSecMission 16537.759869714
scalar OsgEarthNet.uav[49] utilizationSecMaintenance 9860.0993085471
scalar OsgEarthNet.uav[49] utilizationSecCharge 95620
scalar OsgEarthNet.uav[49] utilizationSecIdle 137182.13982174
scalar OsgEarthNet.uav[49] utilizationEnergyMission 78059.407363892
scalar OsgEarthNet.uav[49] utilizationEnergyMaintenance 46579.70061514
scalar OsgEarthNet.uav[49] utilizationEnergyCharge 123592.03955078
scalar OsgEarthNet.uav[49] utilizationEnergyOverdrawMission 0
scalar OsgEarthNet.uav[49] utilizationEnergyOverdrawMaintenance 0
scalar OsgEarthNet.uav[49] utilizationCountMissions 28
scalar OsgEarthNet.uav[49] utilizationCountManeuversMission 510
scalar OsgEarthNet.uav[49] utilizationCountManeuversMaintenance 56
scalar OsgEarthNet.uav[49] utilizationCountChargeState 27
scalar OsgEarthNet.uav[49] utilizationCountOverdrawnAfterMission 0
scalar OsgEarthNet.uav[49] utilizationCountIdleState 28
scalar OsgEarthNet.uav[49] utilizationFail 0
scalar OsgEarthNet.uav[49] simulationTime 259200
scalar OsgEarthNet.uav[50] utilizationSecMission 18313.950763496
scalar OsgEarthNet.uav[50] utilizationSecMaintenance 13957.420936905
scalar OsgEarthNet.uav[50] utilizationSecCharge 127162.73056469
scalar OsgEarthNet.uav[50] utilizationSecIdle 99765.896734907
scalar OsgEarthNet.uav[50] utilizationEnergyMission 90067.627120972
scalar OsgEarthNet.uav[50] utilizationEnergyMaintenance 66970.600406647
scalar OsgEarthNet.uav[50] utilizationEnergyCharge 155547.43579102
scalar OsgEarthNet.uav[50] utilizationEnergyOverdrawMission 0
scalar OsgEarthNet.uav[50] utilizationEnergyOverdrawMaintenance 0
scalar OsgEarthNet.uav[50] utilizationCountMissions 42
scalar OsgEarthNet.uav[50] utilizationCountManeuversMission 613
scalar OsgEarthNet.uav[50] utilizationCountManeuversMaintenance 84
scalar OsgEarthNet.uav[50] utilizationCountChargeState 42
scalar OsgEarthNet.uav[50] utilizationCountOverdrawnAfterMission 0
scalar OsgEarthNet.uav[50] utilizationCountIdleState 42
scalar OsgEarthNet.uav[50] utilizationFail 0
scalar OsgEarthNet.uav[50] simulationTime 259200
scalar OsgEarthNet.uav[51] utilizationSecMission 19363.707415323
scalar OsgEarthNet.uav[51] utilizationSecMaintenance 11815.233789483
scalar OsgEarthNet.uav[51] utilizationSecCharge 119890
scalar OsgEarthNet.uav[51] utilizationSecIdle 108131.05779519
scalar OsgEarthNet.uav[51] utilizationEnergyMission 91958.322579632
scalar OsgEarthNet.uav[51] utilizationEnergyMaintenance 56723.225543976
scalar OsgEarthNet.uav[51] utilizationEnergyCharge 147244.45068359
scalar OsgEarthNet.uav[51] utilizationEnergyOverdrawMission 0
scalar OsgEarthNet.uav[51] utilizationEnergyOverdrawMaintenance 0
scalar OsgEarthNet.uav[51] utilizationCountMissions 38
scalar OsgEarthNet.uav[51] utilizationCountManeuversMission 452
scalar OsgEarthNet.uav[51] utilizationCountManeuversMaintenance 77
scalar OsgEarthNet.uav[51] utilizationCountChargeState 38
scalar OsgEarthNet.uav[51] utilizationCountOverdrawnAfterMission 0
scalar OsgEarthNet.uav[51] utilizationCountIdleState 39
scalar OsgEarthNet.uav[51] utilizationFail 0
scalar OsgEarthNet.uav[51] simulationTime 259200
scalar OsgEarthNet.uav[52] utilizationSecMission 39664.201898994
scalar OsgEarthNet.uav[52] utilizationSecMaintenance 17513.793101006
scalar OsgEarthNet.uav[52] utilizationSecCharge 197850
scalar OsgEarthNet.uav[52] utilizationSecIdle 4172.004
scalar OsgEarthNet.uav[52] utilizationEnergyMission 190730.56116867
scalar OsgEarthNet.uav[52] utilizationEnergyMaintenance 81258.69337866
scalar OsgEarthNet.uav[52] utilizationEnergyCharge 272602.93896484
scalar OsgEarthNet.uav[52] utilizationEnergyOverdrawMission 0
scalar OsgEarthNet.uav[52] utilizationEnergyOverdrawMaintenance 0
scalar OsgEarthNet.uav[52] utilizationCountMissions 59
scalar OsgEarthNet.uav[52] utilizationCountManeuversMission 1215
scalar OsgEarthNet.uav[52] utilizationCountManeuversMaintenance 119
scalar OsgEarthNet.uav[52] utilizationCountChargeState 59
scalar OsgEarthNet.uav[52] utilizationCountOverdrawnAfterMission 0
scalar OsgEarthNet.uav[52] utilizationCountIdleState 15
scalar OsgEarthNet.uav[52] utilizationFail 0
scalar OsgEarthNet.uav[52] simulationTime 259200
scalar OsgEarthNet.uav[53] utilizationSecMission 15165.001220642
scalar OsgEarthNet.uav[53] utilizationSecMaintenance 10221.125708591
scalar OsgEarthNet.uav[53] utilizationSecCharge 93661.854070767
scalar OsgEarthNet.uav[53] utilizationSecIdle 140152.018
scalar OsgEarthNet.uav[53] utilizationEnergyMission 74415.12417984
scalar OsgEarthNet.uav[53] utilizationEnergyMaintenance 48303.176639557
scalar OsgEarthNet.uav[53] utilizationEnergyCharge 121487.15698242
scalar OsgEarthNet.uav[53] utilizationEnergyOverdrawMission 0
scalar OsgEarthNet.uav[53] utilizationEnergyOverdrawMaintenance 0
scalar OsgEarthNet.uav[53] utilizationCountMissions 27
scalar OsgEarthNet.uav[53] utilizationCountManeuversMission 550
scalar OsgEarthNet.uav[53] utilizationCountManeuversMaintenance 54
scalar OsgEarthNet.uav[53] utilizationCountChargeState 27
scalar OsgEarthNet.uav[53] utilizationCountOverdrawnAfterMission 0
scalar OsgEarthNet.uav[53] utilizationCountIdleState 27
scalar OsgEarthNet.uav[53] utilizationFail 0
scalar OsgEarthNet.uav[53] simulationTime 259200
scalar OsgEarthNet.uav[54] utilizationSecMission 19122.592111011
scalar OsgEarthNet.uav[54] utilizationSecMaintenance 12458.168939814
scalar OsgEarthNet.uav[54] utilizationSecCharge 121295.47596167
scalar OsgEarthNet.uav[54] utilizationSecIdle 106323.76198751
scalar OsgEarthNet.uav[54] utilizationEnergyMission 93269.971668243
scalar OsgEarthNet.uav[54] utilizationEnergyMaintenance 59157.744850159
scalar OsgEarthNet.uav[54] utilizationEnergyCharge 151773.53491211
scalar OsgEarthNet.uav[54] utilizationEnergyOverdrawMission 0
scalar OsgEarthNet.uav[54] utilizationEnergyOverdrawMaintenance 0
scalar OsgEarthNet.uav[54] utilizationCountMissions 37
scalar OsgEarthNet.uav[54] utilizationCountManeuversMission 629
scalar OsgEarthNet.uav[54] utilizationCountManeuversMaintenance 74
scalar OsgEarthNet.uav[54] utilizationCountChargeState 37
scalar OsgEarthNet.uav[54] utilizationCountOverdrawnAfterMission 0
scalar OsgEarthNet.uav[54] utilizationCountIdleState 37
scalar OsgEarthNet.uav[54] utilizationFail 0
scalar OsgEarthNet.uav[54] simulationTime 259200
scalar OsgEarthNet.uav[55] utilizationSecMission 41266.064724401
scalar OsgEarthNet.uav[55] utilizationSecMaintenance 17016.886354407
scalar OsgEarthNet.uav[55] utilizationSecCharge 197705.04592119
scalar OsgEarthNet.uav[55] utilizationSecIdle 3212.002
scalar OsgEarthNet.uav[55] utilizationEnergyMission 197594.37228394
scalar OsgEarthNet.uav[55] utilizationEnergyMaintenance 79077.139266968
scalar OsgEarthNet.uav[55] utilizationEnergyCharge 272840.45690918
scalar OsgEarthNet.uav[55] utilizationEnergyOverdrawMission 0
scalar OsgEarthNet.uav[55] utilizationEnergyOverdrawMaintenance 0
scalar OsgEarthNet.uav[55] utilizationCountMissions 60
scalar OsgEarthNet.uav[55] utilizationCountManeuversMission 1245
scalar OsgEarthNet.uav[55] utilizationCountManeuversMaintenance 120
scalar OsgEarthNet.uav[55] utilizationCountChargeState 60
scalar OsgEarthNet.uav[55] utilizationCountOverdrawnAfterMission 0
scalar OsgEarthNet.uav[55] utilizationCountIdleState 18
scalar OsgEarthNet.uav[55] utilizationFail 0
scalar OsgEarthNet.uav[55] simulationTime 259200
scalar OsgEarthNet.uav[56] utilizationSecMission 16688.752136124
scalar OsgEarthNet.uav[56] utilizationSecMaintenance 9132.489218156
scalar OsgEarthNet.uav[56] utilizationSecCharge 95070
scalar OsgEarthNet.uav[56] utilizationSecIdle 138308.75764572
scalar OsgEarthNet.uav[56] utilizationEnergyMission 80751.343738556
scalar OsgEarthNet.uav[56] utilizationEnergyMaintenance 43429.435367584
scalar OsgEarthNet.uav[56] utilizationEnergyCharge 122653.63769531
scalar OsgEarthNet.uav[56] utilizationEnergyOverdrawMission 0
scalar OsgEarthNet.uav[56] utilizationEnergyOverdrawMaintenance 0
scalar OsgEarthNet.uav[56] utilizationCountMissions 27
scalar OsgEarthNet.uav[56] utilizationCountManeuversMission 470
scalar OsgEarthNet.uav[56] utilizationCountManeuversMaintenance 54
scalar OsgEarthNet.uav[56] utilizationCountChargeState 27
scalar OsgEarthNet.uav[56] utilizationCountOverdrawnAfterMission 0
scalar OsgEarthNet.uav[56] utilizationCountIdleState 28
scalar OsgEarthNet.uav[56] utilizationFail 0
scalar OsgEarthNet.uav[56] simulationTime 259200
scalar OsgEarthNet.uav[57] utilizationSecMission 18167.852953493
scalar OsgEarthNet.uav[57] utilizationSecMaintenance 12982.292028217
scalar OsgEarthNet.uav[57] utilizationSecCharge 120447.84801829
scalar OsgEarthNet.uav[57] utilizationSecIdle 107602.006
scalar OsgEarthNet.uav[57] utilizationEnergyMission 89149.614952087
scalar OsgEarthNet.uav[57] utilizationEnergyMaintenance 62095.440303802
scalar OsgEarthNet.uav[57] utilizationEnergyCharge 151516.04663086
scalar OsgEarthNet.uav[57] utilizationEnergyOverdrawMission 0
scalar OsgEarthNet.uav[57] utilizationEnergyOverdrawMaintenance 0
scalar OsgEarthNet.uav[57] utilizationCountMissions 37
scalar OsgEarthNet.uav[57] utilizationCountManeuversMission 692
scalar OsgEarthNet.uav[57] utilizationCountManeuversMaintenance 74
scalar OsgEarthNet.uav[57] utilizationCountChargeState 37
scalar OsgEarthNet.uav[57] utilizationCountOverdrawnAfterMission 0
scalar OsgEarthNet.uav[57] utilizationCountIdleState 37
scalar OsgEarthNet.uav[57] utilizationFail 0
scalar OsgEarthNet.uav[57] simulationTime 259200
scalar OsgEarthNet.uav[58] utilizationSecMission 40302.767989244
scalar OsgEarthNet.uav[58] utilizationSecMaintenance 16963.77278149
scalar OsgEarthNet.uav[58] utilizationSecCharge 197341.45422927
scalar OsgEarthNet.uav[58] utilizationSecIdle 4592.004
scalar OsgEarthNet.uav[58] utilizationEnergyMission 193412.476017
scalar OsgEarthNet.uav[58] utilizationEnergyMaintenance 79425.553543091
scalar OsgEarthNet.uav[58] utilizationEnergyCharge 272577.66064453
scalar OsgEarthNet.uav[58] utilizationEnergyOverdrawMission 0
scalar OsgEarthNet.uav[58] utilizationEnergyOverdrawMaintenance 0
scalar OsgEarthNet.uav[58] utilizationCountMissions 59
scalar OsgEarthNet.uav[58] utilizationCountManeuversMission 1150
scalar OsgEarthNet.uav[58] utilizationCountManeuversMaintenance 118
scalar OsgEarthNet.uav[58] utilizationCountChargeState 59
scalar OsgEarthNet.uav[58] utilizationCountOverdrawnAfterMission 0
scalar OsgEarthNet.uav[58] utilizationCountIdleState 18
scalar OsgEarthNet.uav[58] utilizationFail 0
scalar OsgEarthNet.uav[58] simulationTime 259200
scalar OsgEarthNet.uav[59] utilizationSecMission 16995.368334472
scalar OsgEarthNet.uav[59] utilizationSecMaintenance 12139.16838691
scalar OsgEarthNet.uav[59] utilizationSecCharge 106773.46127862
scalar OsgEarthNet.uav[59] utilizationSecIdle 123292.001
scalar OsgEarthNet.uav[59] utilizationEnergyMission 83960.13117981
scalar OsgEarthNet.uav[59] utilizationEnergyMaintenance 57503.504444122
scalar OsgEarthNet.uav[59] utilizationEnergyCharge 138394.11669922
scalar OsgEarthNet.uav[59] utilizationEnergyOverdrawMission 0
scalar OsgEarthNet.uav[59] utilizationEnergyOverdrawMaintenance 0
scalar OsgEarthNet.uav[59] utilizationCountMissions 31
scalar OsgEarthNet.uav[59] utilizationCountManeuversMission 620
scalar OsgEarthNet.uav[59] utilizationCountManeuversMaintenance 62
scalar OsgEarthNet.uav[59] utilizationCountChargeState 31
scalar OsgEarthNet.uav[59] utilizationCountOverdrawnAfterMission 0
scalar OsgEarthNet.uav[59] utilizationCountIdleState 31
scalar OsgEarthNet.uav[59] utilizationFail 0
scalar OsgEarthNet.uav[59] simulationTime 259200
scalar OsgEarthNet.uav[60] utilizationSecMission 40512.21048933
scalar OsgEarthNet.uav[60] utilizationSecMaintenance 17519.86475124
scalar OsgEarthNet.uav[60] utilizationSecCharge 199045.92375943
scalar OsgEarthNet.uav[60] utilizationSecIdle 2122
scalar OsgEarthNet.uav[60] utilizationEnergyMission 194063.37462616
scalar OsgEarthNet.uav[60] utilizationEnergyMaintenance 80652.353103638
scalar OsgEarthNet.uav[60] utilizationEnergyCharge 275340.58544922
scalar OsgEarthNet.uav[60] utilizationEnergyOverdrawMission 0
scalar OsgEarthNet.uav[60] utilizationEnergyOverdrawMaintenance 0
scalar OsgEarthNet.uav[60] utilizationCountMissions 60
scalar OsgEarthNet.uav[60] utilizationCountManeuversMission 1163
scalar OsgEarthNet.uav[60] utilizationCountManeuversMaintenance 119
scalar OsgEarthNet.uav[60] utilizationCountChargeState 60
scalar OsgEarthNet.uav[60] utilizationCountOverdrawnAfterMission 0
scalar OsgEarthNet.uav[60] utilizationCountIdleState 18
scalar OsgEarthNet.uav[60] utilizationFail 0
scalar OsgEarthNet.uav[60] simulationTime 259200
scalar OsgEarthNet.uav[61] utilizationSecMission 19105.111921852
scalar OsgEarthNet.uav[61] utilizationSecMaintenance 14241.21890016
scalar OsgEarthNet.uav[61] utilizationSecCharge 128080
scalar OsgEarthNet.uav[61] utilizationSecIdle 97773.668177988
scalar OsgEarthNet.uav[61] utilizationEnergyMission 94413.233596802
scalar OsgEarthNet.uav[61] utilizationEnergyMaintenance 67419.484061487
scalar OsgEarthNet.uav[61] utilizationEnergyCharge 158540.58666992
scalar OsgEarthNet.uav[61] utilizationEnergyOverdrawMission 0
scalar OsgEarthNet.uav[61] utilizationEnergyOverdrawMaintenance 0
scalar OsgEarthNet.uav[61] utilizationCountMissions 41
scalar OsgEarthNet.uav[61] utilizationCountManeuversMission 738
scalar OsgEarthNet.uav[61] utilizationCountManeuversMaintenance 82
scalar OsgEarthNet.uav[61] utilizationCountChargeState 40
scalar OsgEarthNet.uav[61] utilizationCountOverdrawnAfterMission 0
scalar OsgEarthNet.uav[61] utilizationCountIdleState 41
scalar OsgEarthNet.uav[61] utilizationFail 0
scalar OsgEarthNet.uav[61] simulationTime 259200
scalar OsgEarthNet.uav[62] utilizationSecMission 40862.089234015
scalar OsgEarthNet.uav[62] utilizationSecMaintenance 16574.280399317
scalar OsgEarthNet.uav[62] utilizationSecCharge 197642.23088228
scalar OsgEarthNet.uav[62] utilizationSecIdle 4121.3984843856
scalar OsgEarthNet.uav[62] utilizationEnergyMission 196667.34632492
scalar OsgEarthNet.uav[62] utilizationEnergyMaintenance 76377.703186035
scalar OsgEarthNet.uav[62] utilizationEnergyCharge 273054.81152344
scalar OsgEarthNet.uav[62] utilizationEnergyOverdrawMission 0
scalar OsgEarthNet.uav[62] utilizationEnergyOverdrawMaintenance 0
scalar OsgEarthNet.uav[62] utilizationCountMissions 59
scalar OsgEarthNet.uav[62] utilizationCountManeuversMission 1159
scalar OsgEarthNet.uav[62] utilizationCountManeuversMaintenance 118
scalar OsgEarthNet.uav[62] utilizationCountChargeState 59
scalar OsgEarthNet.uav[62] utilizationCountOverdrawnAfterMission 0
scalar OsgEarthNet.uav[62] utilizationCountIdleState 21
scalar OsgEarthNet.uav[62] utilizationFail 0
scalar OsgEarthNet.uav[62] simulationTime 259200
scalar OsgEarthNet.uav[63] utilizationSecMission 16324.892145563
scalar OsgEarthNet.uav[63] utilizationSecMaintenance 11751.482406337
scalar OsgEarthNet.uav[63] utilizationSecCharge 103791.6104481
scalar OsgEarthNet.uav[63] utilizationSecIdle 127332.014
scalar OsgEarthNet.uav[63] utilizationEnergyMission 81726.727455139
scalar OsgEarthNet.uav[63] utilizationEnergyMaintenance 55658.706825256
scalar OsgEarthNet.uav[63] utilizationEnergyCharge 134666.29882812
scalar OsgEarthNet.uav[63] utilizationEnergyOverdrawMission 0
scalar OsgEarthNet.uav[63] utilizationEnergyOverdrawMaintenance 0
scalar OsgEarthNet.uav[63] utilizationCountMissions 30
scalar OsgEarthNet.uav[63] utilizationCountManeuversMission 625
scalar OsgEarthNet.uav[63] utilizationCountManeuversMaintenance 60
scalar OsgEarthNet.uav[63] utilizationCountChargeState 30
scalar OsgEarthNet.uav[63] utilizationCountOverdrawnAfterMission 0
scalar OsgEarthNet.uav[63] utilizationCountIdleState 30
scalar OsgEarthNet.uav[63] utilizationFail 0
scalar OsgEarthNet.uav[63] simulationTime 259200
scalar OsgEarthNet.uav[64] utilizationSecMission 20059.149008998
scalar OsgEarthNet.uav[64] utilizationSecMaintenance 13492.185333918
scalar OsgEarthNet.uav[64] utilizationSecCharge 129551.34857525
scalar OsgEarthNet.uav[64] utilizationSecIdle 96097.316081831
scalar OsgEarthNet.uav[64] utilizationEnergyMission 95812.735542297
scalar OsgEarthNet.uav[64] utilizationEnergyMaintenance 64740.249454498
scalar OsgEarthNet.uav[64] utilizationEnergyCharge 160637.39746094
scalar OsgEarthNet.uav[64] utilizationEnergyOverdrawMission 0
scalar OsgEarthNet.uav[64] utilizationEnergyOverdrawMaintenance 0
scalar OsgEarthNet.uav[64] utilizationCountMissions 41
scalar OsgEarthNet.uav[64] utilizationCountManeuversMission 623
scalar OsgEarthNet.uav[64] utilizationCountManeuversMaintenance 82
scalar OsgEarthNet.uav[64] utilizationCountChargeState 41
scalar OsgEarthNet.uav[64] utilizationCountOverdrawnAfterMission 0
scalar OsgEarthNet.uav[64] utilizationCountIdleState 41
scalar OsgEarthNet.uav[64] utilizationFail 0
scalar OsgEarthNet.uav[64] simulationTime 259200
scalar OsgEarthNet.uav[65] utilizationSecMission 40380.011810926
scalar OsgEarthNet.uav[65] utilizationSecMaintenance 17623.655785379
scalar OsgEarthNet.uav[65] utilizationSecCharge 198364.3294037
scalar OsgEarthNet.uav[65] utilizationSecIdle 2832.002
scalar OsgEarthNet.uav[65] utilizationEnergyMission 195227.2620163
[...]
scalar OsgEarthNet.uav[230] utilizationSecIdle 259199.999
scalar OsgEarthNet.uav[230] utilizationEnergyMission 0
scalar OsgEarthNet.uav[230] utilizationEnergyMaintenance 0
scalar OsgEarthNet.uav[230] utilizationEnergyCharge 0
scalar OsgEarthNet.uav[230] utilizationEnergyOverdrawMission 0
scalar OsgEarthNet.uav[230] utilizationEnergyOverdrawMaintenance 0
scalar OsgEarthNet.uav[230] utilizationCountMissions 0
scalar OsgEarthNet.uav[230] utilizationCountManeuversMission 0
scalar OsgEarthNet.uav[230] utilizationCountManeuversMaintenance 0
scalar OsgEarthNet.uav[230] utilizationCountChargeState 0
scalar OsgEarthNet.uav[230] utilizationCountOverdrawnAfterMission 0
scalar OsgEarthNet.uav[230] utilizationCountIdleState 1
scalar OsgEarthNet.uav[230] utilizationFail 0
scalar OsgEarthNet.uav[230] simulationTime 259200
scalar OsgEarthNet.uav[231] utilizationSecMission 0
scalar OsgEarthNet.uav[231] utilizationSecMaintenance 0
scalar OsgEarthNet.uav[231] utilizationSecCharge 0
scalar OsgEarthNet.uav[231] utilizationSecIdle 259199.999
scalar OsgEarthNet.uav[231] utilizationEnergyMission 0
scalar OsgEarthNet.uav[231] utilizationEnergyMaintenance 0
scalar OsgEarthNet.uav[231] utilizationEnergyCharge 0
scalar OsgEarthNet.uav[231] utilizationEnergyOverdrawMission 0
scalar OsgEarthNet.uav[231] utilizationEnergyOverdrawMaintenance 0
scalar OsgEarthNet.uav[231] utilizationCountMissions 0
scalar OsgEarthNet.uav[231] utilizationCountManeuversMission 0
scalar OsgEarthNet.uav[231] utilizationCountManeuversMaintenance 0
scalar OsgEarthNet.uav[231] utilizationCountChargeState 0
scalar OsgEarthNet.uav[231] utilizationCountOverdrawnAfterMission 0
scalar OsgEarthNet.uav[231] utilizationCountIdleState 1
scalar OsgEarthNet.uav[231] utilizationFail 0
scalar OsgEarthNet.uav[231] simulationTime 259200
scalar OsgEarthNet.uav[232] utilizationSecMission 0
scalar OsgEarthNet.uav[232] utilizationSecMaintenance 0
scalar OsgEarthNet.uav[232] utilizationSecCharge 0
scalar OsgEarthNet.uav[232] utilizationSecIdle 259199.999
scalar OsgEarthNet.uav[232] utilizationEnergyMission 0
scalar OsgEarthNet.uav[232] utilizationEnergyMaintenance 0
scalar OsgEarthNet.uav[232] utilizationEnergyCharge 0
scalar OsgEarthNet.uav[232] utilizationEnergyOverdrawMission 0
scalar OsgEarthNet.uav[232] utilizationEnergyOverdrawMaintenance 0
scalar OsgEarthNet.uav[232] utilizationCountMissions 0
scalar OsgEarthNet.uav[232] utilizationCountManeuversMission 0
scalar OsgEarthNet.uav[232] utilizationCountManeuversMaintenance 0
scalar OsgEarthNet.uav[232] utilizationCountChargeState 0
scalar OsgEarthNet.uav[232] utilizationCountOverdrawnAfterMission 0
scalar OsgEarthNet.uav[232] utilizationCountIdleState 1
scalar OsgEarthNet.uav[232] utilizationFail 0
scalar OsgEarthNet.uav[232] simulationTime 259200
scalar OsgEarthNet.uav[233] utilizationSecMission 0
scalar OsgEarthNet.uav[233] utilizationSecMaintenance 0
scalar OsgEarthNet.uav[233] utilizationSecCharge 0
scalar OsgEarthNet.uav[233] utilizationSecIdle 259199.999
scalar OsgEarthNet.uav[233] utilizationEnergyMission 0
scalar OsgEarthNet.uav[233] utilizationEnergyMaintenance 0
scalar OsgEarthNet.uav[233] utilizationEnergyCharge 0
scalar OsgEarthNet.uav[233] utilizationEnergyOverdrawMission 0
scalar OsgEarthNet.uav[233] utilizationEnergyOverdrawMaintenance 0
scalar OsgEarthNet.uav[233] utilizationCountMissions 0
scalar OsgEarthNet.uav[233] utilizationCountManeuversMission 0
scalar OsgEarthNet.uav[233] utilizationCountManeuversMaintenance 0
scalar OsgEarthNet.uav[233] utilizationCountChargeState 0
scalar OsgEarthNet.uav[233] utilizationCountOverdrawnAfterMission 0
scalar OsgEarthNet.uav[233] utilizationCountIdleState 1
scalar OsgEarthNet.uav[233] utilizationFail 0
scalar OsgEarthNet.uav[233] simulationTime 259200
scalar OsgEarthNet.uav[234] utilizationSecMission 0
scalar OsgEarthNet.uav[234] utilizationSecMaintenance 0
scalar OsgEarthNet.uav[234] utilizationSecCharge 0
scalar OsgEarthNet.uav[234] utilizationSecIdle 259199.999
scalar OsgEarthNet.uav[234] utilizationEnergyMission 0
scalar OsgEarthNet.uav[234] utilizationEnergyMaintenance 0
scalar OsgEarthNet.uav[234] utilizationEnergyCharge 0
scalar OsgEarthNet.uav[234] utilizationEnergyOverdrawMission 0
scalar OsgEarthNet.uav[234] utilizationEnergyOverdrawMaintenance 0
scalar OsgEarthNet.uav[234] utilizationCountMissions 0
scalar OsgEarthNet.uav[234] utilizationCountManeuversMission 0
scalar OsgEarthNet.uav[234] utilizationCountManeuversMaintenance 0
scalar OsgEarthNet.uav[234] utilizationCountChargeState 0
scalar OsgEarthNet.uav[234] utilizationCountOverdrawnAfterMission 0
scalar OsgEarthNet.uav[234] utilizationCountIdleState 1
scalar OsgEarthNet.uav[234] utilizationFail 0
scalar OsgEarthNet.uav[234] simulationTime 259200
scalar OsgEarthNet.uav[235] utilizationSecMission 0
scalar OsgEarthNet.uav[235] utilizationSecMaintenance 0
scalar OsgEarthNet.uav[235] utilizationSecCharge 0
scalar OsgEarthNet.uav[235] utilizationSecIdle 259199.999
scalar OsgEarthNet.uav[235] utilizationEnergyMission 0
scalar OsgEarthNet.uav[235] utilizationEnergyMaintenance 0
scalar OsgEarthNet.uav[235] utilizationEnergyCharge 0
scalar OsgEarthNet.uav[235] utilizationEnergyOverdrawMission 0
scalar OsgEarthNet.uav[235] utilizationEnergyOverdrawMaintenance 0
scalar OsgEarthNet.uav[235] utilizationCountMissions 0
scalar OsgEarthNet.uav[235] utilizationCountManeuversMission 0
scalar OsgEarthNet.uav[235] utilizationCountManeuversMaintenance 0
scalar OsgEarthNet.uav[235] utilizationCountChargeState 0
scalar OsgEarthNet.uav[235] utilizationCountOverdrawnAfterMission 0
scalar OsgEarthNet.uav[235] utilizationCountIdleState 1
scalar OsgEarthNet.uav[235] utilizationFail 0
scalar OsgEarthNet.uav[235] simulationTime 259200
scalar OsgEarthNet.uav[236] utilizationSecMission 0
scalar OsgEarthNet.uav[236] utilizationSecMaintenance 0
scalar OsgEarthNet.uav[236] utilizationSecCharge 0
scalar OsgEarthNet.uav[236] utilizationSecIdle 259199.999
scalar OsgEarthNet.uav[236] utilizationEnergyMission 0
scalar OsgEarthNet.uav[236] utilizationEnergyMaintenance 0
scalar OsgEarthNet.uav[236] utilizationEnergyCharge 0
scalar OsgEarthNet.uav[236] utilizationEnergyOverdrawMission 0
scalar OsgEarthNet.uav[236] utilizationEnergyOverdrawMaintenance 0
scalar OsgEarthNet.uav[236] utilizationCountMissions 0
scalar OsgEarthNet.uav[236] utilizationCountManeuversMission 0
scalar OsgEarthNet.uav[236] utilizationCountManeuversMaintenance 0
scalar OsgEarthNet.uav[236] utilizationCountChargeState 0
scalar OsgEarthNet.uav[236] utilizationCountOverdrawnAfterMission 0
scalar OsgEarthNet.uav[236] utilizationCountIdleState 1
scalar OsgEarthNet.uav[236] utilizationFail 0
scalar OsgEarthNet.uav[236] simulationTime 259200
scalar OsgEarthNet.uav[237] utilizationSecMission 0
scalar OsgEarthNet.uav[237] utilizationSecMaintenance 0
scalar OsgEarthNet.uav[237] utilizationSecCharge 0
scalar OsgEarthNet.uav[237] utilizationSecIdle 259199.999
scalar OsgEarthNet.uav[237] utilizationEnergyMission 0
scalar OsgEarthNet.uav[237] utilizationEnergyMaintenance 0
scalar OsgEarthNet.uav[237] utilizationEnergyCharge 0
scalar OsgEarthNet.uav[237] utilizationEnergyOverdrawMission 0
scalar OsgEarthNet.uav[237] utilizationEnergyOverdrawMaintenance 0
scalar OsgEarthNet.uav[237] utilizationCountMissions 0
scalar OsgEarthNet.uav[237] utilizationCountManeuversMission 0
scalar OsgEarthNet.uav[237] utilizationCountManeuversMaintenance 0
scalar OsgEarthNet.uav[237] utilizationCountChargeState 0
scalar OsgEarthNet.uav[237] utilizationCountOverdrawnAfterMission 0
scalar OsgEarthNet.uav[237] utilizationCountIdleState 1
scalar OsgEarthNet.uav[237] utilizationFail 0
scalar OsgEarthNet.uav[237] simulationTime 259200
scalar OsgEarthNet.uav[238] utilizationSecMission 0
scalar OsgEarthNet.uav[238] utilizationSecMaintenance 0
scalar OsgEarthNet.uav[238] utilizationSecCharge 0
scalar OsgEarthNet.uav[238] utilizationSecIdle 259199.999
scalar OsgEarthNet.uav[238] utilizationEnergyMission 0
scalar OsgEarthNet.uav[238] utilizationEnergyMaintenance 0
scalar OsgEarthNet.uav[238] utilizationEnergyCharge 0
scalar OsgEarthNet.uav[238] utilizationEnergyOverdrawMission 0
scalar OsgEarthNet.uav[238] utilizationEnergyOverdrawMaintenance 0
scalar OsgEarthNet.uav[238] utilizationCountMissions 0
scalar OsgEarthNet.uav[238] utilizationCountManeuversMission 0
scalar OsgEarthNet.uav[238] utilizationCountManeuversMaintenance 0
scalar OsgEarthNet.uav[238] utilizationCountChargeState 0
scalar OsgEarthNet.uav[238] utilizationCountOverdrawnAfterMission 0
scalar OsgEarthNet.uav[238] utilizationCountIdleState 1
scalar OsgEarthNet.uav[238] utilizationFail 0
scalar OsgEarthNet.uav[238] simulationTime 259200
scalar OsgEarthNet.uav[239] utilizationSecMission 0
scalar OsgEarthNet.uav[239] utilizationSecMaintenance 0
scalar OsgEarthNet.uav[239] utilizationSecCharge 0
scalar OsgEarthNet.uav[239] utilizationSecIdle 259199.999
scalar OsgEarthNet.uav[239] utilizationEnergyMission 0
scalar OsgEarthNet.uav[239] utilizationEnergyMaintenance 0
scalar OsgEarthNet.uav[239] utilizationEnergyCharge 0
scalar OsgEarthNet.uav[239] utilizationEnergyOverdrawMission 0
scalar OsgEarthNet.uav[239] utilizationEnergyOverdrawMaintenance 0
scalar OsgEarthNet.uav[239] utilizationCountMissions 0
scalar OsgEarthNet.uav[239] utilizationCountManeuversMission 0
scalar OsgEarthNet.uav[239] utilizationCountManeuversMaintenance 0
scalar OsgEarthNet.uav[239] utilizationCountChargeState 0
scalar OsgEarthNet.uav[239] utilizationCountOverdrawnAfterMission 0
scalar OsgEarthNet.uav[239] utilizationCountIdleState 1
scalar OsgEarthNet.uav[239] utilizationFail 0
scalar OsgEarthNet.uav[239] simulationTime 259200
scalar OsgEarthNet.uav[240] utilizationSecMission 0
scalar OsgEarthNet.uav[240] utilizationSecMaintenance 0
scalar OsgEarthNet.uav[240] utilizationSecCharge 0
scalar OsgEarthNet.uav[240] utilizationSecIdle 259199.999
scalar OsgEarthNet.uav[240] utilizationEnergyMission 0
scalar OsgEarthNet.uav[240] utilizationEnergyMaintenance 0
scalar OsgEarthNet.uav[240] utilizationEnergyCharge 0
scalar OsgEarthNet.uav[240] utilizationEnergyOverdrawMission 0
scalar OsgEarthNet.uav[240] utilizationEnergyOverdrawMaintenance 0
scalar OsgEarthNet.uav[240] utilizationCountMissions 0
scalar OsgEarthNet.uav[240] utilizationCountManeuversMission 0
scalar OsgEarthNet.uav[240] utilizationCountManeuversMaintenance 0
scalar OsgEarthNet.uav[240] utilizationCountChargeState 0
scalar OsgEarthNet.uav[240] utilizationCountOverdrawnAfterMission 0
scalar OsgEarthNet.uav[240] utilizationCountIdleState 1
scalar OsgEarthNet.uav[240] utilizationFail 0
scalar OsgEarthNet.uav[240] simulationTime 259200
scalar OsgEarthNet.uav[241] utilizationSecMission 0
scalar OsgEarthNet.uav[241] utilizationSecMaintenance 0
scalar OsgEarthNet.uav[241] utilizationSecCharge 0
scalar OsgEarthNet.uav[241] utilizationSecIdle 259199.999
scalar OsgEarthNet.uav[241] utilizationEnergyMission 0
scalar OsgEarthNet.uav[241] utilizationEnergyMaintenance 0
scalar OsgEarthNet.uav[241] utilizationEnergyCharge 0
scalar OsgEarthNet.uav[241] utilizationEnergyOverdrawMission 0
scalar OsgEarthNet.uav[241] utilizationEnergyOverdrawMaintenance 0
scalar OsgEarthNet.uav[241] utilizationCountMissions 0
scalar OsgEarthNet.uav[241] utilizationCountManeuversMission 0
scalar OsgEarthNet.uav[241] utilizationCountManeuversMaintenance 0
scalar OsgEarthNet.uav[241] utilizationCountChargeState 0
scalar OsgEarthNet.uav[241] utilizationCountOverdrawnAfterMission 0
scalar OsgEarthNet.uav[241] utilizationCountIdleState 1
scalar OsgEarthNet.uav[241] utilizationFail 0
scalar OsgEarthNet.uav[241] simulationTime 259200
scalar OsgEarthNet.uav[242] utilizationSecMission 0
scalar OsgEarthNet.uav[242] utilizationSecMaintenance 0
scalar OsgEarthNet.uav[242] utilizationSecCharge 0
scalar OsgEarthNet.uav[242] utilizationSecIdle 259199.999
scalar OsgEarthNet.uav[242] utilizationEnergyMission 0
scalar OsgEarthNet.uav[242] utilizationEnergyMaintenance 0
scalar OsgEarthNet.uav[242] utilizationEnergyCharge 0
scalar OsgEarthNet.uav[242] utilizationEnergyOverdrawMission 0
scalar OsgEarthNet.uav[242] utilizationEnergyOverdrawMaintenance 0
scalar OsgEarthNet.uav[242] utilizationCountMissions 0
scalar OsgEarthNet.uav[242] utilizationCountManeuversMission 0
scalar OsgEarthNet.uav[242] utilizationCountManeuversMaintenance 0
scalar OsgEarthNet.uav[242] utilizationCountChargeState 0
scalar OsgEarthNet.uav[242] utilizationCountOverdrawnAfterMission 0
scalar OsgEarthNet.uav[242] utilizationCountIdleState 1
scalar OsgEarthNet.uav[242] utilizationFail 0
scalar OsgEarthNet.uav[242] simulationTime 259200
scalar OsgEarthNet.uav[243] utilizationSecMission 0
scalar OsgEarthNet.uav[243] utilizationSecMaintenance 0
scalar OsgEarthNet.uav[243] utilizationSecCharge 0
scalar OsgEarthNet.uav[243] utilizationSecIdle 259199.999
scalar OsgEarthNet.uav[243] utilizationEnergyMission 0
scalar OsgEarthNet.uav[243] utilizationEnergyMaintenance 0
scalar OsgEarthNet.uav[243] utilizationEnergyCharge 0
scalar OsgEarthNet.uav[243] utilizationEnergyOverdrawMission 0
scalar OsgEarthNet.uav[243] utilizationEnergyOverdrawMaintenance 0
scalar OsgEarthNet.uav[243] utilizationCountMissions 0
scalar OsgEarthNet.uav[243] utilizationCountManeuversMission 0
scalar OsgEarthNet.uav[243] utilizationCountManeuversMaintenance 0
scalar OsgEarthNet.uav[243] utilizationCountChargeState 0
scalar OsgEarthNet.uav[243] utilizationCountOverdrawnAfterMission 0
scalar OsgEarthNet.uav[243] utilizationCountIdleState 1
scalar OsgEarthNet.uav[243] utilizationFail 0
scalar OsgEarthNet.uav[243] simulationTime 259200
scalar OsgEarthNet.uav[244] utilizationSecMission 0
scalar OsgEarthNet.uav[244] utilizationSecMaintenance 0
scalar OsgEarthNet.uav[244] utilizationSecCharge 0
scalar OsgEarthNet.uav[244] utilizationSecIdle 259199.999
scalar OsgEarthNet.uav[244] utilizationEnergyMission 0
scalar OsgEarthNet.uav[244] utilizationEnergyMaintenance 0
scalar OsgEarthNet.uav[244] utilizationEnergyCharge 0
scalar OsgEarthNet.uav[244] utilizationEnergyOverdrawMission 0
scalar OsgEarthNet.uav[244] utilizationEnergyOverdrawMaintenance 0
scalar OsgEarthNet.uav[244] utilizationCountMissions 0
scalar OsgEarthNet.uav[244] utilizationCountManeuversMission 0
scalar OsgEarthNet.uav[244] utilizationCountManeuversMaintenance 0
scalar OsgEarthNet.uav[244] utilizationCountChargeState 0
scalar OsgEarthNet.uav[244] utilizationCountOverdrawnAfterMission 0
scalar OsgEarthNet.uav[244] utilizationCountIdleState 1
scalar OsgEarthNet.uav[244] utilizationFail 0
scalar OsgEarthNet.uav[244] simulationTime 259200
scalar OsgEarthNet.uav[245] utilizationSecMission 0
scalar OsgEarthNet.uav[245] utilizationSecMaintenance 0
scalar OsgEarthNet.uav[245] utilizationSecCharge 0
scalar OsgEarthNet.uav[245] utilizationSecIdle 259199.999
scalar OsgEarthNet.uav[245] utilizationEnergyMission 0
scalar OsgEarthNet.uav[245] utilizationEnergyMaintenance 0
scalar OsgEarthNet.uav[245] utilizationEnergyCharge 0
scalar OsgEarthNet.uav[245] utilizationEnergyOverdrawMission 0
scalar OsgEarthNet.uav[245] utilizationEnergyOverdrawMaintenance 0
scalar OsgEarthNet.uav[245] utilizationCountMissions 0
scalar OsgEarthNet.uav[245] utilizationCountManeuversMission 0
scalar OsgEarthNet.uav[245] utilizationCountManeuversMaintenance 0
scalar OsgEarthNet.uav[245] utilizationCountChargeState 0
scalar OsgEarthNet.uav[245] utilizationCountOverdrawnAfterMission 0
scalar OsgEarthNet.uav[245] utilizationCountIdleState 1
scalar OsgEarthNet.uav[245] utilizationFail 0
scalar OsgEarthNet.uav[245] simulationTime 259200
scalar OsgEarthNet.uav[246] utilizationSecMission 0
scalar OsgEarthNet.uav[246] utilizationSecMaintenance 0
scalar OsgEarthNet.uav[246] utilizationSecCharge 0
scalar OsgEarthNet.uav[246] utilizationSecIdle 259199.999
scalar OsgEarthNet.uav[246] utilizationEnergyMission 0
scalar OsgEarthNet.uav[246] utilizationEnergyMaintenance 0
scalar OsgEarthNet.uav[246] utilizationEnergyCharge 0
scalar OsgEarthNet.uav[246] utilizationEnergyOverdrawMission 0
scalar OsgEarthNet.uav[246] utilizationEnergyOverdrawMaintenance 0
scalar OsgEarthNet.uav[246] utilizationCountMissions 0
scalar OsgEarthNet.uav[246] utilizationCountManeuversMission 0
scalar OsgEarthNet.uav[246] utilizationCountManeuversMaintenance 0
scalar OsgEarthNet.uav[246] utilizationCountChargeState 0
scalar OsgEarthNet.uav[246] utilizationCountOverdrawnAfterMission 0
scalar OsgEarthNet.uav[246] utilizationCountIdleState 1
scalar OsgEarthNet.uav[246] utilizationFail 0
scalar OsgEarthNet.uav[246] simulationTime 259200
scalar OsgEarthNet.uav[247] utilizationSecMission 0
scalar OsgEarthNet.uav[247] utilizationSecMaintenance 0
scalar OsgEarthNet.uav[247] utilizationSecCharge 0
scalar OsgEarthNet.uav[247] utilizationSecIdle 259199.999
scalar OsgEarthNet.uav[247] utilizationEnergyMission 0
scalar OsgEarthNet.uav[247] utilizationEnergyMaintenance 0
scalar OsgEarthNet.uav[247] utilizationEnergyCharge 0
scalar OsgEarthNet.uav[247] utilizationEnergyOverdrawMission 0
scalar OsgEarthNet.uav[247] utilizationEnergyOverdrawMaintenance 0
scalar OsgEarthNet.uav[247] utilizationCountMissions 0
scalar OsgEarthNet.uav[247] utilizationCountManeuversMission 0
scalar OsgEarthNet.uav[247] utilizationCountManeuversMaintenance 0
scalar OsgEarthNet.uav[247] utilizationCountChargeState 0
scalar OsgEarthNet.uav[247] utilizationCountOverdrawnAfterMission 0
scalar OsgEarthNet.uav[247] utilizationCountIdleState 1
scalar OsgEarthNet.uav[247] utilizationFail 0
scalar OsgEarthNet.uav[247] simulationTime 259200
scalar OsgEarthNet.uav[248] utilizationSecMission 0
scalar OsgEarthNet.uav[248] utilizationSecMaintenance 0
scalar OsgEarthNet.uav[248] utilizationSecCharge 0
scalar OsgEarthNet.uav[248] utilizationSecIdle 259199.999
scalar OsgEarthNet.uav[248] utilizationEnergyMission 0
scalar OsgEarthNet.uav[248] utilizationEnergyMaintenance 0
scalar OsgEarthNet.uav[248] utilizationEnergyCharge 0
scalar OsgEarthNet.uav[248] utilizationEnergyOverdrawMission 0
scalar OsgEarthNet.uav[248] utilizationEnergyOverdrawMaintenance 0
scalar OsgEarthNet.uav[248] utilizationCountMissions 0
scalar OsgEarthNet.uav[248] utilizationCountManeuversMission 0
scalar OsgEarthNet.uav[248] utilizationCountManeuversMaintenance 0
scalar OsgEarthNet.uav[248] utilizationCountChargeState 0
scalar OsgEarthNet.uav[248] utilizationCountOverdrawnAfterMission 0
scalar OsgEarthNet.uav[248] utilizationCountIdleState 1
scalar OsgEarthNet.uav[248] utilizationFail 0
scalar OsgEarthNet.uav[248] simulationTime 259200
scalar OsgEarthNet.uav[249] utilizationSecMission 0
scalar OsgEarthNet.uav[249] utilizationSecMaintenance 0
scalar OsgEarthNet.uav[249] utilizationSecCharge 0
scalar OsgEarthNet.uav[249] utilizationSecIdle 259199.999
scalar OsgEarthNet.uav[249] utilizationEnergyMission 0
scalar OsgEarthNet.uav[249] utilizationEnergyMaintenance 0
scalar OsgEarthNet.uav[249] utilizationEnergyCharge 0
scalar OsgEarthNet.uav[249] utilizationEnergyOverdrawMission 0
scalar OsgEarthNet.uav[249] utilizationEnergyOverdrawMaintenance 0
scalar OsgEarthNet.uav[249] utilizationCountMissions 0
scalar OsgEarthNet.uav[249] utilizationCountManeuversMission 0
scalar OsgEarthNet.uav[249] utilizationCountManeuversMaintenance 0
scalar OsgEarthNet.uav[249] utilizationCountChargeState 0
scalar OsgEarthNet.uav[249] utilizationCountOverdrawnAfterMission 0
scalar OsgEarthNet.uav[249] utilizationCountIdleState 1
scalar OsgEarthNet.uav[249] utilizationFail 0
scalar OsgEarthNet.uav[249] simulationTime 259200
scalar OsgEarthNet.cs[0] usedPower 4002764.4560461
scalar OsgEarthNet.cs[0] chargedPower 4002764.4560461
scalar OsgEarthNet.cs[0] chargedMobileNodes 878
scalar OsgEarthNet.cs[0] reservations 891
scalar OsgEarthNet.cs[1] usedPower 4135230.7600708
scalar OsgEarthNet.cs[1] chargedPower 4135230.7600708
scalar OsgEarthNet.cs[1] chargedMobileNodes 1032
scalar OsgEarthNet.cs[1] reservations 1046
scalar OsgEarthNet.cs[2] usedPower 8698125.1187593
scalar OsgEarthNet.cs[2] chargedPower 8698125.1187593
scalar OsgEarthNet.cs[2] chargedMobileNodes 536
scalar OsgEarthNet.cs[2] reservations 1897

