version 2
run Szenario_Hotel_Gabelbach-408-20180719-16:57:30-18932
attr configname Szenario_Hotel_Gabelbach
attr datetime 20180719-16:57:30
attr experiment Szenario_Hotel_Gabelbach
attr inifile omnetpp.ini
attr iterationvars "$replM=2, $biWeight=0.35, $replSearchM=1, $numUAVs=88"
attr iterationvarsf replM=2,biWeight=0.35,replSearchM=1,numUAVs=88-
attr measurement "$replM=2, $biWeight=0.35, $replSearchM=1, $numUAVs=88"
attr network OsgEarthNet
attr processid 18932
attr repetition 0
attr replication #0
attr resultdir results
attr runnumber 408
attr seedset 408
itervar biWeight 0.35
itervar numUAVs 88
itervar replM 2
itervar replSearchM 1
param *.osgEarthScene.scene "\"Szenario_Hotel_Gabelbach.earth\""
param *.playgroundLatitude 50.6830269
param *.playgroundLongitude 10.8538055
param *.playgroundWidth 3500m
param *.playgroundHeight 3500m
param *.cs[0].posX 3537m
param *.cs[0].posY 965m
param *.cs[0].posZ 538m
param *.cs[1].posX 312m
param *.cs[1].posY 1262m
param *.cs[1].posZ 539m
param *.cs[2].posX 2185m
param *.cs[2].posY 3026m
param *.cs[2].posZ 777m
param *.cs[3].posX 10m
param *.cs[3].posY 2200m
param *.cs[3].posZ 560m
param *.cs[4].posX 750m
param *.cs[4].posY 200m
param *.cs[4].posZ 540m
param *.cs[5].posX 2450m
param *.cs[5].posY 180m
param *.cs[5].posZ 524m
param *.cs[6].posX 3140m
param *.cs[6].posY 1790m
param *.cs[6].posZ 606m
param *.numCSs 3
param *.uav[*].replacementMethod 2
param *.uav[*].weightedSumWeight 0.35
param *.missionControl.replacementSearchMethod 1
param *.numUAVs 88
param *.*.timeStep 10s
param *.uav[*].commandPreviewCommandCount 20
param *.missionControl.missionFiles "\"missions\\\\Szenario_WB_Hotel_Gabelbach_Mission_Hotel.waypoints,missions\\\\Szenario_WB_Hotel_Gabelbach_Mission_Kickelhahn.waypoints,missions\\\\Szenario_WB_Hotel_Gabelbach_Mission_Ilmenau_Sportplatz.waypoints,missions\\\\Szenario_WB_Hotel_Gabelbach_Mission_Manebach_Mitte.waypoints,missions\\\\Szenario_WB_Hotel_Gabelbach_Mission_Manebach_Sued.waypoints,missions\\\\Szenario_WB_Hotel_Gabelbach_Hover_HoheSchlaufe.waypoints,missions\\\\Szenario_WB_Hotel_Gabelbach_Hover_Kickelhahn.waypoints,missions\\\\Szenario_WB_Hotel_Gabelbach_Hover_Gabelbachskopf.waypoints,missions\\\\Szenario_WB_Hotel_Gabelbach_Hover_Dachskopf.waypoints\""
param *.uav[0].startX 3537m
param *.uav[0].startY 965m
param *.uav[0].startZ 539m
param *.uav[1].startX 312m
param *.uav[1].startY 1262m
param *.uav[1].startZ 540m
param *.uav[2].startX 2185m
param *.uav[2].startY 3026m
param *.uav[2].startZ 778m
param *.uav[3].startX 3537m
param *.uav[3].startY 965m
param *.uav[3].startZ 539m
param *.uav[4].startX 312m
param *.uav[4].startY 1262m
param *.uav[4].startZ 540m
param *.uav[5].startX 2185m
param *.uav[5].startY 3026m
param *.uav[5].startZ 778m
param *.uav[6].startX 3537m
param *.uav[6].startY 965m
param *.uav[6].startZ 539m
param *.uav[7].startX 312m
param *.uav[7].startY 1262m
param *.uav[7].startZ 540m
param *.uav[8].startX 2185m
param *.uav[8].startY 3026m
param *.uav[8].startZ 778m
param *.uav[9].startX 3537m
param *.uav[9].startY 965m
param *.uav[9].startZ 539m
param *.uav[10].startX 3537m
param *.uav[10].startY 965m
param *.uav[10].startZ 539m
param *.uav[11].startX 312m
param *.uav[11].startY 1262m
param *.uav[11].startZ 540m
param *.uav[12].startX 2185m
param *.uav[12].startY 3026m
param *.uav[12].startZ 778m
param *.uav[13].startX 3537m
param *.uav[13].startY 965m
param *.uav[13].startZ 539m
param *.uav[14].startX 312m
param *.uav[14].startY 1262m
param *.uav[14].startZ 540m
param *.uav[15].startX 2185m
param *.uav[15].startY 3026m
param *.uav[15].startZ 778m
param *.uav[16].startX 3537m
param *.uav[16].startY 965m
param *.uav[16].startZ 539m
param *.uav[17].startX 312m
param *.uav[17].startY 1262m
param *.uav[17].startZ 540m
param *.uav[18].startX 2185m
param *.uav[18].startY 3026m
param *.uav[18].startZ 778m
param *.uav[19].startX 3537m
param *.uav[19].startY 965m
param *.uav[19].startZ 539m
param *.uav[20].startX 3537m
param *.uav[20].startY 965m
param *.uav[20].startZ 539m
param *.uav[21].startX 312m
param *.uav[21].startY 1262m
param *.uav[21].startZ 540m
param *.uav[22].startX 2185m
param *.uav[22].startY 3026m
param *.uav[22].startZ 778m
param *.uav[23].startX 3537m
param *.uav[23].startY 965m
param *.uav[23].startZ 539m
param *.uav[24].startX 312m
param *.uav[24].startY 1262m
param *.uav[24].startZ 540m
param *.uav[25].startX 2185m
param *.uav[25].startY 3026m
param *.uav[25].startZ 778m
param *.uav[26].startX 3537m
param *.uav[26].startY 965m
param *.uav[26].startZ 539m
param *.uav[27].startX 312m
param *.uav[27].startY 1262m
param *.uav[27].startZ 540m
param *.uav[28].startX 2185m
param *.uav[28].startY 3026m
param *.uav[28].startZ 778m
param *.uav[29].startX 3537m
param *.uav[29].startY 965m
param *.uav[29].startZ 539m
param *.uav[30].startX 3537m
param *.uav[30].startY 965m
param *.uav[30].startZ 539m
param *.uav[31].startX 312m
param *.uav[31].startY 1262m
param *.uav[31].startZ 540m
param *.uav[32].startX 2185m
param *.uav[32].startY 3026m
param *.uav[32].startZ 778m
param *.uav[33].startX 3537m
param *.uav[33].startY 965m
param *.uav[33].startZ 539m
param *.uav[34].startX 312m
param *.uav[34].startY 1262m
param *.uav[34].startZ 540m
param *.uav[35].startX 2185m
param *.uav[35].startY 3026m
param *.uav[35].startZ 778m
param *.uav[36].startX 3537m
param *.uav[36].startY 965m
param *.uav[36].startZ 539m
param *.uav[37].startX 312m
param *.uav[37].startY 1262m
param *.uav[37].startZ 540m
param *.uav[38].startX 2185m
param *.uav[38].startY 3026m
param *.uav[38].startZ 778m
param *.uav[39].startX 3537m
param *.uav[39].startY 965m
param *.uav[39].startZ 539m
param *.uav[40].startX 3537m
param *.uav[40].startY 965m
param *.uav[40].startZ 539m
param *.uav[41].startX 312m
param *.uav[41].startY 1262m
param *.uav[41].startZ 540m
param *.uav[42].startX 2185m
param *.uav[42].startY 3026m
param *.uav[42].startZ 778m
param *.uav[43].startX 3537m
param *.uav[43].startY 965m
param *.uav[43].startZ 539m
param *.uav[44].startX 312m
param *.uav[44].startY 1262m
param *.uav[44].startZ 540m
param *.uav[45].startX 2185m
param *.uav[45].startY 3026m
param *.uav[45].startZ 778m
param *.uav[46].startX 3537m
param *.uav[46].startY 965m
param *.uav[46].startZ 539m
param *.uav[47].startX 312m
param *.uav[47].startY 1262m
param *.uav[47].startZ 540m
param *.uav[48].startX 2185m
param *.uav[48].startY 3026m
param *.uav[48].startZ 778m
param *.uav[49].startX 3537m
param *.uav[49].startY 965m
param *.uav[49].startZ 539m
param *.uav[50].startX 3537m
param *.uav[50].startY 965m
param *.uav[50].startZ 539m
param *.uav[51].startX 312m
param *.uav[51].startY 1262m
param *.uav[51].startZ 540m
param *.uav[52].startX 2185m
param *.uav[52].startY 3026m
param *.uav[52].startZ 778m
param *.uav[53].startX 3537m
param *.uav[53].startY 965m
param *.uav[53].startZ 539m
param *.uav[54].startX 312m
param *.uav[54].startY 1262m
param *.uav[54].startZ 540m
param *.uav[55].startX 2185m
param *.uav[55].startY 3026m
param *.uav[55].startZ 778m
param *.uav[56].startX 3537m
param *.uav[56].startY 965m
param *.uav[56].startZ 539m
param *.uav[57].startX 312m
param *.uav[57].startY 1262m
param *.uav[57].startZ 540m
param *.uav[58].startX 2185m
param *.uav[58].startY 3026m
param *.uav[58].startZ 778m
param *.uav[59].startX 3537m
param *.uav[59].startY 965m
param *.uav[59].startZ 539m
param *.uav[60].startX 3537m
param *.uav[60].startY 965m
param *.uav[60].startZ 539m
param *.uav[61].startX 312m
param *.uav[61].startY 1262m
param *.uav[61].startZ 540m
param *.uav[62].startX 2185m
param *.uav[62].startY 3026m
param *.uav[62].startZ 778m
param *.uav[63].startX 3537m
param *.uav[63].startY 965m
param *.uav[63].startZ 539m
param *.uav[64].startX 312m
param *.uav[64].startY 1262m
param *.uav[64].startZ 540m
param *.uav[65].startX 2185m
param *.uav[65].startY 3026m
param *.uav[65].startZ 778m
param *.uav[66].startX 3537m
param *.uav[66].startY 965m
param *.uav[66].startZ 539m
param *.uav[67].startX 312m
param *.uav[67].startY 1262m
param *.uav[67].startZ 540m
param *.uav[68].startX 2185m
param *.uav[68].startY 3026m
param *.uav[68].startZ 778m
param *.uav[69].startX 3537m
param *.uav[69].startY 965m
param *.uav[69].startZ 539m
param *.uav[70].startX 3537m
param *.uav[70].startY 965m
param *.uav[70].startZ 539m
param *.uav[71].startX 312m
param *.uav[71].startY 1262m
param *.uav[71].startZ 540m
param *.uav[72].startX 2185m
param *.uav[72].startY 3026m
param *.uav[72].startZ 778m
param *.uav[73].startX 3537m
param *.uav[73].startY 965m
param *.uav[73].startZ 539m
param *.uav[74].startX 312m
param *.uav[74].startY 1262m
param *.uav[74].startZ 540m
param *.uav[75].startX 2185m
param *.uav[75].startY 3026m
param *.uav[75].startZ 778m
param *.uav[76].startX 3537m
param *.uav[76].startY 965m
param *.uav[76].startZ 539m
param *.uav[77].startX 312m
param *.uav[77].startY 1262m
param *.uav[77].startZ 540m
param *.uav[78].startX 2185m
param *.uav[78].startY 3026m
param *.uav[78].startZ 778m
param *.uav[79].startX 3537m
param *.uav[79].startY 965m
param *.uav[79].startZ 539m
param *.uav[80].startX 3537m
param *.uav[80].startY 965m
param *.uav[80].startZ 539m
param *.uav[81].startX 312m
param *.uav[81].startY 1262m
param *.uav[81].startZ 540m
param *.uav[82].startX 2185m
param *.uav[82].startY 3026m
param *.uav[82].startZ 778m
param *.uav[83].startX 3537m
param *.uav[83].startY 965m
param *.uav[83].startZ 539m
param *.uav[84].startX 312m
param *.uav[84].startY 1262m
param *.uav[84].startZ 540m
param *.uav[85].startX 2185m
param *.uav[85].startY 3026m
param *.uav[85].startZ 778m
param *.uav[86].startX 3537m
param *.uav[86].startY 965m
param *.uav[86].startZ 539m
param *.uav[87].startX 312m
param *.uav[87].startY 1262m
param *.uav[87].startZ 540m
param *.uav[88].startX 2185m
param *.uav[88].startY 3026m
param *.uav[88].startZ 778m
param *.uav[89].startX 3537m
param *.uav[89].startY 965m
param *.uav[89].startZ 539m
param *.uav[90].startX 3537m
param *.uav[90].startY 965m
param *.uav[90].startZ 539m
param *.uav[91].startX 312m
param *.uav[91].startY 1262m
param *.uav[91].startZ 540m
param *.uav[92].startX 2185m
param *.uav[92].startY 3026m
param *.uav[92].startZ 778m
param *.uav[93].startX 3537m
param *.uav[93].startY 965m
param *.uav[93].startZ 539m
param *.uav[94].startX 312m
param *.uav[94].startY 1262m
param *.uav[94].startZ 540m
param *.uav[95].startX 2185m
param *.uav[95].startY 3026m
param *.uav[95].startZ 778m
param *.uav[96].startX 3537m
param *.uav[96].startY 965m
param *.uav[96].startZ 539m
param *.uav[97].startX 312m
param *.uav[97].startY 1262m
param *.uav[97].startZ 540m
param *.uav[98].startX 2185m
param *.uav[98].startY 3026m
param *.uav[98].startZ 778m
param *.uav[99].startX 3537m
param *.uav[99].startY 965m
param *.uav[99].startZ 539m
param *.osgEarthScene.scene "\"boston.earth\""
param *.playgroundLatitude 42.3558
param *.playgroundLongitude -71.0677
param *.playgroundWidth 400m
param *.playgroundHeight 200m
param *.channelController.connectionColor "\"#0000FF40\""
param *.channelController.showConnections false
param *.uav[*].modelURL "\"quadrocopter.small.obj.15.scale.0,0,90.rot\""
param *.uav[*].labelColor "\"#FF7C00CC\""
param *.uav[*].label2Color "\"#FF7C00EE\""
param *.uav[*].batteryCapacity 5200mAh
param *.uav[*].batteryRemaining uav[index].batteryCapacity
param *.uav[*].predictionQuantile 0.95
param *.uav[*].replacementMethod 2
param *.uav[*].weightedSumWeight 0.5
param *.cs[*].modelURL "\"chargingstation_v1.osgt.2.scale.0,0,0.rot.0,0,-15e-1.trans\""
param *.cs[*].spotsWaiting 999
param *.cs[*].spotsCharging 999
param *.cs[*].chargeEffectivenessPercentage 100
param *.cs[*].nonLinearPhaseStartPercentage 85
param *.cs[*].chargeCurrent 6.0A
param *.cs[*].prioritizeFastCharge true
param *.missionControl.replacementSearchMethod 0
param *.*.timeStep 9s

scalar OsgEarthNet.uav[0] utilizationSecMission 4661.8754577408
scalar OsgEarthNet.uav[0] utilizationSecMaintenance 2903.7831600443
scalar OsgEarthNet.uav[0] utilizationSecCharge 28370
scalar OsgEarthNet.uav[0] utilizationSecIdle 223264.34038221
scalar OsgEarthNet.uav[0] utilizationEnergyMission 23131.717506409
scalar OsgEarthNet.uav[0] utilizationEnergyMaintenance 13839.221496582
scalar OsgEarthNet.uav[0] utilizationEnergyCharge 36754.905273438
scalar OsgEarthNet.uav[0] utilizationEnergyOverdrawMission 0
scalar OsgEarthNet.uav[0] utilizationEnergyOverdrawMaintenance 0
scalar OsgEarthNet.uav[0] utilizationCountMissions 8
scalar OsgEarthNet.uav[0] utilizationCountManeuversMission 155
scalar OsgEarthNet.uav[0] utilizationCountManeuversMaintenance 16
scalar OsgEarthNet.uav[0] utilizationCountChargeState 8
scalar OsgEarthNet.uav[0] utilizationCountOverdrawnAfterMission 0
scalar OsgEarthNet.uav[0] utilizationCountIdleState 9
scalar OsgEarthNet.uav[0] utilizationFail 0
scalar OsgEarthNet.uav[0] simulationTime 259200
scalar OsgEarthNet.uav[1] utilizationSecMission 1222.9478315036
scalar OsgEarthNet.uav[1] utilizationSecMaintenance 693.64054514173
scalar OsgEarthNet.uav[1] utilizationSecCharge 6970
scalar OsgEarthNet.uav[1] utilizationSecIdle 250313.41062335
scalar OsgEarthNet.uav[1] utilizationEnergyMission 5934.2238311768
scalar OsgEarthNet.uav[1] utilizationEnergyMaintenance 3303.9172706604
scalar OsgEarthNet.uav[1] utilizationEnergyCharge 9025.6455078125
scalar OsgEarthNet.uav[1] utilizationEnergyOverdrawMission 0
scalar OsgEarthNet.uav[1] utilizationEnergyOverdrawMaintenance 0
scalar OsgEarthNet.uav[1] utilizationCountMissions 2
scalar OsgEarthNet.uav[1] utilizationCountManeuversMission 39
scalar OsgEarthNet.uav[1] utilizationCountManeuversMaintenance 4
scalar OsgEarthNet.uav[1] utilizationCountChargeState 2
scalar OsgEarthNet.uav[1] utilizationCountOverdrawnAfterMission 0
scalar OsgEarthNet.uav[1] utilizationCountIdleState 3
scalar OsgEarthNet.uav[1] utilizationFail 0
scalar OsgEarthNet.uav[1] simulationTime 259200
scalar OsgEarthNet.uav[2] utilizationSecMission 42842.41230888
scalar OsgEarthNet.uav[2] utilizationSecMaintenance 18157.062460548
scalar OsgEarthNet.uav[2] utilizationSecCharge 196258.85117899
scalar OsgEarthNet.uav[2] utilizationSecIdle 1941.6730515863
scalar OsgEarthNet.uav[2] utilizationEnergyMission 209662.94640732
scalar OsgEarthNet.uav[2] utilizationEnergyMaintenance 84435.426021576
scalar OsgEarthNet.uav[2] utilizationEnergyCharge 290313.07617188
scalar OsgEarthNet.uav[2] utilizationEnergyOverdrawMission 0
scalar OsgEarthNet.uav[2] utilizationEnergyOverdrawMaintenance 0
scalar OsgEarthNet.uav[2] utilizationCountMissions 63
scalar OsgEarthNet.uav[2] utilizationCountManeuversMission 1220
scalar OsgEarthNet.uav[2] utilizationCountManeuversMaintenance 126
scalar OsgEarthNet.uav[2] utilizationCountChargeState 63
scalar OsgEarthNet.uav[2] utilizationCountOverdrawnAfterMission 0
scalar OsgEarthNet.uav[2] utilizationCountIdleState 3
scalar OsgEarthNet.uav[2] utilizationFail 0
scalar OsgEarthNet.uav[2] simulationTime 259200
scalar OsgEarthNet.uav[3] utilizationSecMission 3261.8754577408
scalar OsgEarthNet.uav[3] utilizationSecMaintenance 1658.8866220067
scalar OsgEarthNet.uav[3] utilizationSecCharge 17820
scalar OsgEarthNet.uav[3] utilizationSecIdle 236459.23692025
scalar OsgEarthNet.uav[3] utilizationEnergyMission 15357.427364349
scalar OsgEarthNet.uav[3] utilizationEnergyMaintenance 8108.6816177368
scalar OsgEarthNet.uav[3] utilizationEnergyCharge 23114.085449219
scalar OsgEarthNet.uav[3] utilizationEnergyOverdrawMission 0
scalar OsgEarthNet.uav[3] utilizationEnergyOverdrawMaintenance 0
scalar OsgEarthNet.uav[3] utilizationCountMissions 5
scalar OsgEarthNet.uav[3] utilizationCountManeuversMission 85
scalar OsgEarthNet.uav[3] utilizationCountManeuversMaintenance 10
scalar OsgEarthNet.uav[3] utilizationCountChargeState 5
scalar OsgEarthNet.uav[3] utilizationCountOverdrawnAfterMission 0
scalar OsgEarthNet.uav[3] utilizationCountIdleState 6
scalar OsgEarthNet.uav[3] utilizationFail 0
scalar OsgEarthNet.uav[3] simulationTime 259200
scalar OsgEarthNet.uav[4] utilizationSecMission 16091.709655231
scalar OsgEarthNet.uav[4] utilizationSecMaintenance 12072.302910785
scalar OsgEarthNet.uav[4] utilizationSecCharge 111350
scalar OsgEarthNet.uav[4] utilizationSecIdle 119685.98643398
scalar OsgEarthNet.uav[4] utilizationEnergyMission 78070.848628998
scalar OsgEarthNet.uav[4] utilizationEnergyMaintenance 57302.010349274
scalar OsgEarthNet.uav[4] utilizationEnergyCharge 137754.98168945
scalar OsgEarthNet.uav[4] utilizationEnergyOverdrawMission 0
scalar OsgEarthNet.uav[4] utilizationEnergyOverdrawMaintenance 0
scalar OsgEarthNet.uav[4] utilizationCountMissions 35
scalar OsgEarthNet.uav[4] utilizationCountManeuversMission 595
scalar OsgEarthNet.uav[4] utilizationCountManeuversMaintenance 70
scalar OsgEarthNet.uav[4] utilizationCountChargeState 35
scalar OsgEarthNet.uav[4] utilizationCountOverdrawnAfterMission 0
scalar OsgEarthNet.uav[4] utilizationCountIdleState 36
scalar OsgEarthNet.uav[4] utilizationFail 0
scalar OsgEarthNet.uav[4] simulationTime 259200
scalar OsgEarthNet.uav[5] utilizationSecMission 43248.366851036
scalar OsgEarthNet.uav[5] utilizationSecMaintenance 17192.206801674
scalar OsgEarthNet.uav[5] utilizationSecCharge 197210
scalar OsgEarthNet.uav[5] utilizationSecIdle 1549.4253472904
scalar OsgEarthNet.uav[5] utilizationEnergyMission 207630.03052935
scalar OsgEarthNet.uav[5] utilizationEnergyMaintenance 78215.803516388
scalar OsgEarthNet.uav[5] utilizationEnergyCharge 287274.2722168
scalar OsgEarthNet.uav[5] utilizationEnergyOverdrawMission 0
scalar OsgEarthNet.uav[5] utilizationEnergyOverdrawMaintenance 0
scalar OsgEarthNet.uav[5] utilizationCountMissions 63
scalar OsgEarthNet.uav[5] utilizationCountManeuversMission 1299
scalar OsgEarthNet.uav[5] utilizationCountManeuversMaintenance 127
scalar OsgEarthNet.uav[5] utilizationCountChargeState 63
scalar OsgEarthNet.uav[5] utilizationCountOverdrawnAfterMission 0
scalar OsgEarthNet.uav[5] utilizationCountIdleState 5
scalar OsgEarthNet.uav[5] utilizationFail 0
scalar OsgEarthNet.uav[5] simulationTime 259200
scalar OsgEarthNet.uav[6] utilizationSecMission 1360
scalar OsgEarthNet.uav[6] utilizationSecMaintenance 1341.9937539667
scalar OsgEarthNet.uav[6] utilizationSecCharge 10600
scalar OsgEarthNet.uav[6] utilizationSecIdle 245898.00524603
scalar OsgEarthNet.uav[6] utilizationEnergyMission 6849.6251182556
scalar OsgEarthNet.uav[6] utilizationEnergyMaintenance 6403.9064064026
scalar OsgEarthNet.uav[6] utilizationEnergyCharge 13551.841308594
scalar OsgEarthNet.uav[6] utilizationEnergyOverdrawMission 0
scalar OsgEarthNet.uav[6] utilizationEnergyOverdrawMaintenance 0
scalar OsgEarthNet.uav[6] utilizationCountMissions 3
scalar OsgEarthNet.uav[6] utilizationCountManeuversMission 68
scalar OsgEarthNet.uav[6] utilizationCountManeuversMaintenance 6
scalar OsgEarthNet.uav[6] utilizationCountChargeState 3
scalar OsgEarthNet.uav[6] utilizationCountOverdrawnAfterMission 0
scalar OsgEarthNet.uav[6] utilizationCountIdleState 4
scalar OsgEarthNet.uav[6] utilizationFail 0
scalar OsgEarthNet.uav[6] simulationTime 259200
scalar OsgEarthNet.uav[7] utilizationSecMission 12304.35780414
scalar OsgEarthNet.uav[7] utilizationSecMaintenance 9253.6331958603
scalar OsgEarthNet.uav[7] utilizationSecCharge 82080
scalar OsgEarthNet.uav[7] utilizationSecIdle 155562.008
scalar OsgEarthNet.uav[7] utilizationEnergyMission 62286.083356921
scalar OsgEarthNet.uav[7] utilizationEnergyMaintenance 44043.566173553
scalar OsgEarthNet.uav[7] utilizationEnergyCharge 102956.38964844
scalar OsgEarthNet.uav[7] utilizationEnergyOverdrawMission 0
scalar OsgEarthNet.uav[7] utilizationEnergyOverdrawMaintenance 0
scalar OsgEarthNet.uav[7] utilizationCountMissions 25
scalar OsgEarthNet.uav[7] utilizationCountManeuversMission 533
scalar OsgEarthNet.uav[7] utilizationCountManeuversMaintenance 51
scalar OsgEarthNet.uav[7] utilizationCountChargeState 25
scalar OsgEarthNet.uav[7] utilizationCountOverdrawnAfterMission 0
scalar OsgEarthNet.uav[7] utilizationCountIdleState 26
scalar OsgEarthNet.uav[7] utilizationFail 0
scalar OsgEarthNet.uav[7] simulationTime 259200
scalar OsgEarthNet.uav[8] utilizationSecMission 42429.219203211
scalar OsgEarthNet.uav[8] utilizationSecMaintenance 18387.467347705
scalar OsgEarthNet.uav[8] utilizationSecCharge 194432.61201185
scalar OsgEarthNet.uav[8] utilizationSecIdle 3950.7004372363
scalar OsgEarthNet.uav[8] utilizationEnergyMission 203172.61697769
scalar OsgEarthNet.uav[8] utilizationEnergyMaintenance 84774.877902985
scalar OsgEarthNet.uav[8] utilizationEnergyCharge 286684.43408203
scalar OsgEarthNet.uav[8] utilizationEnergyOverdrawMission 0
scalar OsgEarthNet.uav[8] utilizationEnergyOverdrawMaintenance 0
scalar OsgEarthNet.uav[8] utilizationCountMissions 63
scalar OsgEarthNet.uav[8] utilizationCountManeuversMission 1176
scalar OsgEarthNet.uav[8] utilizationCountManeuversMaintenance 126
scalar OsgEarthNet.uav[8] utilizationCountChargeState 63
scalar OsgEarthNet.uav[8] utilizationCountOverdrawnAfterMission 0
scalar OsgEarthNet.uav[8] utilizationCountIdleState 6
scalar OsgEarthNet.uav[8] utilizationFail 0
scalar OsgEarthNet.uav[8] simulationTime 259200
scalar OsgEarthNet.uav[9] utilizationSecMission 5061.8754577408
scalar OsgEarthNet.uav[9] utilizationSecMaintenance 3448.6135294054
scalar OsgEarthNet.uav[9] utilizationSecCharge 31810
scalar OsgEarthNet.uav[9] utilizationSecIdle 218879.51001285
scalar OsgEarthNet.uav[9] utilizationEnergyMission 24796.238353729
scalar OsgEarthNet.uav[9] utilizationEnergyMaintenance 16447.046043396
scalar OsgEarthNet.uav[9] utilizationEnergyCharge 40897.168457031
scalar OsgEarthNet.uav[9] utilizationEnergyOverdrawMission 0
scalar OsgEarthNet.uav[9] utilizationEnergyOverdrawMaintenance 0
scalar OsgEarthNet.uav[9] utilizationCountMissions 9
scalar OsgEarthNet.uav[9] utilizationCountManeuversMission 175
scalar OsgEarthNet.uav[9] utilizationCountManeuversMaintenance 18
scalar OsgEarthNet.uav[9] utilizationCountChargeState 9
scalar OsgEarthNet.uav[9] utilizationCountOverdrawnAfterMission 0
scalar OsgEarthNet.uav[9] utilizationCountIdleState 10
scalar OsgEarthNet.uav[9] utilizationFail 0
scalar OsgEarthNet.uav[9] simulationTime 259200
scalar OsgEarthNet.uav[10] utilizationSecMission 2820
scalar OsgEarthNet.uav[10] utilizationSecMaintenance 2684.2889345157
scalar OsgEarthNet.uav[10] utilizationSecCharge 20920
scalar OsgEarthNet.uav[10] utilizationSecIdle 232775.71006548
scalar OsgEarthNet.uav[10] utilizationEnergyMission 14126.107128143
scalar OsgEarthNet.uav[10] utilizationEnergyMaintenance 12513.048042297
scalar OsgEarthNet.uav[10] utilizationEnergyCharge 26974.044921875
scalar OsgEarthNet.uav[10] utilizationEnergyOverdrawMission 0
scalar OsgEarthNet.uav[10] utilizationEnergyOverdrawMaintenance 0
scalar OsgEarthNet.uav[10] utilizationCountMissions 6
scalar OsgEarthNet.uav[10] utilizationCountManeuversMission 141
scalar OsgEarthNet.uav[10] utilizationCountManeuversMaintenance 12
scalar OsgEarthNet.uav[10] utilizationCountChargeState 6
scalar OsgEarthNet.uav[10] utilizationCountOverdrawnAfterMission 0
scalar OsgEarthNet.uav[10] utilizationCountIdleState 7
scalar OsgEarthNet.uav[10] utilizationFail 0
scalar OsgEarthNet.uav[10] simulationTime 259200
scalar OsgEarthNet.uav[11] utilizationSecMission 19976.407977357
scalar OsgEarthNet.uav[11] utilizationSecMaintenance 14031.159622833
scalar OsgEarthNet.uav[11] utilizationSecCharge 133780.43139981
scalar OsgEarthNet.uav[11] utilizationSecIdle 91412
scalar OsgEarthNet.uav[11] utilizationEnergyMission 95926.145542145
scalar OsgEarthNet.uav[11] utilizationEnergyMaintenance 67154.253787994
scalar OsgEarthNet.uav[11] utilizationEnergyCharge 163651.45751953
scalar OsgEarthNet.uav[11] utilizationEnergyOverdrawMission 0
scalar OsgEarthNet.uav[11] utilizationEnergyOverdrawMaintenance 0
scalar OsgEarthNet.uav[11] utilizationCountMissions 43
scalar OsgEarthNet.uav[11] utilizationCountManeuversMission 618
scalar OsgEarthNet.uav[11] utilizationCountManeuversMaintenance 86
scalar OsgEarthNet.uav[11] utilizationCountChargeState 43
scalar OsgEarthNet.uav[11] utilizationCountOverdrawnAfterMission 0
scalar OsgEarthNet.uav[11] utilizationCountIdleState 43
scalar OsgEarthNet.uav[11] utilizationFail 0
scalar OsgEarthNet.uav[11] simulationTime 259200
scalar OsgEarthNet.uav[12] utilizationSecMission 42735.917441418
scalar OsgEarthNet.uav[12] utilizationSecMaintenance 18452.153291933
scalar OsgEarthNet.uav[12] utilizationSecCharge 195163.08010685
scalar OsgEarthNet.uav[12] utilizationSecIdle 2848.8481597938
scalar OsgEarthNet.uav[12] utilizationEnergyMission 203236.32165146
scalar OsgEarthNet.uav[12] utilizationEnergyMaintenance 84712.216930389
scalar OsgEarthNet.uav[12] utilizationEnergyCharge 287732.63708496
scalar OsgEarthNet.uav[12] utilizationEnergyOverdrawMission 0
scalar OsgEarthNet.uav[12] utilizationEnergyOverdrawMaintenance 0
scalar OsgEarthNet.uav[12] utilizationCountMissions 64
scalar OsgEarthNet.uav[12] utilizationCountManeuversMission 1247
scalar OsgEarthNet.uav[12] utilizationCountManeuversMaintenance 128
scalar OsgEarthNet.uav[12] utilizationCountChargeState 64
scalar OsgEarthNet.uav[12] utilizationCountOverdrawnAfterMission 0
scalar OsgEarthNet.uav[12] utilizationCountIdleState 5
scalar OsgEarthNet.uav[12] utilizationFail 0
scalar OsgEarthNet.uav[12] simulationTime 259200
scalar OsgEarthNet.uav[13] utilizationSecMission 5733.383801652
scalar OsgEarthNet.uav[13] utilizationSecMaintenance 2994.39781819
scalar OsgEarthNet.uav[13] utilizationSecCharge 31750
scalar OsgEarthNet.uav[13] utilizationSecIdle 218722.21738016
scalar OsgEarthNet.uav[13] utilizationEnergyMission 26691.153167725
scalar OsgEarthNet.uav[13] utilizationEnergyMaintenance 14437.383354187
scalar OsgEarthNet.uav[13] utilizationEnergyCharge 40943.747070312
scalar OsgEarthNet.uav[13] utilizationEnergyOverdrawMission 0
scalar OsgEarthNet.uav[13] utilizationEnergyOverdrawMaintenance 0
scalar OsgEarthNet.uav[13] utilizationCountMissions 9
scalar OsgEarthNet.uav[13] utilizationCountManeuversMission 152
scalar OsgEarthNet.uav[13] utilizationCountManeuversMaintenance 18
scalar OsgEarthNet.uav[13] utilizationCountChargeState 9
scalar OsgEarthNet.uav[13] utilizationCountOverdrawnAfterMission 0
scalar OsgEarthNet.uav[13] utilizationCountIdleState 10
scalar OsgEarthNet.uav[13] utilizationFail 0
scalar OsgEarthNet.uav[13] simulationTime 259200
scalar OsgEarthNet.uav[14] utilizationSecMission 15297.191718513
scalar OsgEarthNet.uav[14] utilizationSecMaintenance 10172.890059226
scalar OsgEarthNet.uav[14] utilizationSecCharge 97830
scalar OsgEarthNet.uav[14] utilizationSecIdle 135899.91722226
scalar OsgEarthNet.uav[14] utilizationEnergyMission 74911.751922607
scalar OsgEarthNet.uav[14] utilizationEnergyMaintenance 47981.797798157
scalar OsgEarthNet.uav[14] utilizationEnergyCharge 124027.59814453
scalar OsgEarthNet.uav[14] utilizationEnergyOverdrawMission 0
scalar OsgEarthNet.uav[14] utilizationEnergyOverdrawMaintenance 0
scalar OsgEarthNet.uav[14] utilizationCountMissions 29
scalar OsgEarthNet.uav[14] utilizationCountManeuversMission 557
scalar OsgEarthNet.uav[14] utilizationCountManeuversMaintenance 58
scalar OsgEarthNet.uav[14] utilizationCountChargeState 29
scalar OsgEarthNet.uav[14] utilizationCountOverdrawnAfterMission 0
scalar OsgEarthNet.uav[14] utilizationCountIdleState 30
scalar OsgEarthNet.uav[14] utilizationFail 0
scalar OsgEarthNet.uav[14] simulationTime 259200
scalar OsgEarthNet.uav[15] utilizationSecMission 41391.572014465
scalar OsgEarthNet.uav[15] utilizationSecMaintenance 19788.971128226
scalar OsgEarthNet.uav[15] utilizationSecCharge 196437.45285731
scalar OsgEarthNet.uav[15] utilizationSecIdle 1582.003
scalar OsgEarthNet.uav[15] utilizationEnergyMission 203540.87399292
scalar OsgEarthNet.uav[15] utilizationEnergyMaintenance 91081.214420319
scalar OsgEarthNet.uav[15] utilizationEnergyCharge 291804.68164062
scalar OsgEarthNet.uav[15] utilizationEnergyOverdrawMission 0
scalar OsgEarthNet.uav[15] utilizationEnergyOverdrawMaintenance 0
scalar OsgEarthNet.uav[15] utilizationCountMissions 65
scalar OsgEarthNet.uav[15] utilizationCountManeuversMission 1403
scalar OsgEarthNet.uav[15] utilizationCountManeuversMaintenance 130
scalar OsgEarthNet.uav[15] utilizationCountChargeState 65
scalar OsgEarthNet.uav[15] utilizationCountOverdrawnAfterMission 0
scalar OsgEarthNet.uav[15] utilizationCountIdleState 3
scalar OsgEarthNet.uav[15] utilizationFail 0
scalar OsgEarthNet.uav[15] simulationTime 259200
scalar OsgEarthNet.uav[16] utilizationSecMission 4072.7586490717
scalar OsgEarthNet.uav[16] utilizationSecMaintenance 1818.9808323852
scalar OsgEarthNet.uav[16] utilizationSecCharge 21510
scalar OsgEarthNet.uav[16] utilizationSecIdle 231798.25951854
scalar OsgEarthNet.uav[16] utilizationEnergyMission 19287.240409851
scalar OsgEarthNet.uav[16] utilizationEnergyMaintenance 8671.5573310852
scalar OsgEarthNet.uav[16] utilizationEnergyCharge 27843.658203125
scalar OsgEarthNet.uav[16] utilizationEnergyOverdrawMission 0
scalar OsgEarthNet.uav[16] utilizationEnergyOverdrawMaintenance 0
scalar OsgEarthNet.uav[16] utilizationCountMissions 6
scalar OsgEarthNet.uav[16] utilizationCountManeuversMission 95
scalar OsgEarthNet.uav[16] utilizationCountManeuversMaintenance 12
scalar OsgEarthNet.uav[16] utilizationCountChargeState 6
scalar OsgEarthNet.uav[16] utilizationCountOverdrawnAfterMission 0
scalar OsgEarthNet.uav[16] utilizationCountIdleState 7
scalar OsgEarthNet.uav[16] utilizationFail 0
scalar OsgEarthNet.uav[16] simulationTime 259200
scalar OsgEarthNet.uav[17] utilizationSecMission 16076.696448003
scalar OsgEarthNet.uav[17] utilizationSecMaintenance 10764.948949117
scalar OsgEarthNet.uav[17] utilizationSecCharge 102620
scalar OsgEarthNet.uav[17] utilizationSecIdle 129738.35360288
scalar OsgEarthNet.uav[17] utilizationEnergyMission 78692.871231079
scalar OsgEarthNet.uav[17] utilizationEnergyMaintenance 50725.450164542
scalar OsgEarthNet.uav[17] utilizationEnergyCharge 127140.67016602
scalar OsgEarthNet.uav[17] utilizationEnergyOverdrawMission 0
scalar OsgEarthNet.uav[17] utilizationEnergyOverdrawMaintenance 0
scalar OsgEarthNet.uav[17] utilizationCountMissions 32
scalar OsgEarthNet.uav[17] utilizationCountManeuversMission 521
scalar OsgEarthNet.uav[17] utilizationCountManeuversMaintenance 65
scalar OsgEarthNet.uav[17] utilizationCountChargeState 32
scalar OsgEarthNet.uav[17] utilizationCountOverdrawnAfterMission 0
scalar OsgEarthNet.uav[17] utilizationCountIdleState 33
scalar OsgEarthNet.uav[17] utilizationFail 0
scalar OsgEarthNet.uav[17] simulationTime 259200
scalar OsgEarthNet.uav[18] utilizationSecMission 43313.551833414
scalar OsgEarthNet.uav[18] utilizationSecMaintenance 18358.247327662
scalar OsgEarthNet.uav[18] utilizationSecCharge 196570.74957489
scalar OsgEarthNet.uav[18] utilizationSecIdle 957.4502640309
scalar OsgEarthNet.uav[18] utilizationEnergyMission 207779.64057159
scalar OsgEarthNet.uav[18] utilizationEnergyMaintenance 84659.382106781
scalar OsgEarthNet.uav[18] utilizationEnergyCharge 290453.09472656
scalar OsgEarthNet.uav[18] utilizationEnergyOverdrawMission 0
scalar OsgEarthNet.uav[18] utilizationEnergyOverdrawMaintenance 0
scalar OsgEarthNet.uav[18] utilizationCountMissions 64
scalar OsgEarthNet.uav[18] utilizationCountManeuversMission 1290
scalar OsgEarthNet.uav[18] utilizationCountManeuversMaintenance 128
scalar OsgEarthNet.uav[18] utilizationCountChargeState 64
scalar OsgEarthNet.uav[18] utilizationCountOverdrawnAfterMission 0
scalar OsgEarthNet.uav[18] utilizationCountIdleState 3
scalar OsgEarthNet.uav[18] utilizationFail 0
scalar OsgEarthNet.uav[18] simulationTime 259200
scalar OsgEarthNet.uav[19] utilizationSecMission 7932.8677241509
scalar OsgEarthNet.uav[19] utilizationSecMaintenance 5112.9744874735
scalar OsgEarthNet.uav[19] utilizationSecCharge 49490
scalar OsgEarthNet.uav[19] utilizationSecIdle 196664.15678838
scalar OsgEarthNet.uav[19] utilizationEnergyMission 39655.987380981
scalar OsgEarthNet.uav[19] utilizationEnergyMaintenance 24398.705421448
scalar OsgEarthNet.uav[19] utilizationEnergyCharge 63699.215820312
scalar OsgEarthNet.uav[19] utilizationEnergyOverdrawMission 0
scalar OsgEarthNet.uav[19] utilizationEnergyOverdrawMaintenance 0
scalar OsgEarthNet.uav[19] utilizationCountMissions 14
scalar OsgEarthNet.uav[19] utilizationCountManeuversMission 271
scalar OsgEarthNet.uav[19] utilizationCountManeuversMaintenance 28
scalar OsgEarthNet.uav[19] utilizationCountChargeState 14
scalar OsgEarthNet.uav[19] utilizationCountOverdrawnAfterMission 0
scalar OsgEarthNet.uav[19] utilizationCountIdleState 15
scalar OsgEarthNet.uav[19] utilizationFail 0
scalar OsgEarthNet.uav[19] simulationTime 259200
scalar OsgEarthNet.uav[20] utilizationSecMission 9693.383801652
scalar OsgEarthNet.uav[20] utilizationSecMaintenance 6476.4529904759
scalar OsgEarthNet.uav[20] utilizationSecCharge 59560
scalar OsgEarthNet.uav[20] utilizationSecIdle 183470.16220787
scalar OsgEarthNet.uav[20] utilizationEnergyMission 47808.357074738
scalar OsgEarthNet.uav[20] utilizationEnergyMaintenance 30461.099529266
scalar OsgEarthNet.uav[20] utilizationEnergyCharge 76521.259765625
scalar OsgEarthNet.uav[20] utilizationEnergyOverdrawMission 0
scalar OsgEarthNet.uav[20] utilizationEnergyOverdrawMaintenance 0
scalar OsgEarthNet.uav[20] utilizationCountMissions 17
scalar OsgEarthNet.uav[20] utilizationCountManeuversMission 350
scalar OsgEarthNet.uav[20] utilizationCountManeuversMaintenance 34
scalar OsgEarthNet.uav[20] utilizationCountChargeState 17
scalar OsgEarthNet.uav[20] utilizationCountOverdrawnAfterMission 0
scalar OsgEarthNet.uav[20] utilizationCountIdleState 18
scalar OsgEarthNet.uav[20] utilizationFail 0
scalar OsgEarthNet.uav[20] simulationTime 259200
scalar OsgEarthNet.uav[21] utilizationSecMission 16724.40985148
scalar OsgEarthNet.uav[21] utilizationSecMaintenance 11666.259345747
scalar OsgEarthNet.uav[21] utilizationSecCharge 110240
scalar OsgEarthNet.uav[21] utilizationSecIdle 120569.32980277
scalar OsgEarthNet.uav[21] utilizationEnergyMission 82106.936710358
scalar OsgEarthNet.uav[21] utilizationEnergyMaintenance 55495.556015015
scalar OsgEarthNet.uav[21] utilizationEnergyCharge 135347.67358398
scalar OsgEarthNet.uav[21] utilizationEnergyOverdrawMission 0
scalar OsgEarthNet.uav[21] utilizationEnergyOverdrawMaintenance 0
scalar OsgEarthNet.uav[21] utilizationCountMissions 35
scalar OsgEarthNet.uav[21] utilizationCountManeuversMission 567
scalar OsgEarthNet.uav[21] utilizationCountManeuversMaintenance 70
scalar OsgEarthNet.uav[21] utilizationCountChargeState 35
scalar OsgEarthNet.uav[21] utilizationCountOverdrawnAfterMission 0
scalar OsgEarthNet.uav[21] utilizationCountIdleState 36
scalar OsgEarthNet.uav[21] utilizationFail 0
scalar OsgEarthNet.uav[21] simulationTime 259200
scalar OsgEarthNet.uav[22] utilizationSecMission 43313.363130839
scalar OsgEarthNet.uav[22] utilizationSecMaintenance 18006.34054524
scalar OsgEarthNet.uav[22] utilizationSecCharge 195543.58996138
scalar OsgEarthNet.uav[22] utilizationSecIdle 2336.705362542
scalar OsgEarthNet.uav[22] utilizationEnergyMission 206389.60925674
scalar OsgEarthNet.uav[22] utilizationEnergyMaintenance 83322.267181396
scalar OsgEarthNet.uav[22] utilizationEnergyCharge 287598.46862793
scalar OsgEarthNet.uav[22] utilizationEnergyOverdrawMission 0
scalar OsgEarthNet.uav[22] utilizationEnergyOverdrawMaintenance 0
scalar OsgEarthNet.uav[22] utilizationCountMissions 64
scalar OsgEarthNet.uav[22] utilizationCountManeuversMission 1316
scalar OsgEarthNet.uav[22] utilizationCountManeuversMaintenance 128
scalar OsgEarthNet.uav[22] utilizationCountChargeState 64
scalar OsgEarthNet.uav[22] utilizationCountOverdrawnAfterMission 0
scalar OsgEarthNet.uav[22] utilizationCountIdleState 3
scalar OsgEarthNet.uav[22] utilizationFail 0
scalar OsgEarthNet.uav[22] simulationTime 259200
scalar OsgEarthNet.uav[23] utilizationSecMission 7642.5006103211
scalar OsgEarthNet.uav[23] utilizationSecMaintenance 5441.5266469404
scalar OsgEarthNet.uav[23] utilizationSecCharge 48940
scalar OsgEarthNet.uav[23] utilizationSecIdle 197175.97174274
scalar OsgEarthNet.uav[23] utilizationEnergyMission 36788.693344116
scalar OsgEarthNet.uav[23] utilizationEnergyMaintenance 26024.905731201
scalar OsgEarthNet.uav[23] utilizationEnergyCharge 63244.323730469
scalar OsgEarthNet.uav[23] utilizationEnergyOverdrawMission 0
scalar OsgEarthNet.uav[23] utilizationEnergyOverdrawMaintenance 0
scalar OsgEarthNet.uav[23] utilizationCountMissions 14
scalar OsgEarthNet.uav[23] utilizationCountManeuversMission 278
scalar OsgEarthNet.uav[23] utilizationCountManeuversMaintenance 28
scalar OsgEarthNet.uav[23] utilizationCountChargeState 14
scalar OsgEarthNet.uav[23] utilizationCountOverdrawnAfterMission 0
scalar OsgEarthNet.uav[23] utilizationCountIdleState 15
scalar OsgEarthNet.uav[23] utilizationFail 0
scalar OsgEarthNet.uav[23] simulationTime 259200
scalar OsgEarthNet.uav[24] utilizationSecMission 16756.564705425
scalar OsgEarthNet.uav[24] utilizationSecMaintenance 11577.061924273
scalar OsgEarthNet.uav[24] utilizationSecCharge 108030
scalar OsgEarthNet.uav[24] utilizationSecIdle 122836.3723703
scalar OsgEarthNet.uav[24] utilizationEnergyMission 83160.54187
scalar OsgEarthNet.uav[24] utilizationEnergyMaintenance 54737.269218445
scalar OsgEarthNet.uav[24] utilizationEnergyCharge 135134.78515625
scalar OsgEarthNet.uav[24] utilizationEnergyOverdrawMission 0
scalar OsgEarthNet.uav[24] utilizationEnergyOverdrawMaintenance 0
scalar OsgEarthNet.uav[24] utilizationCountMissions 33
scalar OsgEarthNet.uav[24] utilizationCountManeuversMission 603
scalar OsgEarthNet.uav[24] utilizationCountManeuversMaintenance 67
scalar OsgEarthNet.uav[24] utilizationCountChargeState 33
scalar OsgEarthNet.uav[24] utilizationCountOverdrawnAfterMission 0
scalar OsgEarthNet.uav[24] utilizationCountIdleState 34
scalar OsgEarthNet.uav[24] utilizationFail 0
scalar OsgEarthNet.uav[24] simulationTime 259200
scalar OsgEarthNet.uav[25] utilizationSecMission 41794.522775364
scalar OsgEarthNet.uav[25] utilizationSecMaintenance 19422.661294769
scalar OsgEarthNet.uav[25] utilizationSecCharge 196540.81292987
scalar OsgEarthNet.uav[25] utilizationSecIdle 1442.002
scalar OsgEarthNet.uav[25] utilizationEnergyMission 201649.79566956
scalar OsgEarthNet.uav[25] utilizationEnergyMaintenance 90512.453807831
scalar OsgEarthNet.uav[25] utilizationEnergyCharge 290177.1484375
scalar OsgEarthNet.uav[25] utilizationEnergyOverdrawMission 0
scalar OsgEarthNet.uav[25] utilizationEnergyOverdrawMaintenance 0
scalar OsgEarthNet.uav[25] utilizationCountMissions 64
scalar OsgEarthNet.uav[25] utilizationCountManeuversMission 1310
scalar OsgEarthNet.uav[25] utilizationCountManeuversMaintenance 128
scalar OsgEarthNet.uav[25] utilizationCountChargeState 64
scalar OsgEarthNet.uav[25] utilizationCountOverdrawnAfterMission 0
scalar OsgEarthNet.uav[25] utilizationCountIdleState 2
scalar OsgEarthNet.uav[25] utilizationFail 0
scalar OsgEarthNet.uav[25] simulationTime 259200
scalar OsgEarthNet.uav[26] utilizationSecMission 21086.981129265
scalar OsgEarthNet.uav[26] utilizationSecMaintenance 12168.226101851
scalar OsgEarthNet.uav[26] utilizationSecCharge 122202.79176888
scalar OsgEarthNet.uav[26] utilizationSecIdle 103742
scalar OsgEarthNet.uav[26] utilizationEnergyMission 100804.0815239
scalar OsgEarthNet.uav[26] utilizationEnergyMaintenance 57825.185520172
scalar OsgEarthNet.uav[26] utilizationEnergyCharge 158847.87182617
scalar OsgEarthNet.uav[26] utilizationEnergyOverdrawMission 0
scalar OsgEarthNet.uav[26] utilizationEnergyOverdrawMaintenance 0
scalar OsgEarthNet.uav[26] utilizationCountMissions 35
scalar OsgEarthNet.uav[26] utilizationCountManeuversMission 635
scalar OsgEarthNet.uav[26] utilizationCountManeuversMaintenance 69
scalar OsgEarthNet.uav[26] utilizationCountChargeState 35
scalar OsgEarthNet.uav[26] utilizationCountOverdrawnAfterMission 0
scalar OsgEarthNet.uav[26] utilizationCountIdleState 35
scalar OsgEarthNet.uav[26] utilizationFail 0
scalar OsgEarthNet.uav[26] simulationTime 259200
scalar OsgEarthNet.uav[27] utilizationSecMission 18863.294181383
scalar OsgEarthNet.uav[27] utilizationSecMaintenance 12784.981475632
scalar OsgEarthNet.uav[27] utilizationSecCharge 119574.40726115
scalar OsgEarthNet.uav[27] utilizationSecIdle 107977.31608183
scalar OsgEarthNet.uav[27] utilizationEnergyMission 92819.370090485
scalar OsgEarthNet.uav[27] utilizationEnergyMaintenance 61013.711250305
scalar OsgEarthNet.uav[27] utilizationEnergyCharge 150495.86135864
scalar OsgEarthNet.uav[27] utilizationEnergyOverdrawMission 0
scalar OsgEarthNet.uav[27] utilizationEnergyOverdrawMaintenance 0
scalar OsgEarthNet.uav[27] utilizationCountMissions 37
scalar OsgEarthNet.uav[27] utilizationCountManeuversMission 668
scalar OsgEarthNet.uav[27] utilizationCountManeuversMaintenance 74
scalar OsgEarthNet.uav[27] utilizationCountChargeState 37
scalar OsgEarthNet.uav[27] utilizationCountOverdrawnAfterMission 0
scalar OsgEarthNet.uav[27] utilizationCountIdleState 37
scalar OsgEarthNet.uav[27] utilizationFail 0
scalar OsgEarthNet.uav[27] simulationTime 259200
scalar OsgEarthNet.uav[28] utilizationSecMission 41705.332516839
scalar OsgEarthNet.uav[28] utilizationSecMaintenance 20231.762674658
scalar OsgEarthNet.uav[28] utilizationSecCharge 195740.20114079
scalar OsgEarthNet.uav[28] utilizationSecIdle 1522.7026677176
scalar OsgEarthNet.uav[28] utilizationEnergyMission 203173.34653854
scalar OsgEarthNet.uav[28] utilizationEnergyMaintenance 93506.776226044
scalar OsgEarthNet.uav[28] utilizationEnergyCharge 291257.81451416
scalar OsgEarthNet.uav[28] utilizationEnergyOverdrawMission 0
scalar OsgEarthNet.uav[28] utilizationEnergyOverdrawMaintenance 0
scalar OsgEarthNet.uav[28] utilizationCountMissions 65
scalar OsgEarthNet.uav[28] utilizationCountManeuversMission 1336
scalar OsgEarthNet.uav[28] utilizationCountManeuversMaintenance 130
scalar OsgEarthNet.uav[28] utilizationCountChargeState 65
scalar OsgEarthNet.uav[28] utilizationCountOverdrawnAfterMission 0
scalar OsgEarthNet.uav[28] utilizationCountIdleState 2
scalar OsgEarthNet.uav[28] utilizationFail 0
scalar OsgEarthNet.uav[28] simulationTime 259200
scalar OsgEarthNet.uav[29] utilizationSecMission 15455.259259393
scalar OsgEarthNet.uav[29] utilizationSecMaintenance 10732.864078194
scalar OsgEarthNet.uav[29] utilizationSecCharge 97784.100479517
scalar OsgEarthNet.uav[29] utilizationSecIdle 135227.7751829
scalar OsgEarthNet.uav[29] utilizationEnergyMission 75290.559280396
scalar OsgEarthNet.uav[29] utilizationEnergyMaintenance 50842.833522796
scalar OsgEarthNet.uav[29] utilizationEnergyCharge 126674.73486328
scalar OsgEarthNet.uav[29] utilizationEnergyOverdrawMission 0
scalar OsgEarthNet.uav[29] utilizationEnergyOverdrawMaintenance 0
scalar OsgEarthNet.uav[29] utilizationCountMissions 28
scalar OsgEarthNet.uav[29] utilizationCountManeuversMission 560
scalar OsgEarthNet.uav[29] utilizationCountManeuversMaintenance 56
scalar OsgEarthNet.uav[29] utilizationCountChargeState 28
scalar OsgEarthNet.uav[29] utilizationCountOverdrawnAfterMission 0
scalar OsgEarthNet.uav[29] utilizationCountIdleState 28
scalar OsgEarthNet.uav[29] utilizationFail 0
scalar OsgEarthNet.uav[29] simulationTime 259200
scalar OsgEarthNet.uav[30] utilizationSecMission 13452.867724151
scalar OsgEarthNet.uav[30] utilizationSecMaintenance 10656.889853608
scalar OsgEarthNet.uav[30] utilizationSecCharge 91633.030743263
scalar OsgEarthNet.uav[30] utilizationSecIdle 143457.21067898
scalar OsgEarthNet.uav[30] utilizationEnergyMission 66589.623035431
scalar OsgEarthNet.uav[30] utilizationEnergyMaintenance 50801.468528747
scalar OsgEarthNet.uav[30] utilizationEnergyCharge 118967.00341797
scalar OsgEarthNet.uav[30] utilizationEnergyOverdrawMission 0
scalar OsgEarthNet.uav[30] utilizationEnergyOverdrawMaintenance 0
scalar OsgEarthNet.uav[30] utilizationCountMissions 26
scalar OsgEarthNet.uav[30] utilizationCountManeuversMission 547
scalar OsgEarthNet.uav[30] utilizationCountManeuversMaintenance 52
scalar OsgEarthNet.uav[30] utilizationCountChargeState 26
scalar OsgEarthNet.uav[30] utilizationCountOverdrawnAfterMission 0
scalar OsgEarthNet.uav[30] utilizationCountIdleState 26
scalar OsgEarthNet.uav[30] utilizationFail 0
scalar OsgEarthNet.uav[30] simulationTime 259200
scalar OsgEarthNet.uav[31] utilizationSecMission 18930.800784996
scalar OsgEarthNet.uav[31] utilizationSecMaintenance 13281.111897964
scalar OsgEarthNet.uav[31] utilizationSecCharge 124660
scalar OsgEarthNet.uav[31] utilizationSecIdle 102328.08631704
scalar OsgEarthNet.uav[31] utilizationEnergyMission 91852.806396484
scalar OsgEarthNet.uav[31] utilizationEnergyMaintenance 62721.95003128
scalar OsgEarthNet.uav[31] utilizationEnergyCharge 155938.40527344
scalar OsgEarthNet.uav[31] utilizationEnergyOverdrawMission 0
scalar OsgEarthNet.uav[31] utilizationEnergyOverdrawMaintenance 0
scalar OsgEarthNet.uav[31] utilizationCountMissions 38
scalar OsgEarthNet.uav[31] utilizationCountManeuversMission 708
scalar OsgEarthNet.uav[31] utilizationCountManeuversMaintenance 76
scalar OsgEarthNet.uav[31] utilizationCountChargeState 38
scalar OsgEarthNet.uav[31] utilizationCountOverdrawnAfterMission 0
scalar OsgEarthNet.uav[31] utilizationCountIdleState 39
scalar OsgEarthNet.uav[31] utilizationFail 0
scalar OsgEarthNet.uav[31] simulationTime 259200
scalar OsgEarthNet.uav[32] utilizationSecMission 44070.766440898
scalar OsgEarthNet.uav[32] utilizationSecMaintenance 17977.231559102
scalar OsgEarthNet.uav[32] utilizationSecCharge 196490
scalar OsgEarthNet.uav[32] utilizationSecIdle 662.001
scalar OsgEarthNet.uav[32] utilizationEnergyMission 210007.3086586
scalar OsgEarthNet.uav[32] utilizationEnergyMaintenance 83767.253583121
scalar OsgEarthNet.uav[32] utilizationEnergyCharge 289575.7578125
scalar OsgEarthNet.uav[32] utilizationEnergyOverdrawMission 0
scalar OsgEarthNet.uav[32] utilizationEnergyOverdrawMaintenance 0
scalar OsgEarthNet.uav[32] utilizationCountMissions 64
scalar OsgEarthNet.uav[32] utilizationCountManeuversMission 1234
scalar OsgEarthNet.uav[32] utilizationCountManeuversMaintenance 128
scalar OsgEarthNet.uav[32] utilizationCountChargeState 63
scalar OsgEarthNet.uav[32] utilizationCountOverdrawnAfterMission 0
scalar OsgEarthNet.uav[32] utilizationCountIdleState 1
scalar OsgEarthNet.uav[32] utilizationFail 0
scalar OsgEarthNet.uav[32] simulationTime 259200
scalar OsgEarthNet.uav[33] utilizationSecMission 16115.368334472
scalar OsgEarthNet.uav[33] utilizationSecMaintenance 11156.937611242
scalar OsgEarthNet.uav[33] utilizationSecCharge 101900
scalar OsgEarthNet.uav[33] utilizationSecIdle 130027.69305429
scalar OsgEarthNet.uav[33] utilizationEnergyMission 78223.904220581
scalar OsgEarthNet.uav[33] utilizationEnergyMaintenance 53360.431056976
scalar OsgEarthNet.uav[33] utilizationEnergyCharge 131592.15869141
scalar OsgEarthNet.uav[33] utilizationEnergyOverdrawMission 0
scalar OsgEarthNet.uav[33] utilizationEnergyOverdrawMaintenance 0
scalar OsgEarthNet.uav[33] utilizationCountMissions 29
scalar OsgEarthNet.uav[33] utilizationCountManeuversMission 576
scalar OsgEarthNet.uav[33] utilizationCountManeuversMaintenance 58
scalar OsgEarthNet.uav[33] utilizationCountChargeState 29
scalar OsgEarthNet.uav[33] utilizationCountOverdrawnAfterMission 0
scalar OsgEarthNet.uav[33] utilizationCountIdleState 30
scalar OsgEarthNet.uav[33] utilizationFail 0
scalar OsgEarthNet.uav[33] simulationTime 259200
scalar OsgEarthNet.uav[34] utilizationSecMission 18423.707781108
scalar OsgEarthNet.uav[34] utilizationSecMaintenance 13303.71586973
scalar OsgEarthNet.uav[34] utilizationSecCharge 125850
scalar OsgEarthNet.uav[34] utilizationSecIdle 101622.57534916
scalar OsgEarthNet.uav[34] utilizationEnergyMission 90537.871833801
scalar OsgEarthNet.uav[34] utilizationEnergyMaintenance 63731.644187927
scalar OsgEarthNet.uav[34] utilizationEnergyCharge 154586.53833008
scalar OsgEarthNet.uav[34] utilizationEnergyOverdrawMission 0
scalar OsgEarthNet.uav[34] utilizationEnergyOverdrawMaintenance 0
scalar OsgEarthNet.uav[34] utilizationCountMissions 40
scalar OsgEarthNet.uav[34] utilizationCountManeuversMission 600
scalar OsgEarthNet.uav[34] utilizationCountManeuversMaintenance 80
scalar OsgEarthNet.uav[34] utilizationCountChargeState 40
scalar OsgEarthNet.uav[34] utilizationCountOverdrawnAfterMission 0
scalar OsgEarthNet.uav[34] utilizationCountIdleState 41
scalar OsgEarthNet.uav[34] utilizationFail 0
scalar OsgEarthNet.uav[34] simulationTime 259200
scalar OsgEarthNet.uav[35] utilizationSecMission 41677.799076482
scalar OsgEarthNet.uav[35] utilizationSecMaintenance 18749.40942099
scalar OsgEarthNet.uav[35] utilizationSecCharge 195622.08244516
scalar OsgEarthNet.uav[35] utilizationSecIdle 3150.7080573664
scalar OsgEarthNet.uav[35] utilizationEnergyMission 204300.31904984
scalar OsgEarthNet.uav[35] utilizationEnergyMaintenance 87222.218608856
scalar OsgEarthNet.uav[35] utilizationEnergyCharge 289659.37353516
scalar OsgEarthNet.uav[35] utilizationEnergyOverdrawMission 0
scalar OsgEarthNet.uav[35] utilizationEnergyOverdrawMaintenance 0
scalar OsgEarthNet.uav[35] utilizationCountMissions 64
scalar OsgEarthNet.uav[35] utilizationCountManeuversMission 1408
scalar OsgEarthNet.uav[35] utilizationCountManeuversMaintenance 128
scalar OsgEarthNet.uav[35] utilizationCountChargeState 64
scalar OsgEarthNet.uav[35] utilizationCountOverdrawnAfterMission 0
scalar OsgEarthNet.uav[35] utilizationCountIdleState 3
scalar OsgEarthNet.uav[35] utilizationFail 0
scalar OsgEarthNet.uav[35] simulationTime 259200
scalar OsgEarthNet.uav[36] utilizationSecMission 41544.540592182
scalar OsgEarthNet.uav[36] utilizationSecMaintenance 18551.658036068
scalar OsgEarthNet.uav[36] utilizationSecCharge 195152.85011609
scalar OsgEarthNet.uav[36] utilizationSecIdle 3950.9502556647
scalar OsgEarthNet.uav[36] utilizationEnergyMission 204730.51338577
scalar OsgEarthNet.uav[36] utilizationEnergyMaintenance 86029.494873047
scalar OsgEarthNet.uav[36] utilizationEnergyCharge 290980.65185547
scalar OsgEarthNet.uav[36] utilizationEnergyOverdrawMission 0
scalar OsgEarthNet.uav[36] utilizationEnergyOverdrawMaintenance 0
scalar OsgEarthNet.uav[36] utilizationCountMissions 64
scalar OsgEarthNet.uav[36] utilizationCountManeuversMission 1417
scalar OsgEarthNet.uav[36] utilizationCountManeuversMaintenance 128
scalar OsgEarthNet.uav[36] utilizationCountChargeState 64
scalar OsgEarthNet.uav[36] utilizationCountOverdrawnAfterMission 0
scalar OsgEarthNet.uav[36] utilizationCountIdleState 4
scalar OsgEarthNet.uav[36] utilizationFail 0
scalar OsgEarthNet.uav[36] simulationTime 259200
scalar OsgEarthNet.uav[37] utilizationSecMission 19320.057879233
scalar OsgEarthNet.uav[37] utilizationSecMaintenance 13483.010102795
scalar OsgEarthNet.uav[37] utilizationSecCharge 126494.92701797
scalar OsgEarthNet.uav[37] utilizationSecIdle 99902.004
scalar OsgEarthNet.uav[37] utilizationEnergyMission 93537.978000641
scalar OsgEarthNet.uav[37] utilizationEnergyMaintenance 64320.359874725
scalar OsgEarthNet.uav[37] utilizationEnergyCharge 156179.7878418
scalar OsgEarthNet.uav[37] utilizationEnergyOverdrawMission 0
scalar OsgEarthNet.uav[37] utilizationEnergyOverdrawMaintenance 0
scalar OsgEarthNet.uav[37] utilizationCountMissions 41
scalar OsgEarthNet.uav[37] utilizationCountManeuversMission 615
scalar OsgEarthNet.uav[37] utilizationCountManeuversMaintenance 82
scalar OsgEarthNet.uav[37] utilizationCountChargeState 41
scalar OsgEarthNet.uav[37] utilizationCountOverdrawnAfterMission 0
scalar OsgEarthNet.uav[37] utilizationCountIdleState 41
scalar OsgEarthNet.uav[37] utilizationFail 0
scalar OsgEarthNet.uav[37] simulationTime 259200
scalar OsgEarthNet.uav[38] utilizationSecMission 44386.446182615
scalar OsgEarthNet.uav[38] utilizationSecMaintenance 16879.784886093
scalar OsgEarthNet.uav[38] utilizationSecCharge 197701.76793129
scalar OsgEarthNet.uav[38] utilizationSecIdle 232
scalar OsgEarthNet.uav[38] utilizationEnergyMission 209989.47315598
scalar OsgEarthNet.uav[38] utilizationEnergyMaintenance 78076.757038116
scalar OsgEarthNet.uav[38] utilizationEnergyCharge 288912.36523438
scalar OsgEarthNet.uav[38] utilizationEnergyOverdrawMission 0
scalar OsgEarthNet.uav[38] utilizationEnergyOverdrawMaintenance 0
scalar OsgEarthNet.uav[38] utilizationCountMissions 63
scalar OsgEarthNet.uav[38] utilizationCountManeuversMission 1158
scalar OsgEarthNet.uav[38] utilizationCountManeuversMaintenance 126
scalar OsgEarthNet.uav[38] utilizationCountChargeState 63
scalar OsgEarthNet.uav[38] utilizationCountOverdrawnAfterMission 0
scalar OsgEarthNet.uav[38] utilizationCountIdleState 4
scalar OsgEarthNet.uav[38] utilizationFail 0
scalar OsgEarthNet.uav[38] simulationTime 259200
scalar OsgEarthNet.uav[39] utilizationSecMission 22741.619860275
scalar OsgEarthNet.uav[39] utilizationSecMaintenance 12640.772868751
scalar OsgEarthNet.uav[39] utilizationSecCharge 129825.60327097
scalar OsgEarthNet.uav[39] utilizationSecIdle 93992.003
scalar OsgEarthNet.uav[39] utilizationEnergyMission 108244.55694199
scalar OsgEarthNet.uav[39] utilizationEnergyMaintenance 60295.378517151
scalar OsgEarthNet.uav[39] utilizationEnergyCharge 168432.32910156
scalar OsgEarthNet.uav[39] utilizationEnergyOverdrawMission 0
scalar OsgEarthNet.uav[39] utilizationEnergyOverdrawMaintenance 0
scalar OsgEarthNet.uav[39] utilizationCountMissions 37
scalar OsgEarthNet.uav[39] utilizationCountManeuversMission 647
scalar OsgEarthNet.uav[39] utilizationCountManeuversMaintenance 74
scalar OsgEarthNet.uav[39] utilizationCountChargeState 37
scalar OsgEarthNet.uav[39] utilizationCountOverdrawnAfterMission 0
scalar OsgEarthNet.uav[39] utilizationCountIdleState 37
scalar OsgEarthNet.uav[39] utilizationFail 0
scalar OsgEarthNet.uav[39] simulationTime 259200
scalar OsgEarthNet.uav[40] utilizationSecMission 15087.501830963
scalar OsgEarthNet.uav[40] utilizationSecMaintenance 8581.4134744876
scalar OsgEarthNet.uav[40] utilizationSecCharge 88000
scalar OsgEarthNet.uav[40] utilizationSecIdle 147531.08369455
scalar OsgEarthNet.uav[40] utilizationEnergyMission 71235.45823288
scalar OsgEarthNet.uav[40] utilizationEnergyMaintenance 40938.758628845
scalar OsgEarthNet.uav[40] utilizationEnergyCharge 113523.54833984
scalar OsgEarthNet.uav[40] utilizationEnergyOverdrawMission 0
scalar OsgEarthNet.uav[40] utilizationEnergyOverdrawMaintenance 0
scalar OsgEarthNet.uav[40] utilizationCountMissions 25
scalar OsgEarthNet.uav[40] utilizationCountManeuversMission 442
scalar OsgEarthNet.uav[40] utilizationCountManeuversMaintenance 50
scalar OsgEarthNet.uav[40] utilizationCountChargeState 25
scalar OsgEarthNet.uav[40] utilizationCountOverdrawnAfterMission 0
scalar OsgEarthNet.uav[40] utilizationCountIdleState 26
scalar OsgEarthNet.uav[40] utilizationFail 0
scalar OsgEarthNet.uav[40] simulationTime 259200
scalar OsgEarthNet.uav[41] utilizationSecMission 21635.085507397
scalar OsgEarthNet.uav[41] utilizationSecMaintenance 13842.908492603
scalar OsgEarthNet.uav[41] utilizationSecCharge 132940
scalar OsgEarthNet.uav[41] utilizationSecIdle 90782.005
scalar OsgEarthNet.uav[41] utilizationEnergyMission 105507.92783356
scalar OsgEarthNet.uav[41] utilizationEnergyMaintenance 65488.833442265
scalar OsgEarthNet.uav[41] utilizationEnergyCharge 167051.1875
scalar OsgEarthNet.uav[41] utilizationEnergyOverdrawMission 0
scalar OsgEarthNet.uav[41] utilizationEnergyOverdrawMaintenance 0
scalar OsgEarthNet.uav[41] utilizationCountMissions 41
scalar OsgEarthNet.uav[41] utilizationCountManeuversMission 718
scalar OsgEarthNet.uav[41] utilizationCountManeuversMaintenance 82
scalar OsgEarthNet.uav[41] utilizationCountChargeState 40
scalar OsgEarthNet.uav[41] utilizationCountOverdrawnAfterMission 0
scalar OsgEarthNet.uav[41] utilizationCountIdleState 41
scalar OsgEarthNet.uav[41] utilizationFail 0
scalar OsgEarthNet.uav[41] simulationTime 259200
scalar OsgEarthNet.uav[42] utilizationSecMission 42138.918205828
scalar OsgEarthNet.uav[42] utilizationSecMaintenance 19629.078794172
scalar OsgEarthNet.uav[42] utilizationSecCharge 196410
scalar OsgEarthNet.uav[42] utilizationSecIdle 1022.002
scalar OsgEarthNet.uav[42] utilizationEnergyMission 204256.67256862
scalar OsgEarthNet.uav[42] utilizationEnergyMaintenance 90161.355293274
scalar OsgEarthNet.uav[42] utilizationEnergyCharge 291483.7578125
scalar OsgEarthNet.uav[42] utilizationEnergyOverdrawMission 0
scalar OsgEarthNet.uav[42] utilizationEnergyOverdrawMaintenance 0
scalar OsgEarthNet.uav[42] utilizationCountMissions 64
scalar OsgEarthNet.uav[42] utilizationCountManeuversMission 1293
scalar OsgEarthNet.uav[42] utilizationCountManeuversMaintenance 129
scalar OsgEarthNet.uav[42] utilizationCountChargeState 64
scalar OsgEarthNet.uav[42] utilizationCountOverdrawnAfterMission 0
scalar OsgEarthNet.uav[42] utilizationCountIdleState 1
scalar OsgEarthNet.uav[42] utilizationFail 0
scalar OsgEarthNet.uav[42] simulationTime 259200
scalar OsgEarthNet.uav[43] utilizationSecMission 20959.635327455
scalar OsgEarthNet.uav[43] utilizationSecMaintenance 12424.605516482
scalar OsgEarthNet.uav[43] utilizationSecCharge 123040
scalar OsgEarthNet.uav[43] utilizationSecIdle 102775.75815606
scalar OsgEarthNet.uav[43] utilizationEnergyMission 100197.22101212
scalar OsgEarthNet.uav[43] utilizationEnergyMaintenance 58901.077610016
scalar OsgEarthNet.uav[43] utilizationEnergyCharge 158833.52832031
scalar OsgEarthNet.uav[43] utilizationEnergyOverdrawMission 0
scalar OsgEarthNet.uav[43] utilizationEnergyOverdrawMaintenance 0
scalar OsgEarthNet.uav[43] utilizationCountMissions 35
scalar OsgEarthNet.uav[43] utilizationCountManeuversMission 653
scalar OsgEarthNet.uav[43] utilizationCountManeuversMaintenance 70
scalar OsgEarthNet.uav[43] utilizationCountChargeState 35
scalar OsgEarthNet.uav[43] utilizationCountOverdrawnAfterMission 0
scalar OsgEarthNet.uav[43] utilizationCountIdleState 36
scalar OsgEarthNet.uav[43] utilizationFail 0
scalar OsgEarthNet.uav[43] simulationTime 259200
scalar OsgEarthNet.uav[44] utilizationSecMission 20979.149008998
scalar OsgEarthNet.uav[44] utilizationSecMaintenance 14263.062835396
scalar OsgEarthNet.uav[44] utilizationSecCharge 137055.78415561
scalar OsgEarthNet.uav[44] utilizationSecIdle 86902.003
scalar OsgEarthNet.uav[44] utilizationEnergyMission 102415.28078842
scalar OsgEarthNet.uav[44] utilizationEnergyMaintenance 67567.669803619
scalar OsgEarthNet.uav[44] utilizationEnergyCharge 170340.42236328
scalar OsgEarthNet.uav[44] utilizationEnergyOverdrawMission 0
scalar OsgEarthNet.uav[44] utilizationEnergyOverdrawMaintenance 0
scalar OsgEarthNet.uav[44] utilizationCountMissions 43
scalar OsgEarthNet.uav[44] utilizationCountManeuversMission 669
scalar OsgEarthNet.uav[44] utilizationCountManeuversMaintenance 86
scalar OsgEarthNet.uav[44] utilizationCountChargeState 43
scalar OsgEarthNet.uav[44] utilizationCountOverdrawnAfterMission 0
scalar OsgEarthNet.uav[44] utilizationCountIdleState 43
scalar OsgEarthNet.uav[44] utilizationFail 0
scalar OsgEarthNet.uav[44] simulationTime 259200
scalar OsgEarthNet.uav[45] utilizationSecMission 42681.214488775
scalar OsgEarthNet.uav[45] utilizationSecMaintenance 18315.979415367
scalar OsgEarthNet.uav[45] utilizationSecCharge 196060.80109586
scalar OsgEarthNet.uav[45] utilizationSecIdle 2142.004
scalar OsgEarthNet.uav[45] utilizationEnergyMission 209263.81114578
scalar OsgEarthNet.uav[45] utilizationEnergyMaintenance 85180.700714111
scalar OsgEarthNet.uav[45] utilizationEnergyCharge 288889.19659424
scalar OsgEarthNet.uav[45] utilizationEnergyOverdrawMission 0
scalar OsgEarthNet.uav[45] utilizationEnergyOverdrawMaintenance 0
scalar OsgEarthNet.uav[45] utilizationCountMissions 64
scalar OsgEarthNet.uav[45] utilizationCountManeuversMission 1276
scalar OsgEarthNet.uav[45] utilizationCountManeuversMaintenance 128
scalar OsgEarthNet.uav[45] utilizationCountChargeState 64
scalar OsgEarthNet.uav[45] utilizationCountOverdrawnAfterMission 0
scalar OsgEarthNet.uav[45] utilizationCountIdleState 4
scalar OsgEarthNet.uav[45] utilizationFail 0
scalar OsgEarthNet.uav[45] simulationTime 259200
scalar OsgEarthNet.uav[46] utilizationSecMission 43100.90587965
scalar OsgEarthNet.uav[46] utilizationSecMaintenance 17895.04481465
scalar OsgEarthNet.uav[46] utilizationSecCharge 194823.09905003
scalar OsgEarthNet.uav[46] utilizationSecIdle 3380.9492556647
scalar OsgEarthNet.uav[46] utilizationEnergyMission 207296.23913193
scalar OsgEarthNet.uav[46] utilizationEnergyMaintenance 83042.017456055
scalar OsgEarthNet.uav[46] utilizationEnergyCharge 287787.99047852
scalar OsgEarthNet.uav[46] utilizationEnergyOverdrawMission 0
scalar OsgEarthNet.uav[46] utilizationEnergyOverdrawMaintenance 0
scalar OsgEarthNet.uav[46] utilizationCountMissions 63
scalar OsgEarthNet.uav[46] utilizationCountManeuversMission 1215
scalar OsgEarthNet.uav[46] utilizationCountManeuversMaintenance 126
scalar OsgEarthNet.uav[46] utilizationCountChargeState 63
scalar OsgEarthNet.uav[46] utilizationCountOverdrawnAfterMission 0
scalar OsgEarthNet.uav[46] utilizationCountIdleState 3
scalar OsgEarthNet.uav[46] utilizationFail 0
scalar OsgEarthNet.uav[46] simulationTime 259200
scalar OsgEarthNet.uav[47] utilizationSecMission 25248.492789096
scalar OsgEarthNet.uav[47] utilizationSecMaintenance 16014.381828701
scalar OsgEarthNet.uav[47] utilizationSecCharge 157946.16039653
scalar OsgEarthNet.uav[47] utilizationSecIdle 59990.963985674
scalar OsgEarthNet.uav[47] utilizationEnergyMission 120871.30200195
scalar OsgEarthNet.uav[47] utilizationEnergyMaintenance 76359.277061462
scalar OsgEarthNet.uav[47] utilizationEnergyCharge 197700.29858398
scalar OsgEarthNet.uav[47] utilizationEnergyOverdrawMission 0
scalar OsgEarthNet.uav[47] utilizationEnergyOverdrawMaintenance 0
scalar OsgEarthNet.uav[47] utilizationCountMissions 49
scalar OsgEarthNet.uav[47] utilizationCountManeuversMission 743
scalar OsgEarthNet.uav[47] utilizationCountManeuversMaintenance 98
scalar OsgEarthNet.uav[47] utilizationCountChargeState 49
scalar OsgEarthNet.uav[47] utilizationCountOverdrawnAfterMission 0
scalar OsgEarthNet.uav[47] utilizationCountIdleState 49
scalar OsgEarthNet.uav[47] utilizationFail 0
scalar OsgEarthNet.uav[47] simulationTime 259200
scalar OsgEarthNet.uav[48] utilizationSecMission 43139.187676108
scalar OsgEarthNet.uav[48] utilizationSecMaintenance 18059.942159156
scalar OsgEarthNet.uav[48] utilizationSecCharge 195288.86516474
scalar OsgEarthNet.uav[48] utilizationSecIdle 2712.004
scalar OsgEarthNet.uav[48] utilizationEnergyMission 204302.50802994
scalar OsgEarthNet.uav[48] utilizationEnergyMaintenance 82803.117553711
scalar OsgEarthNet.uav[48] utilizationEnergyCharge 288580.7734375
scalar OsgEarthNet.uav[48] utilizationEnergyOverdrawMission 0
scalar OsgEarthNet.uav[48] utilizationEnergyOverdrawMaintenance 0
scalar OsgEarthNet.uav[48] utilizationCountMissions 63
scalar OsgEarthNet.uav[48] utilizationCountManeuversMission 1185
scalar OsgEarthNet.uav[48] utilizationCountManeuversMaintenance 126
scalar OsgEarthNet.uav[48] utilizationCountChargeState 63
scalar OsgEarthNet.uav[48] utilizationCountOverdrawnAfterMission 0
scalar OsgEarthNet.uav[48] utilizationCountIdleState 2
scalar OsgEarthNet.uav[48] utilizationFail 0
scalar OsgEarthNet.uav[48] simulationTime 259200
scalar OsgEarthNet.uav[49] utilizationSecMission 42495.308466523
scalar OsgEarthNet.uav[49] utilizationSecMaintenance 19052.690533477
scalar OsgEarthNet.uav[49] utilizationSecCharge 197150
scalar OsgEarthNet.uav[49] utilizationSecIdle 502
scalar OsgEarthNet.uav[49] utilizationEnergyMission 203848.54980319
scalar OsgEarthNet.uav[49] utilizationEnergyMaintenance 88624.941101074
scalar OsgEarthNet.uav[49] utilizationEnergyCharge 290318.25292969
scalar OsgEarthNet.uav[49] utilizationEnergyOverdrawMission 0
scalar OsgEarthNet.uav[49] utilizationEnergyOverdrawMaintenance 0
scalar OsgEarthNet.uav[49] utilizationCountMissions 64
scalar OsgEarthNet.uav[49] utilizationCountManeuversMission 1286
scalar OsgEarthNet.uav[49] utilizationCountManeuversMaintenance 128
scalar OsgEarthNet.uav[49] utilizationCountChargeState 64
scalar OsgEarthNet.uav[49] utilizationCountOverdrawnAfterMission 0
scalar OsgEarthNet.uav[49] utilizationCountIdleState 5
scalar OsgEarthNet.uav[49] utilizationFail 0
scalar OsgEarthNet.uav[49] simulationTime 259200
scalar OsgEarthNet.uav[50] utilizationSecMission 20988.752136124
scalar OsgEarthNet.uav[50] utilizationSecMaintenance 13209.238863876
scalar OsgEarthNet.uav[50] utilizationSecCharge 122540
scalar OsgEarthNet.uav[50] utilizationSecIdle 102462.008
scalar OsgEarthNet.uav[50] utilizationEnergyMission 101197.80851746
scalar OsgEarthNet.uav[50] utilizationEnergyMaintenance 62761.300912827
scalar OsgEarthNet.uav[50] utilizationEnergyCharge 157943.70947266
scalar OsgEarthNet.uav[50] utilizationEnergyOverdrawMission 0
scalar OsgEarthNet.uav[50] utilizationEnergyOverdrawMaintenance 0
scalar OsgEarthNet.uav[50] utilizationCountMissions 36
scalar OsgEarthNet.uav[50] utilizationCountManeuversMission 685
scalar OsgEarthNet.uav[50] utilizationCountManeuversMaintenance 72
scalar OsgEarthNet.uav[50] utilizationCountChargeState 35
scalar OsgEarthNet.uav[50] utilizationCountOverdrawnAfterMission 0
scalar OsgEarthNet.uav[50] utilizationCountIdleState 36
scalar OsgEarthNet.uav[50] utilizationFail 0
scalar OsgEarthNet.uav[50] simulationTime 259200
scalar OsgEarthNet.uav[51] utilizationSecMission 21178.52860941
scalar OsgEarthNet.uav[51] utilizationSecMaintenance 13301.63176734
scalar OsgEarthNet.uav[51] utilizationSecCharge 130960
scalar OsgEarthNet.uav[51] utilizationSecIdle 93759.83862325
scalar OsgEarthNet.uav[51] utilizationEnergyMission 103951.10618973
scalar OsgEarthNet.uav[51] utilizationEnergyMaintenance 62926.383979797
scalar OsgEarthNet.uav[51] utilizationEnergyCharge 167276.38671875
scalar OsgEarthNet.uav[51] utilizationEnergyOverdrawMission 0
scalar OsgEarthNet.uav[51] utilizationEnergyOverdrawMaintenance 0
scalar OsgEarthNet.uav[51] utilizationCountMissions 38
scalar OsgEarthNet.uav[51] utilizationCountManeuversMission 748
scalar OsgEarthNet.uav[51] utilizationCountManeuversMaintenance 76
scalar OsgEarthNet.uav[51] utilizationCountChargeState 38
scalar OsgEarthNet.uav[51] utilizationCountOverdrawnAfterMission 0
scalar OsgEarthNet.uav[51] utilizationCountIdleState 39
scalar OsgEarthNet.uav[51] utilizationFail 0
scalar OsgEarthNet.uav[51] simulationTime 259200
scalar OsgEarthNet.uav[52] utilizationSecMission 44021.500141877
scalar OsgEarthNet.uav[52] utilizationSecMaintenance 17253.706887177
scalar OsgEarthNet.uav[52] utilizationSecCharge 197402.79097095
scalar OsgEarthNet.uav[52] utilizationSecIdle 522.001
scalar OsgEarthNet.uav[52] utilizationEnergyMission 213004.00039291
scalar OsgEarthNet.uav[52] utilizationEnergyMaintenance 78979.789543152
scalar OsgEarthNet.uav[52] utilizationEnergyCharge 288234.29052734
scalar OsgEarthNet.uav[52] utilizationEnergyOverdrawMission 0
scalar OsgEarthNet.uav[52] utilizationEnergyOverdrawMaintenance 0
scalar OsgEarthNet.uav[52] utilizationCountMissions 63
scalar OsgEarthNet.uav[52] utilizationCountManeuversMission 1255
scalar OsgEarthNet.uav[52] utilizationCountManeuversMaintenance 126
scalar OsgEarthNet.uav[52] utilizationCountChargeState 63
scalar OsgEarthNet.uav[52] utilizationCountOverdrawnAfterMission 0
scalar OsgEarthNet.uav[52] utilizationCountIdleState 1
scalar OsgEarthNet.uav[52] utilizationFail 0
scalar OsgEarthNet.uav[52] simulationTime 259200
scalar OsgEarthNet.uav[53] utilizationSecMission 20626.985753462
scalar OsgEarthNet.uav[53] utilizationSecMaintenance 13919.379553688
scalar OsgEarthNet.uav[53] utilizationSecCharge 129450
scalar OsgEarthNet.uav[53] utilizationSecIdle 95203.63369285
scalar OsgEarthNet.uav[53] utilizationEnergyMission 102452.26603317
scalar OsgEarthNet.uav[53] utilizationEnergyMaintenance 65750.374019623
scalar OsgEarthNet.uav[53] utilizationEnergyCharge 166633.47753906
scalar OsgEarthNet.uav[53] utilizationEnergyOverdrawMission 0
scalar OsgEarthNet.uav[53] utilizationEnergyOverdrawMaintenance 0
scalar OsgEarthNet.uav[53] utilizationCountMissions 37
scalar OsgEarthNet.uav[53] utilizationCountManeuversMission 728
scalar OsgEarthNet.uav[53] utilizationCountManeuversMaintenance 74
scalar OsgEarthNet.uav[53] utilizationCountChargeState 37
scalar OsgEarthNet.uav[53] utilizationCountOverdrawnAfterMission 0
scalar OsgEarthNet.uav[53] utilizationCountIdleState 38
scalar OsgEarthNet.uav[53] utilizationFail 0
scalar OsgEarthNet.uav[53] simulationTime 259200
scalar OsgEarthNet.uav[54] utilizationSecMission 22617.812118101
scalar OsgEarthNet.uav[54] utilizationSecMaintenance 16671.541422312
scalar OsgEarthNet.uav[54] utilizationSecCharge 152716.03357007
scalar OsgEarthNet.uav[54] utilizationSecIdle 67194.611889516
scalar OsgEarthNet.uav[54] utilizationEnergyMission 112852.8325386
scalar OsgEarthNet.uav[54] utilizationEnergyMaintenance 79884.083660126
scalar OsgEarthNet.uav[54] utilizationEnergyCharge 190202.33862305
scalar OsgEarthNet.uav[54] utilizationEnergyOverdrawMission 0
scalar OsgEarthNet.uav[54] utilizationEnergyOverdrawMaintenance 0
scalar OsgEarthNet.uav[54] utilizationCountMissions 48
scalar OsgEarthNet.uav[54] utilizationCountManeuversMission 854
scalar OsgEarthNet.uav[54] utilizationCountManeuversMaintenance 96
scalar OsgEarthNet.uav[54] utilizationCountChargeState 48
scalar OsgEarthNet.uav[54] utilizationCountOverdrawnAfterMission 0
scalar OsgEarthNet.uav[54] utilizationCountIdleState 48
scalar OsgEarthNet.uav[54] utilizationFail 0
scalar OsgEarthNet.uav[54] simulationTime 259200
scalar OsgEarthNet.uav[55] utilizationSecMission 43551.552652785
scalar OsgEarthNet.uav[55] utilizationSecMaintenance 17290.417652171
scalar OsgEarthNet.uav[55] utilizationSecCharge 195566.02369504
scalar OsgEarthNet.uav[55] utilizationSecIdle 2792.005
scalar OsgEarthNet.uav[55] utilizationEnergyMission 207873.99615097
scalar OsgEarthNet.uav[55] utilizationEnergyMaintenance 80606.538894653
scalar OsgEarthNet.uav[55] utilizationEnergyCharge 284522.24859619
scalar OsgEarthNet.uav[55] utilizationEnergyOverdrawMission 0
scalar OsgEarthNet.uav[55] utilizationEnergyOverdrawMaintenance 0
scalar OsgEarthNet.uav[55] utilizationCountMissions 63
scalar OsgEarthNet.uav[55] utilizationCountManeuversMission 1180
scalar OsgEarthNet.uav[55] utilizationCountManeuversMaintenance 126
scalar OsgEarthNet.uav[55] utilizationCountChargeState 63
scalar OsgEarthNet.uav[55] utilizationCountOverdrawnAfterMission 0
scalar OsgEarthNet.uav[55] utilizationCountIdleState 4
scalar OsgEarthNet.uav[55] utilizationFail 0
scalar OsgEarthNet.uav[55] simulationTime 259200
scalar OsgEarthNet.uav[56] utilizationSecMission 22059.010174875
scalar OsgEarthNet.uav[56] utilizationSecMaintenance 14118.544856256
scalar OsgEarthNet.uav[56] utilizationSecCharge 131199.67800353
scalar OsgEarthNet.uav[56] utilizationSecIdle 91822.765965339
scalar OsgEarthNet.uav[56] utilizationEnergyMission 105023.1151886
scalar OsgEarthNet.uav[56] utilizationEnergyMaintenance 67708.67079544
scalar OsgEarthNet.uav[56] utilizationEnergyCharge 169996.74975586
scalar OsgEarthNet.uav[56] utilizationEnergyOverdrawMission 0
scalar OsgEarthNet.uav[56] utilizationEnergyOverdrawMaintenance 0
scalar OsgEarthNet.uav[56] utilizationCountMissions 38
scalar OsgEarthNet.uav[56] utilizationCountManeuversMission 734
scalar OsgEarthNet.uav[56] utilizationCountManeuversMaintenance 76
scalar OsgEarthNet.uav[56] utilizationCountChargeState 38
scalar OsgEarthNet.uav[56] utilizationCountOverdrawnAfterMission 0
scalar OsgEarthNet.uav[56] utilizationCountIdleState 38
scalar OsgEarthNet.uav[56] utilizationFail 0
scalar OsgEarthNet.uav[56] simulationTime 259200
scalar OsgEarthNet.uav[57] utilizationSecMission 22246.242012886
scalar OsgEarthNet.uav[57] utilizationSecMaintenance 15041.044200316
scalar OsgEarthNet.uav[57] utilizationSecCharge 143700.7057868
scalar OsgEarthNet.uav[57] utilizationSecIdle 78212.007
scalar OsgEarthNet.uav[57] utilizationEnergyMission 109304.66576767
scalar OsgEarthNet.uav[57] utilizationEnergyMaintenance 71556.353610992
scalar OsgEarthNet.uav[57] utilizationEnergyCharge 182460.20581055
scalar OsgEarthNet.uav[57] utilizationEnergyOverdrawMission 0
scalar OsgEarthNet.uav[57] utilizationEnergyOverdrawMaintenance 0
scalar OsgEarthNet.uav[57] utilizationCountMissions 43
scalar OsgEarthNet.uav[57] utilizationCountManeuversMission 815
scalar OsgEarthNet.uav[57] utilizationCountManeuversMaintenance 86
scalar OsgEarthNet.uav[57] utilizationCountChargeState 43
scalar OsgEarthNet.uav[57] utilizationCountOverdrawnAfterMission 0
scalar OsgEarthNet.uav[57] utilizationCountIdleState 43
scalar OsgEarthNet.uav[57] utilizationFail 0
scalar OsgEarthNet.uav[57] simulationTime 259200
scalar OsgEarthNet.uav[58] utilizationSecMission 44623.476889394
scalar OsgEarthNet.uav[58] utilizationSecMaintenance 16987.664457949
scalar OsgEarthNet.uav[58] utilizationSecCharge 197556.85765266
scalar OsgEarthNet.uav[58] utilizationSecIdle 32
scalar OsgEarthNet.uav[58] utilizationEnergyMission 211208.14297104
scalar OsgEarthNet.uav[58] utilizationEnergyMaintenance 78163.794036865
scalar OsgEarthNet.uav[58] utilizationEnergyCharge 287964.61108398
scalar OsgEarthNet.uav[58] utilizationEnergyOverdrawMission 0
scalar OsgEarthNet.uav[58] utilizationEnergyOverdrawMaintenance 0
scalar OsgEarthNet.uav[58] utilizationCountMissions 63
scalar OsgEarthNet.uav[58] utilizationCountManeuversMission 1164
scalar OsgEarthNet.uav[58] utilizationCountManeuversMaintenance 126
scalar OsgEarthNet.uav[58] utilizationCountChargeState 63
scalar OsgEarthNet.uav[58] utilizationCountOverdrawnAfterMission 0
scalar OsgEarthNet.uav[58] utilizationCountIdleState 3
scalar OsgEarthNet.uav[58] utilizationFail 0
scalar OsgEarthNet.uav[58] simulationTime 259200
scalar OsgEarthNet.uav[59] utilizationSecMission 19846.876678383
scalar OsgEarthNet.uav[59] utilizationSecMaintenance 13747.376666005
scalar OsgEarthNet.uav[59] utilizationSecCharge 123908.53197663
scalar OsgEarthNet.uav[59] utilizationSecIdle 101697.21367898
scalar OsgEarthNet.uav[59] utilizationEnergyMission 98099.651592255
scalar OsgEarthNet.uav[59] utilizationEnergyMaintenance 65831.006362915
scalar OsgEarthNet.uav[59] utilizationEnergyCharge 160482.18017578
scalar OsgEarthNet.uav[59] utilizationEnergyOverdrawMission 0
scalar OsgEarthNet.uav[59] utilizationEnergyOverdrawMaintenance 0
scalar OsgEarthNet.uav[59] utilizationCountMissions 36
scalar OsgEarthNet.uav[59] utilizationCountManeuversMission 706
scalar OsgEarthNet.uav[59] utilizationCountManeuversMaintenance 72
scalar OsgEarthNet.uav[59] utilizationCountChargeState 36
scalar OsgEarthNet.uav[59] utilizationCountOverdrawnAfterMission 0
scalar OsgEarthNet.uav[59] utilizationCountIdleState 36
scalar OsgEarthNet.uav[59] utilizationFail 0
scalar OsgEarthNet.uav[59] simulationTime 259200
scalar OsgEarthNet.uav[60] utilizationSecMission 21808.126983544
scalar OsgEarthNet.uav[60] utilizationSecMaintenance 14853.282779034
scalar OsgEarthNet.uav[60] utilizationSecCharge 134976.58423742
scalar OsgEarthNet.uav[60] utilizationSecIdle 87562.005
scalar OsgEarthNet.uav[60] utilizationEnergyMission 105613.87670898
scalar OsgEarthNet.uav[60] utilizationEnergyMaintenance 70671.492401123
scalar OsgEarthNet.uav[60] utilizationEnergyCharge 174841.55175781
scalar OsgEarthNet.uav[60] utilizationEnergyOverdrawMission 0
scalar OsgEarthNet.uav[60] utilizationEnergyOverdrawMaintenance 0
scalar OsgEarthNet.uav[60] utilizationCountMissions 39
scalar OsgEarthNet.uav[60] utilizationCountManeuversMission 752
scalar OsgEarthNet.uav[60] utilizationCountManeuversMaintenance 78
scalar OsgEarthNet.uav[60] utilizationCountChargeState 39
scalar OsgEarthNet.uav[60] utilizationCountOverdrawnAfterMission 0
scalar OsgEarthNet.uav[60] utilizationCountIdleState 39
scalar OsgEarthNet.uav[60] utilizationFail 0
scalar OsgEarthNet.uav[60] simulationTime 259200
scalar OsgEarthNet.uav[61] utilizationSecMission 23526.639551588
scalar OsgEarthNet.uav[61] utilizationSecMaintenance 16660.005824437
scalar OsgEarthNet.uav[61] utilizationSecCharge 156851.35362397
scalar OsgEarthNet.uav[61] utilizationSecIdle 62162
scalar OsgEarthNet.uav[61] utilizationEnergyMission 114930.97083282
scalar OsgEarthNet.uav[61] utilizationEnergyMaintenance 79090.376750946
scalar OsgEarthNet.uav[61] utilizationEnergyCharge 194578.05981445
scalar OsgEarthNet.uav[61] utilizationEnergyOverdrawMission 0
scalar OsgEarthNet.uav[61] utilizationEnergyOverdrawMaintenance 0
scalar OsgEarthNet.uav[61] utilizationCountMissions 49
scalar OsgEarthNet.uav[61] utilizationCountManeuversMission 830
scalar OsgEarthNet.uav[61] utilizationCountManeuversMaintenance 97
scalar OsgEarthNet.uav[61] utilizationCountChargeState 49
scalar OsgEarthNet.uav[61] utilizationCountOverdrawnAfterMission 0
scalar OsgEarthNet.uav[61] utilizationCountIdleState 49
scalar OsgEarthNet.uav[61] utilizationFail 0
scalar OsgEarthNet.uav[61] simulationTime 259200
scalar OsgEarthNet.uav[62] utilizationSecMission 43516.420318736
scalar OsgEarthNet.uav[62] utilizationSecMaintenance 18375.303395914
scalar OsgEarthNet.uav[62] utilizationSecCharge 196409.10017494
scalar OsgEarthNet.uav[62] utilizationSecIdle 899.17511041073
scalar OsgEarthNet.uav[62] utilizationEnergyMission 209016.10110855
scalar OsgEarthNet.uav[62] utilizationEnergyMaintenance 84295.738449097
scalar OsgEarthNet.uav[62] utilizationEnergyCharge 289067.60229492
scalar OsgEarthNet.uav[62] utilizationEnergyOverdrawMission 0
scalar OsgEarthNet.uav[62] utilizationEnergyOverdrawMaintenance 0
scalar OsgEarthNet.uav[62] utilizationCountMissions 64
scalar OsgEarthNet.uav[62] utilizationCountManeuversMission 1237
scalar OsgEarthNet.uav[62] utilizationCountManeuversMaintenance 128
scalar OsgEarthNet.uav[62] utilizationCountChargeState 64
scalar OsgEarthNet.uav[62] utilizationCountOverdrawnAfterMission 0
scalar OsgEarthNet.uav[62] utilizationCountIdleState 2
scalar OsgEarthNet.uav[62] utilizationFail 0
scalar OsgEarthNet.uav[62] simulationTime 259200
scalar OsgEarthNet.uav[63] utilizationSecMission 21208.017908464
scalar OsgEarthNet.uav[63] utilizationSecMaintenance 14409.177925444
scalar OsgEarthNet.uav[63] utilizationSecCharge 132025.59448711
scalar OsgEarthNet.uav[63] utilizationSecIdle 91557.208678978
scalar OsgEarthNet.uav[63] utilizationEnergyMission 104504.77229309
scalar OsgEarthNet.uav[63] utilizationEnergyMaintenance 68242.176460266
scalar OsgEarthNet.uav[63] utilizationEnergyCharge 171048.15234375
scalar OsgEarthNet.uav[63] utilizationEnergyOverdrawMission 0
scalar OsgEarthNet.uav[63] utilizationEnergyOverdrawMaintenance 0
scalar OsgEarthNet.uav[63] utilizationCountMissions 38
scalar OsgEarthNet.uav[63] utilizationCountManeuversMission 739
scalar OsgEarthNet.uav[63] utilizationCountManeuversMaintenance 76
scalar OsgEarthNet.uav[63] utilizationCountChargeState 38
scalar OsgEarthNet.uav[63] utilizationCountOverdrawnAfterMission 0
scalar OsgEarthNet.uav[63] utilizationCountIdleState 38
scalar OsgEarthNet.uav[63] utilizationFail 0
scalar OsgEarthNet.uav[63] simulationTime 259200
scalar OsgEarthNet.uav[64] utilizationSecMission 21365.251471868
scalar OsgEarthNet.uav[64] utilizationSecMaintenance 14511.544607839
scalar OsgEarthNet.uav[64] utilizationSecCharge 138915.79302894
scalar OsgEarthNet.uav[64] utilizationSecIdle 84407.40989135
scalar OsgEarthNet.uav[64] utilizationEnergyMission 103464.5095787
scalar OsgEarthNet.uav[64] utilizationEnergyMaintenance 68892.348548889
scalar OsgEarthNet.uav[64] utilizationEnergyCharge 170992.34716797
scalar OsgEarthNet.uav[64] utilizationEnergyOverdrawMission 0
scalar OsgEarthNet.uav[64] utilizationEnergyOverdrawMaintenance 0
scalar OsgEarthNet.uav[64] utilizationCountMissions 45
scalar OsgEarthNet.uav[64] utilizationCountManeuversMission 621
scalar OsgEarthNet.uav[64] utilizationCountManeuversMaintenance 90
scalar OsgEarthNet.uav[64] utilizationCountChargeState 45
scalar OsgEarthNet.uav[64] utilizationCountOverdrawnAfterMission 0
scalar OsgEarthNet.uav[64] utilizationCountIdleState 45
scalar OsgEarthNet.uav[64] utilizationFail 0
scalar OsgEarthNet.uav[64] simulationTime 259200
scalar OsgEarthNet.uav[65] utilizationSecMission 42505.73074888
scalar OsgEarthNet.uav[65] utilizationSecMaintenance 18393.099860171
scalar OsgEarthNet.uav[65] utilizationSecCharge 197511.94877703
scalar OsgEarthNet.uav[65] utilizationSecIdle 789.21961391566
[...]
scalar OsgEarthNet.uav[69] utilizationEnergyOverdrawMaintenance 0
scalar OsgEarthNet.uav[69] utilizationCountMissions 43
scalar OsgEarthNet.uav[69] utilizationCountManeuversMission 713
scalar OsgEarthNet.uav[69] utilizationCountManeuversMaintenance 86
scalar OsgEarthNet.uav[69] utilizationCountChargeState 43
scalar OsgEarthNet.uav[69] utilizationCountOverdrawnAfterMission 0
scalar OsgEarthNet.uav[69] utilizationCountIdleState 44
scalar OsgEarthNet.uav[69] utilizationFail 0
scalar OsgEarthNet.uav[69] simulationTime 259200
scalar OsgEarthNet.uav[70] utilizationSecMission 26044.011395517
scalar OsgEarthNet.uav[70] utilizationSecMaintenance 13864.276309406
scalar OsgEarthNet.uav[70] utilizationSecCharge 148610
scalar OsgEarthNet.uav[70] utilizationSecIdle 70681.711295077
scalar OsgEarthNet.uav[70] utilizationEnergyMission 124254.82418442
scalar OsgEarthNet.uav[70] utilizationEnergyMaintenance 65864.883934021
scalar OsgEarthNet.uav[70] utilizationEnergyCharge 192203.61181641
scalar OsgEarthNet.uav[70] utilizationEnergyOverdrawMission 0
scalar OsgEarthNet.uav[70] utilizationEnergyOverdrawMaintenance 0
scalar OsgEarthNet.uav[70] utilizationCountMissions 42
scalar OsgEarthNet.uav[70] utilizationCountManeuversMission 725
scalar OsgEarthNet.uav[70] utilizationCountManeuversMaintenance 84
scalar OsgEarthNet.uav[70] utilizationCountChargeState 42
scalar OsgEarthNet.uav[70] utilizationCountOverdrawnAfterMission 0
scalar OsgEarthNet.uav[70] utilizationCountIdleState 43
scalar OsgEarthNet.uav[70] utilizationFail 0
scalar OsgEarthNet.uav[70] simulationTime 259200
scalar OsgEarthNet.uav[71] utilizationSecMission 21473.666945716
scalar OsgEarthNet.uav[71] utilizationSecMaintenance 15786.403505391
scalar OsgEarthNet.uav[71] utilizationSecCharge 145998.8707537
scalar OsgEarthNet.uav[71] utilizationSecIdle 75941.057795193
scalar OsgEarthNet.uav[71] utilizationEnergyMission 104496.39153671
scalar OsgEarthNet.uav[71] utilizationEnergyMaintenance 74553.7853508
scalar OsgEarthNet.uav[71] utilizationEnergyCharge 178261.66381836
scalar OsgEarthNet.uav[71] utilizationEnergyOverdrawMission 0
scalar OsgEarthNet.uav[71] utilizationEnergyOverdrawMaintenance 0
scalar OsgEarthNet.uav[71] utilizationCountMissions 48
scalar OsgEarthNet.uav[71] utilizationCountManeuversMission 692
scalar OsgEarthNet.uav[71] utilizationCountManeuversMaintenance 96
scalar OsgEarthNet.uav[71] utilizationCountChargeState 48
scalar OsgEarthNet.uav[71] utilizationCountOverdrawnAfterMission 0
scalar OsgEarthNet.uav[71] utilizationCountIdleState 48
scalar OsgEarthNet.uav[71] utilizationFail 0
scalar OsgEarthNet.uav[71] simulationTime 259200
scalar OsgEarthNet.uav[72] utilizationSecMission 43460.637933099
scalar OsgEarthNet.uav[72] utilizationSecMaintenance 18405.380512912
scalar OsgEarthNet.uav[72] utilizationSecCharge 197311.98055399
scalar OsgEarthNet.uav[72] utilizationSecIdle 22
scalar OsgEarthNet.uav[72] utilizationEnergyMission 210574.30021715
scalar OsgEarthNet.uav[72] utilizationEnergyMaintenance 84961.756786346
scalar OsgEarthNet.uav[72] utilizationEnergyCharge 291766.25830078
scalar OsgEarthNet.uav[72] utilizationEnergyOverdrawMission 0
scalar OsgEarthNet.uav[72] utilizationEnergyOverdrawMaintenance 0
scalar OsgEarthNet.uav[72] utilizationCountMissions 64
scalar OsgEarthNet.uav[72] utilizationCountManeuversMission 1358
scalar OsgEarthNet.uav[72] utilizationCountManeuversMaintenance 127
scalar OsgEarthNet.uav[72] utilizationCountChargeState 64
scalar OsgEarthNet.uav[72] utilizationCountOverdrawnAfterMission 0
scalar OsgEarthNet.uav[72] utilizationCountIdleState 2
scalar OsgEarthNet.uav[72] utilizationFail 0
scalar OsgEarthNet.uav[72] simulationTime 259200
scalar OsgEarthNet.uav[73] utilizationSecMission 22960.478630193
scalar OsgEarthNet.uav[73] utilizationSecMaintenance 13496.596550803
scalar OsgEarthNet.uav[73] utilizationSecCharge 135645.71414003
scalar OsgEarthNet.uav[73] utilizationSecIdle 87097.209678978
scalar OsgEarthNet.uav[73] utilizationEnergyMission 111197.99728012
scalar OsgEarthNet.uav[73] utilizationEnergyMaintenance 64549.333789825
scalar OsgEarthNet.uav[73] utilizationEnergyCharge 175992.48168945
scalar OsgEarthNet.uav[73] utilizationEnergyOverdrawMission 0
scalar OsgEarthNet.uav[73] utilizationEnergyOverdrawMaintenance 0
scalar OsgEarthNet.uav[73] utilizationCountMissions 39
scalar OsgEarthNet.uav[73] utilizationCountManeuversMission 693
scalar OsgEarthNet.uav[73] utilizationCountManeuversMaintenance 78
scalar OsgEarthNet.uav[73] utilizationCountChargeState 39
scalar OsgEarthNet.uav[73] utilizationCountOverdrawnAfterMission 0
scalar OsgEarthNet.uav[73] utilizationCountIdleState 39
scalar OsgEarthNet.uav[73] utilizationFail 0
scalar OsgEarthNet.uav[73] simulationTime 259200
scalar OsgEarthNet.uav[74] utilizationSecMission 21613.666945716
scalar OsgEarthNet.uav[74] utilizationSecMaintenance 15404.378018309
scalar OsgEarthNet.uav[74] utilizationSecCharge 143599.94503597
scalar OsgEarthNet.uav[74] utilizationSecIdle 78582.009
scalar OsgEarthNet.uav[74] utilizationEnergyMission 105723.60558701
scalar OsgEarthNet.uav[74] utilizationEnergyMaintenance 74106.526691437
scalar OsgEarthNet.uav[74] utilizationEnergyCharge 175818.87792969
scalar OsgEarthNet.uav[74] utilizationEnergyOverdrawMission 0
scalar OsgEarthNet.uav[74] utilizationEnergyOverdrawMaintenance 0
scalar OsgEarthNet.uav[74] utilizationCountMissions 47
scalar OsgEarthNet.uav[74] utilizationCountManeuversMission 699
scalar OsgEarthNet.uav[74] utilizationCountManeuversMaintenance 94
scalar OsgEarthNet.uav[74] utilizationCountChargeState 47
scalar OsgEarthNet.uav[74] utilizationCountOverdrawnAfterMission 0
scalar OsgEarthNet.uav[74] utilizationCountIdleState 47
scalar OsgEarthNet.uav[74] utilizationFail 0
scalar OsgEarthNet.uav[74] simulationTime 259200
scalar OsgEarthNet.uav[75] utilizationSecMission 43106.49683204
scalar OsgEarthNet.uav[75] utilizationSecMaintenance 17321.49616796
scalar OsgEarthNet.uav[75] utilizationSecCharge 195660
scalar OsgEarthNet.uav[75] utilizationSecIdle 3112.006
scalar OsgEarthNet.uav[75] utilizationEnergyMission 212949.15425261
scalar OsgEarthNet.uav[75] utilizationEnergyMaintenance 79881.026767731
scalar OsgEarthNet.uav[75] utilizationEnergyCharge 288202.98046875
scalar OsgEarthNet.uav[75] utilizationEnergyOverdrawMission 0
scalar OsgEarthNet.uav[75] utilizationEnergyOverdrawMaintenance 0
scalar OsgEarthNet.uav[75] utilizationCountMissions 63
scalar OsgEarthNet.uav[75] utilizationCountManeuversMission 1422
scalar OsgEarthNet.uav[75] utilizationCountManeuversMaintenance 127
scalar OsgEarthNet.uav[75] utilizationCountChargeState 63
scalar OsgEarthNet.uav[75] utilizationCountOverdrawnAfterMission 0
scalar OsgEarthNet.uav[75] utilizationCountIdleState 2
scalar OsgEarthNet.uav[75] utilizationFail 0
scalar OsgEarthNet.uav[75] simulationTime 259200
scalar OsgEarthNet.uav[76] utilizationSecMission 26264.24030756
scalar OsgEarthNet.uav[76] utilizationSecMaintenance 15183.75769244
scalar OsgEarthNet.uav[76] utilizationSecCharge 151230
scalar OsgEarthNet.uav[76] utilizationSecIdle 66522.001
scalar OsgEarthNet.uav[76] utilizationEnergyMission 126766.171099
scalar OsgEarthNet.uav[76] utilizationEnergyMaintenance 71863.117050171
scalar OsgEarthNet.uav[76] utilizationEnergyCharge 195178.13500977
scalar OsgEarthNet.uav[76] utilizationEnergyOverdrawMission 0
scalar OsgEarthNet.uav[76] utilizationEnergyOverdrawMaintenance 0
scalar OsgEarthNet.uav[76] utilizationCountMissions 43
scalar OsgEarthNet.uav[76] utilizationCountManeuversMission 806
scalar OsgEarthNet.uav[76] utilizationCountManeuversMaintenance 87
scalar OsgEarthNet.uav[76] utilizationCountChargeState 43
scalar OsgEarthNet.uav[76] utilizationCountOverdrawnAfterMission 0
scalar OsgEarthNet.uav[76] utilizationCountIdleState 44
scalar OsgEarthNet.uav[76] utilizationFail 0
scalar OsgEarthNet.uav[76] simulationTime 259200
scalar OsgEarthNet.uav[77] utilizationSecMission 24452.685810557
scalar OsgEarthNet.uav[77] utilizationSecMaintenance 15661.772229434
scalar OsgEarthNet.uav[77] utilizationSecCharge 153273.53945329
scalar OsgEarthNet.uav[77] utilizationSecIdle 65812.001506722
scalar OsgEarthNet.uav[77] utilizationEnergyMission 118699.90313339
scalar OsgEarthNet.uav[77] utilizationEnergyMaintenance 74430.829498291
scalar OsgEarthNet.uav[77] utilizationEnergyCharge 191802.58129883
scalar OsgEarthNet.uav[77] utilizationEnergyOverdrawMission 0
scalar OsgEarthNet.uav[77] utilizationEnergyOverdrawMaintenance 0
scalar OsgEarthNet.uav[77] utilizationCountMissions 47
scalar OsgEarthNet.uav[77] utilizationCountManeuversMission 753
scalar OsgEarthNet.uav[77] utilizationCountManeuversMaintenance 94
scalar OsgEarthNet.uav[77] utilizationCountChargeState 47
scalar OsgEarthNet.uav[77] utilizationCountOverdrawnAfterMission 0
scalar OsgEarthNet.uav[77] utilizationCountIdleState 47
scalar OsgEarthNet.uav[77] utilizationFail 0
scalar OsgEarthNet.uav[77] simulationTime 259200
scalar OsgEarthNet.uav[78] utilizationSecMission 43023.404571661
scalar OsgEarthNet.uav[78] utilizationSecMaintenance 18086.038155813
scalar OsgEarthNet.uav[78] utilizationSecCharge 198038.55627253
scalar OsgEarthNet.uav[78] utilizationSecIdle 52
scalar OsgEarthNet.uav[78] utilizationEnergyMission 209769.9467316
scalar OsgEarthNet.uav[78] utilizationEnergyMaintenance 83267.773864746
scalar OsgEarthNet.uav[78] utilizationEnergyCharge 291236.31640625
scalar OsgEarthNet.uav[78] utilizationEnergyOverdrawMission 0
scalar OsgEarthNet.uav[78] utilizationEnergyOverdrawMaintenance 0
scalar OsgEarthNet.uav[78] utilizationCountMissions 64
scalar OsgEarthNet.uav[78] utilizationCountManeuversMission 1264
scalar OsgEarthNet.uav[78] utilizationCountManeuversMaintenance 127
scalar OsgEarthNet.uav[78] utilizationCountChargeState 64
scalar OsgEarthNet.uav[78] utilizationCountOverdrawnAfterMission 0
scalar OsgEarthNet.uav[78] utilizationCountIdleState 2
scalar OsgEarthNet.uav[78] utilizationFail 0
scalar OsgEarthNet.uav[78] simulationTime 259200
scalar OsgEarthNet.uav[79] utilizationSecMission 22131.047701077
scalar OsgEarthNet.uav[79] utilizationSecMaintenance 14461.738619945
scalar OsgEarthNet.uav[79] utilizationSecCharge 136950
scalar OsgEarthNet.uav[79] utilizationSecIdle 85657.212678978
scalar OsgEarthNet.uav[79] utilizationEnergyMission 109075.28326456
scalar OsgEarthNet.uav[79] utilizationEnergyMaintenance 68904.09254837
scalar OsgEarthNet.uav[79] utilizationEnergyCharge 176562.26855469
scalar OsgEarthNet.uav[79] utilizationEnergyOverdrawMission 0
scalar OsgEarthNet.uav[79] utilizationEnergyOverdrawMaintenance 0
scalar OsgEarthNet.uav[79] utilizationCountMissions 39
scalar OsgEarthNet.uav[79] utilizationCountManeuversMission 742
scalar OsgEarthNet.uav[79] utilizationCountManeuversMaintenance 79
scalar OsgEarthNet.uav[79] utilizationCountChargeState 39
scalar OsgEarthNet.uav[79] utilizationCountOverdrawnAfterMission 0
scalar OsgEarthNet.uav[79] utilizationCountIdleState 40
scalar OsgEarthNet.uav[79] utilizationFail 0
scalar OsgEarthNet.uav[79] simulationTime 259200
scalar OsgEarthNet.uav[80] utilizationSecMission 25153.128204186
scalar OsgEarthNet.uav[80] utilizationSecMaintenance 13539.478775632
scalar OsgEarthNet.uav[80] utilizationSecCharge 140633.99990265
scalar OsgEarthNet.uav[80] utilizationSecIdle 79873.392117534
scalar OsgEarthNet.uav[80] utilizationEnergyMission 121511.09169006
scalar OsgEarthNet.uav[80] utilizationEnergyMaintenance 65061.89742279
scalar OsgEarthNet.uav[80] utilizationEnergyCharge 181658.456604
scalar OsgEarthNet.uav[80] utilizationEnergyOverdrawMission 0
scalar OsgEarthNet.uav[80] utilizationEnergyOverdrawMaintenance 0
scalar OsgEarthNet.uav[80] utilizationCountMissions 41
scalar OsgEarthNet.uav[80] utilizationCountManeuversMission 711
scalar OsgEarthNet.uav[80] utilizationCountManeuversMaintenance 82
scalar OsgEarthNet.uav[80] utilizationCountChargeState 41
scalar OsgEarthNet.uav[80] utilizationCountOverdrawnAfterMission 0
scalar OsgEarthNet.uav[80] utilizationCountIdleState 41
scalar OsgEarthNet.uav[80] utilizationFail 0
scalar OsgEarthNet.uav[80] simulationTime 259200
scalar OsgEarthNet.uav[81] utilizationSecMission 21629.108173606
scalar OsgEarthNet.uav[81] utilizationSecMaintenance 15173.799063127
scalar OsgEarthNet.uav[81] utilizationSecCharge 145000
scalar OsgEarthNet.uav[81] utilizationSecIdle 77397.091763267
scalar OsgEarthNet.uav[81] utilizationEnergyMission 105062.08079529
scalar OsgEarthNet.uav[81] utilizationEnergyMaintenance 72777.326221466
scalar OsgEarthNet.uav[81] utilizationEnergyCharge 176595.03979492
scalar OsgEarthNet.uav[81] utilizationEnergyOverdrawMission 0
scalar OsgEarthNet.uav[81] utilizationEnergyOverdrawMaintenance 0
scalar OsgEarthNet.uav[81] utilizationCountMissions 47
scalar OsgEarthNet.uav[81] utilizationCountManeuversMission 641
scalar OsgEarthNet.uav[81] utilizationCountManeuversMaintenance 94
scalar OsgEarthNet.uav[81] utilizationCountChargeState 47
scalar OsgEarthNet.uav[81] utilizationCountOverdrawnAfterMission 0
scalar OsgEarthNet.uav[81] utilizationCountIdleState 48
scalar OsgEarthNet.uav[81] utilizationFail 0
scalar OsgEarthNet.uav[81] simulationTime 259200
scalar OsgEarthNet.uav[82] utilizationSecMission 42193.572334296
scalar OsgEarthNet.uav[82] utilizationSecMaintenance 17907.09865393
scalar OsgEarthNet.uav[82] utilizationSecCharge 197037.32501177
scalar OsgEarthNet.uav[82] utilizationSecIdle 2062.003
scalar OsgEarthNet.uav[82] utilizationEnergyMission 205690.67780304
scalar OsgEarthNet.uav[82] utilizationEnergyMaintenance 82073.247390747
scalar OsgEarthNet.uav[82] utilizationEnergyCharge 286739.35644531
scalar OsgEarthNet.uav[82] utilizationEnergyOverdrawMission 0
scalar OsgEarthNet.uav[82] utilizationEnergyOverdrawMaintenance 0
scalar OsgEarthNet.uav[82] utilizationCountMissions 63
scalar OsgEarthNet.uav[82] utilizationCountManeuversMission 1310
scalar OsgEarthNet.uav[82] utilizationCountManeuversMaintenance 126
scalar OsgEarthNet.uav[82] utilizationCountChargeState 63
scalar OsgEarthNet.uav[82] utilizationCountOverdrawnAfterMission 0
scalar OsgEarthNet.uav[82] utilizationCountIdleState 3
scalar OsgEarthNet.uav[82] utilizationFail 0
scalar OsgEarthNet.uav[82] simulationTime 259200
scalar OsgEarthNet.uav[83] utilizationSecMission 24539.119249954
scalar OsgEarthNet.uav[83] utilizationSecMaintenance 16070.243330795
scalar OsgEarthNet.uav[83] utilizationSecCharge 150568.63441925
scalar OsgEarthNet.uav[83] utilizationSecIdle 68022.002
scalar OsgEarthNet.uav[83] utilizationEnergyMission 119747.0255928
scalar OsgEarthNet.uav[83] utilizationEnergyMaintenance 76190.880161285
scalar OsgEarthNet.uav[83] utilizationEnergyCharge 195563.28417969
scalar OsgEarthNet.uav[83] utilizationEnergyOverdrawMission 0
scalar OsgEarthNet.uav[83] utilizationEnergyOverdrawMaintenance 0
scalar OsgEarthNet.uav[83] utilizationCountMissions 43
scalar OsgEarthNet.uav[83] utilizationCountManeuversMission 841
scalar OsgEarthNet.uav[83] utilizationCountManeuversMaintenance 86
scalar OsgEarthNet.uav[83] utilizationCountChargeState 43
scalar OsgEarthNet.uav[83] utilizationCountOverdrawnAfterMission 0
scalar OsgEarthNet.uav[83] utilizationCountIdleState 43
scalar OsgEarthNet.uav[83] utilizationFail 0
scalar OsgEarthNet.uav[83] simulationTime 259200
scalar OsgEarthNet.uav[84] utilizationSecMission 22662.096840502
scalar OsgEarthNet.uav[84] utilizationSecMaintenance 15342.76020662
scalar OsgEarthNet.uav[84] utilizationSecCharge 144753.12995288
scalar OsgEarthNet.uav[84] utilizationSecIdle 76442.012
scalar OsgEarthNet.uav[84] utilizationEnergyMission 108904.62375259
scalar OsgEarthNet.uav[84] utilizationEnergyMaintenance 72546.908851624
scalar OsgEarthNet.uav[84] utilizationEnergyCharge 179370.18530273
scalar OsgEarthNet.uav[84] utilizationEnergyOverdrawMission 0
scalar OsgEarthNet.uav[84] utilizationEnergyOverdrawMaintenance 0
scalar OsgEarthNet.uav[84] utilizationCountMissions 46
scalar OsgEarthNet.uav[84] utilizationCountManeuversMission 731
scalar OsgEarthNet.uav[84] utilizationCountManeuversMaintenance 92
scalar OsgEarthNet.uav[84] utilizationCountChargeState 46
scalar OsgEarthNet.uav[84] utilizationCountOverdrawnAfterMission 0
scalar OsgEarthNet.uav[84] utilizationCountIdleState 46
scalar OsgEarthNet.uav[84] utilizationFail 0
scalar OsgEarthNet.uav[84] simulationTime 259200
scalar OsgEarthNet.uav[85] utilizationSecMission 43066.337517929
scalar OsgEarthNet.uav[85] utilizationSecMaintenance 17983.824668031
scalar OsgEarthNet.uav[85] utilizationSecCharge 195120
scalar OsgEarthNet.uav[85] utilizationSecIdle 3029.83681404
scalar OsgEarthNet.uav[85] utilizationEnergyMission 209483.86851641
scalar OsgEarthNet.uav[85] utilizationEnergyMaintenance 82789.523590088
scalar OsgEarthNet.uav[85] utilizationEnergyCharge 288459.60351562
scalar OsgEarthNet.uav[85] utilizationEnergyOverdrawMission 0
scalar OsgEarthNet.uav[85] utilizationEnergyOverdrawMaintenance 0
scalar OsgEarthNet.uav[85] utilizationCountMissions 63
scalar OsgEarthNet.uav[85] utilizationCountManeuversMission 1305
scalar OsgEarthNet.uav[85] utilizationCountManeuversMaintenance 127
scalar OsgEarthNet.uav[85] utilizationCountChargeState 63
scalar OsgEarthNet.uav[85] utilizationCountOverdrawnAfterMission 0
scalar OsgEarthNet.uav[85] utilizationCountIdleState 4
scalar OsgEarthNet.uav[85] utilizationFail 0
scalar OsgEarthNet.uav[85] simulationTime 259200
scalar OsgEarthNet.uav[86] utilizationSecMission 24098.385022294
scalar OsgEarthNet.uav[86] utilizationSecMaintenance 16785.247447618
scalar OsgEarthNet.uav[86] utilizationSecCharge 151939.15885111
scalar OsgEarthNet.uav[86] utilizationSecIdle 66377.207678978
scalar OsgEarthNet.uav[86] utilizationEnergyMission 117762.93811798
scalar OsgEarthNet.uav[86] utilizationEnergyMaintenance 80074.321243286
scalar OsgEarthNet.uav[86] utilizationEnergyCharge 196415.41278076
scalar OsgEarthNet.uav[86] utilizationEnergyOverdrawMission 0
scalar OsgEarthNet.uav[86] utilizationEnergyOverdrawMaintenance 0
scalar OsgEarthNet.uav[86] utilizationCountMissions 44
scalar OsgEarthNet.uav[86] utilizationCountManeuversMission 862
scalar OsgEarthNet.uav[86] utilizationCountManeuversMaintenance 88
scalar OsgEarthNet.uav[86] utilizationCountChargeState 44
scalar OsgEarthNet.uav[86] utilizationCountOverdrawnAfterMission 0
scalar OsgEarthNet.uav[86] utilizationCountIdleState 44
scalar OsgEarthNet.uav[86] utilizationFail 0
scalar OsgEarthNet.uav[86] simulationTime 259200
scalar OsgEarthNet.uav[87] utilizationSecMission 23848.199303372
scalar OsgEarthNet.uav[87] utilizationSecMaintenance 15997.021995837
scalar OsgEarthNet.uav[87] utilizationSecCharge 151892.77170079
scalar OsgEarthNet.uav[87] utilizationSecIdle 67462.006
scalar OsgEarthNet.uav[87] utilizationEnergyMission 115227.97380829
scalar OsgEarthNet.uav[87] utilizationEnergyMaintenance 75846.921909332
scalar OsgEarthNet.uav[87] utilizationEnergyCharge 187296.4831543
scalar OsgEarthNet.uav[87] utilizationEnergyOverdrawMission 0
scalar OsgEarthNet.uav[87] utilizationEnergyOverdrawMaintenance 0
scalar OsgEarthNet.uav[87] utilizationCountMissions 49
scalar OsgEarthNet.uav[87] utilizationCountManeuversMission 723
scalar OsgEarthNet.uav[87] utilizationCountManeuversMaintenance 98
scalar OsgEarthNet.uav[87] utilizationCountChargeState 49
scalar OsgEarthNet.uav[87] utilizationCountOverdrawnAfterMission 0
scalar OsgEarthNet.uav[87] utilizationCountIdleState 49
scalar OsgEarthNet.uav[87] utilizationFail 0
scalar OsgEarthNet.uav[87] simulationTime 259200
scalar OsgEarthNet.cs[0] usedPower 4014765.826196
scalar OsgEarthNet.cs[0] chargedPower 4014765.826196
scalar OsgEarthNet.cs[0] chargedMobileNodes 877
scalar OsgEarthNet.cs[0] reservations 890
scalar OsgEarthNet.cs[1] usedPower 4150346.7297187
scalar OsgEarthNet.cs[1] chargedPower 4150346.7297187
scalar OsgEarthNet.cs[1] chargedMobileNodes 1034
scalar OsgEarthNet.cs[1] reservations 1048
scalar OsgEarthNet.cs[2] usedPower 8660891.5836882
scalar OsgEarthNet.cs[2] chargedPower 8660891.5836882
scalar OsgEarthNet.cs[2] chargedMobileNodes 66
scalar OsgEarthNet.cs[2] reservations 1907

