version 2
run Szenario_Hotel_Gabelbach-242-20180719-09:52:56-25620
attr configname Szenario_Hotel_Gabelbach
attr datetime 20180719-09:52:56
attr experiment Szenario_Hotel_Gabelbach
attr inifile omnetpp.ini
attr iterationvars "$replM=2, $biWeight=0.35, $replSearchM=1, $numUAVs=70"
attr iterationvarsf replM=2,biWeight=0.35,replSearchM=1,numUAVs=70-
attr measurement "$replM=2, $biWeight=0.35, $replSearchM=1, $numUAVs=70"
attr network OsgEarthNet
attr processid 25620
attr repetition 2
attr replication #2
attr resultdir results
attr runnumber 242
attr seedset 242
itervar biWeight 0.35
itervar numUAVs 70
itervar replM 2
itervar replSearchM 1
param *.osgEarthScene.scene "\"Szenario_Hotel_Gabelbach.earth\""
param *.playgroundLatitude 50.6830269
param *.playgroundLongitude 10.8538055
param *.playgroundWidth 3500m
param *.playgroundHeight 3500m
param *.cs[0].posX 3537m
param *.cs[0].posY 965m
param *.cs[0].posZ 538m
param *.cs[1].posX 312m
param *.cs[1].posY 1262m
param *.cs[1].posZ 539m
param *.cs[2].posX 2185m
param *.cs[2].posY 3026m
param *.cs[2].posZ 777m
param *.cs[3].posX 10m
param *.cs[3].posY 2200m
param *.cs[3].posZ 560m
param *.cs[4].posX 750m
param *.cs[4].posY 200m
param *.cs[4].posZ 540m
param *.cs[5].posX 2450m
param *.cs[5].posY 180m
param *.cs[5].posZ 524m
param *.cs[6].posX 3140m
param *.cs[6].posY 1790m
param *.cs[6].posZ 606m
param *.numCSs 3
param *.uav[*].replacementMethod 2
param *.uav[*].weightedSumWeight 0.35
param *.missionControl.replacementSearchMethod 1
param *.numUAVs 70
param *.*.timeStep 10s
param *.uav[*].commandPreviewCommandCount 20
param *.missionControl.missionFiles "\"missions\\\\Szenario_WB_Hotel_Gabelbach_Mission_Hotel.waypoints,missions\\\\Szenario_WB_Hotel_Gabelbach_Mission_Kickelhahn.waypoints,missions\\\\Szenario_WB_Hotel_Gabelbach_Mission_Ilmenau_Sportplatz.waypoints,missions\\\\Szenario_WB_Hotel_Gabelbach_Mission_Manebach_Mitte.waypoints,missions\\\\Szenario_WB_Hotel_Gabelbach_Mission_Manebach_Sued.waypoints,missions\\\\Szenario_WB_Hotel_Gabelbach_Hover_HoheSchlaufe.waypoints,missions\\\\Szenario_WB_Hotel_Gabelbach_Hover_Kickelhahn.waypoints,missions\\\\Szenario_WB_Hotel_Gabelbach_Hover_Gabelbachskopf.waypoints,missions\\\\Szenario_WB_Hotel_Gabelbach_Hover_Dachskopf.waypoints\""
param *.uav[0].startX 3537m
param *.uav[0].startY 965m
param *.uav[0].startZ 539m
param *.uav[1].startX 312m
param *.uav[1].startY 1262m
param *.uav[1].startZ 540m
param *.uav[2].startX 2185m
param *.uav[2].startY 3026m
param *.uav[2].startZ 778m
param *.uav[3].startX 3537m
param *.uav[3].startY 965m
param *.uav[3].startZ 539m
param *.uav[4].startX 312m
param *.uav[4].startY 1262m
param *.uav[4].startZ 540m
param *.uav[5].startX 2185m
param *.uav[5].startY 3026m
param *.uav[5].startZ 778m
param *.uav[6].startX 3537m
param *.uav[6].startY 965m
param *.uav[6].startZ 539m
param *.uav[7].startX 312m
param *.uav[7].startY 1262m
param *.uav[7].startZ 540m
param *.uav[8].startX 2185m
param *.uav[8].startY 3026m
param *.uav[8].startZ 778m
param *.uav[9].startX 3537m
param *.uav[9].startY 965m
param *.uav[9].startZ 539m
param *.uav[10].startX 3537m
param *.uav[10].startY 965m
param *.uav[10].startZ 539m
param *.uav[11].startX 312m
param *.uav[11].startY 1262m
param *.uav[11].startZ 540m
param *.uav[12].startX 2185m
param *.uav[12].startY 3026m
param *.uav[12].startZ 778m
param *.uav[13].startX 3537m
param *.uav[13].startY 965m
param *.uav[13].startZ 539m
param *.uav[14].startX 312m
param *.uav[14].startY 1262m
param *.uav[14].startZ 540m
param *.uav[15].startX 2185m
param *.uav[15].startY 3026m
param *.uav[15].startZ 778m
param *.uav[16].startX 3537m
param *.uav[16].startY 965m
param *.uav[16].startZ 539m
param *.uav[17].startX 312m
param *.uav[17].startY 1262m
param *.uav[17].startZ 540m
param *.uav[18].startX 2185m
param *.uav[18].startY 3026m
param *.uav[18].startZ 778m
param *.uav[19].startX 3537m
param *.uav[19].startY 965m
param *.uav[19].startZ 539m
param *.uav[20].startX 3537m
param *.uav[20].startY 965m
param *.uav[20].startZ 539m
param *.uav[21].startX 312m
param *.uav[21].startY 1262m
param *.uav[21].startZ 540m
param *.uav[22].startX 2185m
param *.uav[22].startY 3026m
param *.uav[22].startZ 778m
param *.uav[23].startX 3537m
param *.uav[23].startY 965m
param *.uav[23].startZ 539m
param *.uav[24].startX 312m
param *.uav[24].startY 1262m
param *.uav[24].startZ 540m
param *.uav[25].startX 2185m
param *.uav[25].startY 3026m
param *.uav[25].startZ 778m
param *.uav[26].startX 3537m
param *.uav[26].startY 965m
param *.uav[26].startZ 539m
param *.uav[27].startX 312m
param *.uav[27].startY 1262m
param *.uav[27].startZ 540m
param *.uav[28].startX 2185m
param *.uav[28].startY 3026m
param *.uav[28].startZ 778m
param *.uav[29].startX 3537m
param *.uav[29].startY 965m
param *.uav[29].startZ 539m
param *.uav[30].startX 3537m
param *.uav[30].startY 965m
param *.uav[30].startZ 539m
param *.uav[31].startX 312m
param *.uav[31].startY 1262m
param *.uav[31].startZ 540m
param *.uav[32].startX 2185m
param *.uav[32].startY 3026m
param *.uav[32].startZ 778m
param *.uav[33].startX 3537m
param *.uav[33].startY 965m
param *.uav[33].startZ 539m
param *.uav[34].startX 312m
param *.uav[34].startY 1262m
param *.uav[34].startZ 540m
param *.uav[35].startX 2185m
param *.uav[35].startY 3026m
param *.uav[35].startZ 778m
param *.uav[36].startX 3537m
param *.uav[36].startY 965m
param *.uav[36].startZ 539m
param *.uav[37].startX 312m
param *.uav[37].startY 1262m
param *.uav[37].startZ 540m
param *.uav[38].startX 2185m
param *.uav[38].startY 3026m
param *.uav[38].startZ 778m
param *.uav[39].startX 3537m
param *.uav[39].startY 965m
param *.uav[39].startZ 539m
param *.uav[40].startX 3537m
param *.uav[40].startY 965m
param *.uav[40].startZ 539m
param *.uav[41].startX 312m
param *.uav[41].startY 1262m
param *.uav[41].startZ 540m
param *.uav[42].startX 2185m
param *.uav[42].startY 3026m
param *.uav[42].startZ 778m
param *.uav[43].startX 3537m
param *.uav[43].startY 965m
param *.uav[43].startZ 539m
param *.uav[44].startX 312m
param *.uav[44].startY 1262m
param *.uav[44].startZ 540m
param *.uav[45].startX 2185m
param *.uav[45].startY 3026m
param *.uav[45].startZ 778m
param *.uav[46].startX 3537m
param *.uav[46].startY 965m
param *.uav[46].startZ 539m
param *.uav[47].startX 312m
param *.uav[47].startY 1262m
param *.uav[47].startZ 540m
param *.uav[48].startX 2185m
param *.uav[48].startY 3026m
param *.uav[48].startZ 778m
param *.uav[49].startX 3537m
param *.uav[49].startY 965m
param *.uav[49].startZ 539m
param *.uav[50].startX 3537m
param *.uav[50].startY 965m
param *.uav[50].startZ 539m
param *.uav[51].startX 312m
param *.uav[51].startY 1262m
param *.uav[51].startZ 540m
param *.uav[52].startX 2185m
param *.uav[52].startY 3026m
param *.uav[52].startZ 778m
param *.uav[53].startX 3537m
param *.uav[53].startY 965m
param *.uav[53].startZ 539m
param *.uav[54].startX 312m
param *.uav[54].startY 1262m
param *.uav[54].startZ 540m
param *.uav[55].startX 2185m
param *.uav[55].startY 3026m
param *.uav[55].startZ 778m
param *.uav[56].startX 3537m
param *.uav[56].startY 965m
param *.uav[56].startZ 539m
param *.uav[57].startX 312m
param *.uav[57].startY 1262m
param *.uav[57].startZ 540m
param *.uav[58].startX 2185m
param *.uav[58].startY 3026m
param *.uav[58].startZ 778m
param *.uav[59].startX 3537m
param *.uav[59].startY 965m
param *.uav[59].startZ 539m
param *.uav[60].startX 3537m
param *.uav[60].startY 965m
param *.uav[60].startZ 539m
param *.uav[61].startX 312m
param *.uav[61].startY 1262m
param *.uav[61].startZ 540m
param *.uav[62].startX 2185m
param *.uav[62].startY 3026m
param *.uav[62].startZ 778m
param *.uav[63].startX 3537m
param *.uav[63].startY 965m
param *.uav[63].startZ 539m
param *.uav[64].startX 312m
param *.uav[64].startY 1262m
param *.uav[64].startZ 540m
param *.uav[65].startX 2185m
param *.uav[65].startY 3026m
param *.uav[65].startZ 778m
param *.uav[66].startX 3537m
param *.uav[66].startY 965m
param *.uav[66].startZ 539m
param *.uav[67].startX 312m
param *.uav[67].startY 1262m
param *.uav[67].startZ 540m
param *.uav[68].startX 2185m
param *.uav[68].startY 3026m
param *.uav[68].startZ 778m
param *.uav[69].startX 3537m
param *.uav[69].startY 965m
param *.uav[69].startZ 539m
param *.uav[70].startX 3537m
param *.uav[70].startY 965m
param *.uav[70].startZ 539m
param *.uav[71].startX 312m
param *.uav[71].startY 1262m
param *.uav[71].startZ 540m
param *.uav[72].startX 2185m
param *.uav[72].startY 3026m
param *.uav[72].startZ 778m
param *.uav[73].startX 3537m
param *.uav[73].startY 965m
param *.uav[73].startZ 539m
param *.uav[74].startX 312m
param *.uav[74].startY 1262m
param *.uav[74].startZ 540m
param *.uav[75].startX 2185m
param *.uav[75].startY 3026m
param *.uav[75].startZ 778m
param *.uav[76].startX 3537m
param *.uav[76].startY 965m
param *.uav[76].startZ 539m
param *.uav[77].startX 312m
param *.uav[77].startY 1262m
param *.uav[77].startZ 540m
param *.uav[78].startX 2185m
param *.uav[78].startY 3026m
param *.uav[78].startZ 778m
param *.uav[79].startX 3537m
param *.uav[79].startY 965m
param *.uav[79].startZ 539m
param *.uav[80].startX 3537m
param *.uav[80].startY 965m
param *.uav[80].startZ 539m
param *.uav[81].startX 312m
param *.uav[81].startY 1262m
param *.uav[81].startZ 540m
param *.uav[82].startX 2185m
param *.uav[82].startY 3026m
param *.uav[82].startZ 778m
param *.uav[83].startX 3537m
param *.uav[83].startY 965m
param *.uav[83].startZ 539m
param *.uav[84].startX 312m
param *.uav[84].startY 1262m
param *.uav[84].startZ 540m
param *.uav[85].startX 2185m
param *.uav[85].startY 3026m
param *.uav[85].startZ 778m
param *.uav[86].startX 3537m
param *.uav[86].startY 965m
param *.uav[86].startZ 539m
param *.uav[87].startX 312m
param *.uav[87].startY 1262m
param *.uav[87].startZ 540m
param *.uav[88].startX 2185m
param *.uav[88].startY 3026m
param *.uav[88].startZ 778m
param *.uav[89].startX 3537m
param *.uav[89].startY 965m
param *.uav[89].startZ 539m
param *.uav[90].startX 3537m
param *.uav[90].startY 965m
param *.uav[90].startZ 539m
param *.uav[91].startX 312m
param *.uav[91].startY 1262m
param *.uav[91].startZ 540m
param *.uav[92].startX 2185m
param *.uav[92].startY 3026m
param *.uav[92].startZ 778m
param *.uav[93].startX 3537m
param *.uav[93].startY 965m
param *.uav[93].startZ 539m
param *.uav[94].startX 312m
param *.uav[94].startY 1262m
param *.uav[94].startZ 540m
param *.uav[95].startX 2185m
param *.uav[95].startY 3026m
param *.uav[95].startZ 778m
param *.uav[96].startX 3537m
param *.uav[96].startY 965m
param *.uav[96].startZ 539m
param *.uav[97].startX 312m
param *.uav[97].startY 1262m
param *.uav[97].startZ 540m
param *.uav[98].startX 2185m
param *.uav[98].startY 3026m
param *.uav[98].startZ 778m
param *.uav[99].startX 3537m
param *.uav[99].startY 965m
param *.uav[99].startZ 539m
param *.osgEarthScene.scene "\"boston.earth\""
param *.playgroundLatitude 42.3558
param *.playgroundLongitude -71.0677
param *.playgroundWidth 400m
param *.playgroundHeight 200m
param *.channelController.connectionColor "\"#0000FF40\""
param *.channelController.showConnections false
param *.uav[*].modelURL "\"quadrocopter.small.obj.15.scale.0,0,90.rot\""
param *.uav[*].labelColor "\"#FF7C00CC\""
param *.uav[*].label2Color "\"#FF7C00EE\""
param *.uav[*].batteryCapacity 5200mAh
param *.uav[*].batteryRemaining uav[index].batteryCapacity
param *.uav[*].predictionQuantile 0.95
param *.uav[*].replacementMethod 2
param *.uav[*].weightedSumWeight 0.5
param *.cs[*].modelURL "\"chargingstation_v1.osgt.2.scale.0,0,0.rot.0,0,-15e-1.trans\""
param *.cs[*].spotsWaiting 999
param *.cs[*].spotsCharging 999
param *.cs[*].chargeEffectivenessPercentage 100
param *.cs[*].nonLinearPhaseStartPercentage 85
param *.cs[*].chargeCurrent 6.0A
param *.cs[*].prioritizeFastCharge true
param *.missionControl.replacementSearchMethod 0
param *.*.timeStep 9s

scalar OsgEarthNet.uav[0] utilizationSecMission 33733.128204186
scalar OsgEarthNet.uav[0] utilizationSecMaintenance 21505.882536957
scalar OsgEarthNet.uav[0] utilizationSecCharge 196879.47459791
scalar OsgEarthNet.uav[0] utilizationSecIdle 7081.5136609497
scalar OsgEarthNet.uav[0] utilizationEnergyMission 164166.97470093
scalar OsgEarthNet.uav[0] utilizationEnergyMaintenance 102643.2905426
scalar OsgEarthNet.uav[0] utilizationEnergyCharge 265117.3137207
scalar OsgEarthNet.uav[0] utilizationEnergyOverdrawMission 0
scalar OsgEarthNet.uav[0] utilizationEnergyOverdrawMaintenance 0
scalar OsgEarthNet.uav[0] utilizationCountMissions 59
scalar OsgEarthNet.uav[0] utilizationCountManeuversMission 1140
scalar OsgEarthNet.uav[0] utilizationCountManeuversMaintenance 118
scalar OsgEarthNet.uav[0] utilizationCountChargeState 59
scalar OsgEarthNet.uav[0] utilizationCountOverdrawnAfterMission 0
scalar OsgEarthNet.uav[0] utilizationCountIdleState 26
scalar OsgEarthNet.uav[0] utilizationFail 0
scalar OsgEarthNet.uav[0] simulationTime 259200
scalar OsgEarthNet.uav[1] utilizationSecMission 31171.177998317
scalar OsgEarthNet.uav[1] utilizationSecMaintenance 17776.825295957
scalar OsgEarthNet.uav[1] utilizationSecCharge 185088.32752774
scalar OsgEarthNet.uav[1] utilizationSecIdle 25163.668177988
scalar OsgEarthNet.uav[1] utilizationEnergyMission 151096.41950989
scalar OsgEarthNet.uav[1] utilizationEnergyMaintenance 84200.513969421
scalar OsgEarthNet.uav[1] utilizationEnergyCharge 233337.89501953
scalar OsgEarthNet.uav[1] utilizationEnergyOverdrawMission 0
scalar OsgEarthNet.uav[1] utilizationEnergyOverdrawMaintenance 0
scalar OsgEarthNet.uav[1] utilizationCountMissions 57
scalar OsgEarthNet.uav[1] utilizationCountManeuversMission 943
scalar OsgEarthNet.uav[1] utilizationCountManeuversMaintenance 114
scalar OsgEarthNet.uav[1] utilizationCountChargeState 57
scalar OsgEarthNet.uav[1] utilizationCountOverdrawnAfterMission 0
scalar OsgEarthNet.uav[1] utilizationCountIdleState 54
scalar OsgEarthNet.uav[1] utilizationFail 0
scalar OsgEarthNet.uav[1] simulationTime 259200
scalar OsgEarthNet.uav[2] utilizationSecMission 34377.09087494
scalar OsgEarthNet.uav[2] utilizationSecMaintenance 13667.140981394
scalar OsgEarthNet.uav[2] utilizationSecCharge 176403.76614367
scalar OsgEarthNet.uav[2] utilizationSecIdle 34752.001
scalar OsgEarthNet.uav[2] utilizationEnergyMission 167413.91641998
scalar OsgEarthNet.uav[2] utilizationEnergyMaintenance 62917.108695984
scalar OsgEarthNet.uav[2] utilizationEnergyCharge 230137.44726562
scalar OsgEarthNet.uav[2] utilizationEnergyOverdrawMission 0
scalar OsgEarthNet.uav[2] utilizationEnergyOverdrawMaintenance 0
scalar OsgEarthNet.uav[2] utilizationCountMissions 50
scalar OsgEarthNet.uav[2] utilizationCountManeuversMission 1084
scalar OsgEarthNet.uav[2] utilizationCountManeuversMaintenance 100
scalar OsgEarthNet.uav[2] utilizationCountChargeState 50
scalar OsgEarthNet.uav[2] utilizationCountOverdrawnAfterMission 0
scalar OsgEarthNet.uav[2] utilizationCountIdleState 49
scalar OsgEarthNet.uav[2] utilizationFail 0
scalar OsgEarthNet.uav[2] simulationTime 259200
scalar OsgEarthNet.uav[3] utilizationSecMission 32336.7560665
scalar OsgEarthNet.uav[3] utilizationSecMaintenance 16933.641550952
scalar OsgEarthNet.uav[3] utilizationSecCharge 184369.03196165
scalar OsgEarthNet.uav[3] utilizationSecIdle 25560.569420895
scalar OsgEarthNet.uav[3] utilizationEnergyMission 153098.57783127
scalar OsgEarthNet.uav[3] utilizationEnergyMaintenance 79969.880767822
scalar OsgEarthNet.uav[3] utilizationEnergyCharge 232733.45483398
scalar OsgEarthNet.uav[3] utilizationEnergyOverdrawMission 0
scalar OsgEarthNet.uav[3] utilizationEnergyOverdrawMaintenance 0
scalar OsgEarthNet.uav[3] utilizationCountMissions 56
scalar OsgEarthNet.uav[3] utilizationCountManeuversMission 888
scalar OsgEarthNet.uav[3] utilizationCountManeuversMaintenance 112
scalar OsgEarthNet.uav[3] utilizationCountChargeState 56
scalar OsgEarthNet.uav[3] utilizationCountOverdrawnAfterMission 0
scalar OsgEarthNet.uav[3] utilizationCountIdleState 53
scalar OsgEarthNet.uav[3] utilizationFail 0
scalar OsgEarthNet.uav[3] simulationTime 259200
scalar OsgEarthNet.uav[4] utilizationSecMission 31662.637031034
scalar OsgEarthNet.uav[4] utilizationSecMaintenance 16543.833308874
scalar OsgEarthNet.uav[4] utilizationSecCharge 180921.52866009
scalar OsgEarthNet.uav[4] utilizationSecIdle 30072
scalar OsgEarthNet.uav[4] utilizationEnergyMission 152681.17345047
scalar OsgEarthNet.uav[4] utilizationEnergyMaintenance 77618.145957947
scalar OsgEarthNet.uav[4] utilizationEnergyCharge 226114.81713867
scalar OsgEarthNet.uav[4] utilizationEnergyOverdrawMission 0
scalar OsgEarthNet.uav[4] utilizationEnergyOverdrawMaintenance 0
scalar OsgEarthNet.uav[4] utilizationCountMissions 57
scalar OsgEarthNet.uav[4] utilizationCountManeuversMission 878
scalar OsgEarthNet.uav[4] utilizationCountManeuversMaintenance 113
scalar OsgEarthNet.uav[4] utilizationCountChargeState 57
scalar OsgEarthNet.uav[4] utilizationCountOverdrawnAfterMission 0
scalar OsgEarthNet.uav[4] utilizationCountIdleState 55
scalar OsgEarthNet.uav[4] utilizationFail 0
scalar OsgEarthNet.uav[4] simulationTime 259200
scalar OsgEarthNet.uav[5] utilizationSecMission 34300.611288744
scalar OsgEarthNet.uav[5] utilizationSecMaintenance 13494.408795544
scalar OsgEarthNet.uav[5] utilizationSecCharge 177922.97491571
scalar OsgEarthNet.uav[5] utilizationSecIdle 33482.004
scalar OsgEarthNet.uav[5] utilizationEnergyMission 165858.02037048
scalar OsgEarthNet.uav[5] utilizationEnergyMaintenance 63092.726535797
scalar OsgEarthNet.uav[5] utilizationEnergyCharge 230557.90869141
scalar OsgEarthNet.uav[5] utilizationEnergyOverdrawMission 0
scalar OsgEarthNet.uav[5] utilizationEnergyOverdrawMaintenance 0
scalar OsgEarthNet.uav[5] utilizationCountMissions 50
scalar OsgEarthNet.uav[5] utilizationCountManeuversMission 1040
scalar OsgEarthNet.uav[5] utilizationCountManeuversMaintenance 100
scalar OsgEarthNet.uav[5] utilizationCountChargeState 50
scalar OsgEarthNet.uav[5] utilizationCountOverdrawnAfterMission 0
scalar OsgEarthNet.uav[5] utilizationCountIdleState 50
scalar OsgEarthNet.uav[5] utilizationFail 0
scalar OsgEarthNet.uav[5] simulationTime 259200
scalar OsgEarthNet.uav[6] utilizationSecMission 31827.428178243
scalar OsgEarthNet.uav[6] utilizationSecMaintenance 16347.709401498
scalar OsgEarthNet.uav[6] utilizationSecCharge 182340
scalar OsgEarthNet.uav[6] utilizationSecIdle 28684.86142026
scalar OsgEarthNet.uav[6] utilizationEnergyMission 151402.77951972
scalar OsgEarthNet.uav[6] utilizationEnergyMaintenance 77812.283641815
scalar OsgEarthNet.uav[6] utilizationEnergyCharge 228120.62597656
scalar OsgEarthNet.uav[6] utilizationEnergyOverdrawMission 0
scalar OsgEarthNet.uav[6] utilizationEnergyOverdrawMaintenance 0
scalar OsgEarthNet.uav[6] utilizationCountMissions 56
scalar OsgEarthNet.uav[6] utilizationCountManeuversMission 789
scalar OsgEarthNet.uav[6] utilizationCountManeuversMaintenance 113
scalar OsgEarthNet.uav[6] utilizationCountChargeState 56
scalar OsgEarthNet.uav[6] utilizationCountOverdrawnAfterMission 0
scalar OsgEarthNet.uav[6] utilizationCountIdleState 56
scalar OsgEarthNet.uav[6] utilizationFail 0
scalar OsgEarthNet.uav[6] simulationTime 259200
scalar OsgEarthNet.uav[7] utilizationSecMission 30525.302296035
scalar OsgEarthNet.uav[7] utilizationSecMaintenance 18343.84906257
scalar OsgEarthNet.uav[7] utilizationSecCharge 185836.14194236
scalar OsgEarthNet.uav[7] utilizationSecIdle 24494.705699036
scalar OsgEarthNet.uav[7] utilizationEnergyMission 145737.27878952
scalar OsgEarthNet.uav[7] utilizationEnergyMaintenance 87768.357467651
scalar OsgEarthNet.uav[7] utilizationEnergyCharge 232768.90722656
scalar OsgEarthNet.uav[7] utilizationEnergyOverdrawMission 0
scalar OsgEarthNet.uav[7] utilizationEnergyOverdrawMaintenance 0
scalar OsgEarthNet.uav[7] utilizationCountMissions 58
scalar OsgEarthNet.uav[7] utilizationCountManeuversMission 876
scalar OsgEarthNet.uav[7] utilizationCountManeuversMaintenance 116
scalar OsgEarthNet.uav[7] utilizationCountChargeState 58
scalar OsgEarthNet.uav[7] utilizationCountOverdrawnAfterMission 0
scalar OsgEarthNet.uav[7] utilizationCountIdleState 56
scalar OsgEarthNet.uav[7] utilizationFail 0
scalar OsgEarthNet.uav[7] simulationTime 259200
scalar OsgEarthNet.uav[8] utilizationSecMission 33736.280587656
scalar OsgEarthNet.uav[8] utilizationSecMaintenance 14630.735245378
scalar OsgEarthNet.uav[8] utilizationSecCharge 177026.63294615
scalar OsgEarthNet.uav[8] utilizationSecIdle 33806.350220821
scalar OsgEarthNet.uav[8] utilizationEnergyMission 162414.15019226
scalar OsgEarthNet.uav[8] utilizationEnergyMaintenance 67212.692909241
scalar OsgEarthNet.uav[8] utilizationEnergyCharge 229803.9140625
scalar OsgEarthNet.uav[8] utilizationEnergyOverdrawMission 0
scalar OsgEarthNet.uav[8] utilizationEnergyOverdrawMaintenance 0
scalar OsgEarthNet.uav[8] utilizationCountMissions 50
scalar OsgEarthNet.uav[8] utilizationCountManeuversMission 1117
scalar OsgEarthNet.uav[8] utilizationCountManeuversMaintenance 100
scalar OsgEarthNet.uav[8] utilizationCountChargeState 50
scalar OsgEarthNet.uav[8] utilizationCountOverdrawnAfterMission 0
scalar OsgEarthNet.uav[8] utilizationCountIdleState 49
scalar OsgEarthNet.uav[8] utilizationFail 0
scalar OsgEarthNet.uav[8] simulationTime 259200
scalar OsgEarthNet.uav[9] utilizationSecMission 30990.259460138
scalar OsgEarthNet.uav[9] utilizationSecMaintenance 18207.754021231
scalar OsgEarthNet.uav[9] utilizationSecCharge 185732.04225295
scalar OsgEarthNet.uav[9] utilizationSecIdle 24269.943265683
scalar OsgEarthNet.uav[9] utilizationEnergyMission 151827.92586899
scalar OsgEarthNet.uav[9] utilizationEnergyMaintenance 86053.759654999
scalar OsgEarthNet.uav[9] utilizationEnergyCharge 236401.7331543
scalar OsgEarthNet.uav[9] utilizationEnergyOverdrawMission 0
scalar OsgEarthNet.uav[9] utilizationEnergyOverdrawMaintenance 0
scalar OsgEarthNet.uav[9] utilizationCountMissions 56
scalar OsgEarthNet.uav[9] utilizationCountManeuversMission 1034
scalar OsgEarthNet.uav[9] utilizationCountManeuversMaintenance 112
scalar OsgEarthNet.uav[9] utilizationCountChargeState 56
scalar OsgEarthNet.uav[9] utilizationCountOverdrawnAfterMission 0
scalar OsgEarthNet.uav[9] utilizationCountIdleState 52
scalar OsgEarthNet.uav[9] utilizationFail 0
scalar OsgEarthNet.uav[9] simulationTime 259200
scalar OsgEarthNet.uav[10] utilizationSecMission 32964.112528609
scalar OsgEarthNet.uav[10] utilizationSecMaintenance 14347.704355856
scalar OsgEarthNet.uav[10] utilizationSecCharge 174740
scalar OsgEarthNet.uav[10] utilizationSecIdle 37148.182115535
scalar OsgEarthNet.uav[10] utilizationEnergyMission 161373.05615234
scalar OsgEarthNet.uav[10] utilizationEnergyMaintenance 66978.492550997
scalar OsgEarthNet.uav[10] utilizationEnergyCharge 226657.12792969
scalar OsgEarthNet.uav[10] utilizationEnergyOverdrawMission 0
scalar OsgEarthNet.uav[10] utilizationEnergyOverdrawMaintenance 0
scalar OsgEarthNet.uav[10] utilizationCountMissions 50
scalar OsgEarthNet.uav[10] utilizationCountManeuversMission 1225
scalar OsgEarthNet.uav[10] utilizationCountManeuversMaintenance 100
scalar OsgEarthNet.uav[10] utilizationCountChargeState 49
scalar OsgEarthNet.uav[10] utilizationCountOverdrawnAfterMission 0
scalar OsgEarthNet.uav[10] utilizationCountIdleState 50
scalar OsgEarthNet.uav[10] utilizationFail 0
scalar OsgEarthNet.uav[10] simulationTime 259200
scalar OsgEarthNet.uav[11] utilizationSecMission 32510.55649578
scalar OsgEarthNet.uav[11] utilizationSecMaintenance 15731.789917901
scalar OsgEarthNet.uav[11] utilizationSecCharge 177352.20949763
scalar OsgEarthNet.uav[11] utilizationSecIdle 33605.443088691
scalar OsgEarthNet.uav[11] utilizationEnergyMission 162386.71963501
scalar OsgEarthNet.uav[11] utilizationEnergyMaintenance 72148.754276276
scalar OsgEarthNet.uav[11] utilizationEnergyCharge 229621.84509277
scalar OsgEarthNet.uav[11] utilizationEnergyOverdrawMission 0
scalar OsgEarthNet.uav[11] utilizationEnergyOverdrawMaintenance 0
scalar OsgEarthNet.uav[11] utilizationCountMissions 51
scalar OsgEarthNet.uav[11] utilizationCountManeuversMission 1310
scalar OsgEarthNet.uav[11] utilizationCountManeuversMaintenance 102
scalar OsgEarthNet.uav[11] utilizationCountChargeState 51
scalar OsgEarthNet.uav[11] utilizationCountOverdrawnAfterMission 0
scalar OsgEarthNet.uav[11] utilizationCountIdleState 51
scalar OsgEarthNet.uav[11] utilizationFail 0
scalar OsgEarthNet.uav[11] simulationTime 259200
scalar OsgEarthNet.uav[12] utilizationSecMission 34339.505796114
scalar OsgEarthNet.uav[12] utilizationSecMaintenance 13938.493203886
scalar OsgEarthNet.uav[12] utilizationSecCharge 177710
scalar OsgEarthNet.uav[12] utilizationSecIdle 33212
scalar OsgEarthNet.uav[12] utilizationEnergyMission 165182.95760552
scalar OsgEarthNet.uav[12] utilizationEnergyMaintenance 64543.565818787
scalar OsgEarthNet.uav[12] utilizationEnergyCharge 231116.80224609
scalar OsgEarthNet.uav[12] utilizationEnergyOverdrawMission 0
scalar OsgEarthNet.uav[12] utilizationEnergyOverdrawMaintenance 0
scalar OsgEarthNet.uav[12] utilizationCountMissions 50
scalar OsgEarthNet.uav[12] utilizationCountManeuversMission 1117
scalar OsgEarthNet.uav[12] utilizationCountManeuversMaintenance 101
scalar OsgEarthNet.uav[12] utilizationCountChargeState 50
scalar OsgEarthNet.uav[12] utilizationCountOverdrawnAfterMission 0
scalar OsgEarthNet.uav[12] utilizationCountIdleState 50
scalar OsgEarthNet.uav[12] utilizationFail 0
scalar OsgEarthNet.uav[12] simulationTime 259200
scalar OsgEarthNet.uav[13] utilizationSecMission 30943.332487334
scalar OsgEarthNet.uav[13] utilizationSecMaintenance 17344.663512666
scalar OsgEarthNet.uav[13] utilizationSecCharge 183770
scalar OsgEarthNet.uav[13] utilizationSecIdle 27142.003
scalar OsgEarthNet.uav[13] utilizationEnergyMission 147341.56091994
scalar OsgEarthNet.uav[13] utilizationEnergyMaintenance 82035.384635925
scalar OsgEarthNet.uav[13] utilizationEnergyCharge 227103.91870117
scalar OsgEarthNet.uav[13] utilizationEnergyOverdrawMission 0
scalar OsgEarthNet.uav[13] utilizationEnergyOverdrawMaintenance 0
scalar OsgEarthNet.uav[13] utilizationCountMissions 58
scalar OsgEarthNet.uav[13] utilizationCountManeuversMission 807
scalar OsgEarthNet.uav[13] utilizationCountManeuversMaintenance 117
scalar OsgEarthNet.uav[13] utilizationCountChargeState 58
scalar OsgEarthNet.uav[13] utilizationCountOverdrawnAfterMission 0
scalar OsgEarthNet.uav[13] utilizationCountIdleState 57
scalar OsgEarthNet.uav[13] utilizationFail 0
scalar OsgEarthNet.uav[13] simulationTime 259200
scalar OsgEarthNet.uav[14] utilizationSecMission 32217.780259463
scalar OsgEarthNet.uav[14] utilizationSecMaintenance 15059.220204251
scalar OsgEarthNet.uav[14] utilizationSecCharge 177550
scalar OsgEarthNet.uav[14] utilizationSecIdle 34372.998536286
scalar OsgEarthNet.uav[14] utilizationEnergyMission 157008.88502884
scalar OsgEarthNet.uav[14] utilizationEnergyMaintenance 69546.166110992
scalar OsgEarthNet.uav[14] utilizationEnergyCharge 229826.54736328
scalar OsgEarthNet.uav[14] utilizationEnergyOverdrawMission 0
scalar OsgEarthNet.uav[14] utilizationEnergyOverdrawMaintenance 0
scalar OsgEarthNet.uav[14] utilizationCountMissions 50
scalar OsgEarthNet.uav[14] utilizationCountManeuversMission 1177
scalar OsgEarthNet.uav[14] utilizationCountManeuversMaintenance 100
scalar OsgEarthNet.uav[14] utilizationCountChargeState 50
scalar OsgEarthNet.uav[14] utilizationCountOverdrawnAfterMission 0
scalar OsgEarthNet.uav[14] utilizationCountIdleState 51
scalar OsgEarthNet.uav[14] utilizationFail 0
scalar OsgEarthNet.uav[14] simulationTime 259200
scalar OsgEarthNet.uav[15] utilizationSecMission 34246.79387501
scalar OsgEarthNet.uav[15] utilizationSecMaintenance 14891.709780661
scalar OsgEarthNet.uav[15] utilizationSecCharge 178139.49334433
scalar OsgEarthNet.uav[15] utilizationSecIdle 31922.002
scalar OsgEarthNet.uav[15] utilizationEnergyMission 169135.38874054
scalar OsgEarthNet.uav[15] utilizationEnergyMaintenance 68821.732700348
scalar OsgEarthNet.uav[15] utilizationEnergyCharge 231261.24536133
scalar OsgEarthNet.uav[15] utilizationEnergyOverdrawMission 0
scalar OsgEarthNet.uav[15] utilizationEnergyOverdrawMaintenance 0
scalar OsgEarthNet.uav[15] utilizationCountMissions 51
scalar OsgEarthNet.uav[15] utilizationCountManeuversMission 1150
scalar OsgEarthNet.uav[15] utilizationCountManeuversMaintenance 102
scalar OsgEarthNet.uav[15] utilizationCountChargeState 51
scalar OsgEarthNet.uav[15] utilizationCountOverdrawnAfterMission 0
scalar OsgEarthNet.uav[15] utilizationCountIdleState 50
scalar OsgEarthNet.uav[15] utilizationFail 0
scalar OsgEarthNet.uav[15] simulationTime 259200
scalar OsgEarthNet.uav[16] utilizationSecMission 32298.514709791
scalar OsgEarthNet.uav[16] utilizationSecMaintenance 16607.049214262
scalar OsgEarthNet.uav[16] utilizationSecCharge 185300
scalar OsgEarthNet.uav[16] utilizationSecIdle 24994.435075947
scalar OsgEarthNet.uav[16] utilizationEnergyMission 152870.89721298
scalar OsgEarthNet.uav[16] utilizationEnergyMaintenance 78915.949577136
scalar OsgEarthNet.uav[16] utilizationEnergyCharge 232211.73364258
scalar OsgEarthNet.uav[16] utilizationEnergyOverdrawMission 0
scalar OsgEarthNet.uav[16] utilizationEnergyOverdrawMaintenance 0
scalar OsgEarthNet.uav[16] utilizationCountMissions 57
scalar OsgEarthNet.uav[16] utilizationCountManeuversMission 763
scalar OsgEarthNet.uav[16] utilizationCountManeuversMaintenance 115
scalar OsgEarthNet.uav[16] utilizationCountChargeState 57
scalar OsgEarthNet.uav[16] utilizationCountOverdrawnAfterMission 0
scalar OsgEarthNet.uav[16] utilizationCountIdleState 54
scalar OsgEarthNet.uav[16] utilizationFail 0
scalar OsgEarthNet.uav[16] simulationTime 259200
scalar OsgEarthNet.uav[17] utilizationSecMission 31433.097370295
scalar OsgEarthNet.uav[17] utilizationSecMaintenance 19043.155111327
scalar OsgEarthNet.uav[17] utilizationSecCharge 189369.13462886
scalar OsgEarthNet.uav[17] utilizationSecIdle 19354.611889516
scalar OsgEarthNet.uav[17] utilizationEnergyMission 151486.49640274
scalar OsgEarthNet.uav[17] utilizationEnergyMaintenance 90030.662345886
scalar OsgEarthNet.uav[17] utilizationEnergyCharge 240540.57788086
scalar OsgEarthNet.uav[17] utilizationEnergyOverdrawMission 0
scalar OsgEarthNet.uav[17] utilizationEnergyOverdrawMaintenance 0
scalar OsgEarthNet.uav[17] utilizationCountMissions 57
scalar OsgEarthNet.uav[17] utilizationCountManeuversMission 1056
scalar OsgEarthNet.uav[17] utilizationCountManeuversMaintenance 114
scalar OsgEarthNet.uav[17] utilizationCountChargeState 57
scalar OsgEarthNet.uav[17] utilizationCountOverdrawnAfterMission 0
scalar OsgEarthNet.uav[17] utilizationCountIdleState 56
scalar OsgEarthNet.uav[17] utilizationFail 0
scalar OsgEarthNet.uav[17] simulationTime 259200
scalar OsgEarthNet.uav[18] utilizationSecMission 35655.44598081
scalar OsgEarthNet.uav[18] utilizationSecMaintenance 13345.656644047
scalar OsgEarthNet.uav[18] utilizationSecCharge 177510
scalar OsgEarthNet.uav[18] utilizationSecIdle 32688.896375144
scalar OsgEarthNet.uav[18] utilizationEnergyMission 171969.04070529
scalar OsgEarthNet.uav[18] utilizationEnergyMaintenance 61009.363945007
scalar OsgEarthNet.uav[18] utilizationEnergyCharge 230679.87597656
scalar OsgEarthNet.uav[18] utilizationEnergyOverdrawMission 0
scalar OsgEarthNet.uav[18] utilizationEnergyOverdrawMaintenance 0
scalar OsgEarthNet.uav[18] utilizationCountMissions 50
scalar OsgEarthNet.uav[18] utilizationCountManeuversMission 1076
scalar OsgEarthNet.uav[18] utilizationCountManeuversMaintenance 101
scalar OsgEarthNet.uav[18] utilizationCountChargeState 50
scalar OsgEarthNet.uav[18] utilizationCountOverdrawnAfterMission 0
scalar OsgEarthNet.uav[18] utilizationCountIdleState 50
scalar OsgEarthNet.uav[18] utilizationFail 0
scalar OsgEarthNet.uav[18] simulationTime 259200
scalar OsgEarthNet.uav[19] utilizationSecMission 33804.745623176
scalar OsgEarthNet.uav[19] utilizationSecMaintenance 20590.87690509
scalar OsgEarthNet.uav[19] utilizationSecCharge 193932.36547173
scalar OsgEarthNet.uav[19] utilizationSecIdle 10872.011
scalar OsgEarthNet.uav[19] utilizationEnergyMission 163813.80429077
scalar OsgEarthNet.uav[19] utilizationEnergyMaintenance 97576.469699859
scalar OsgEarthNet.uav[19] utilizationEnergyCharge 259548.62548828
scalar OsgEarthNet.uav[19] utilizationEnergyOverdrawMission 0
scalar OsgEarthNet.uav[19] utilizationEnergyOverdrawMaintenance 0
scalar OsgEarthNet.uav[19] utilizationCountMissions 58
scalar OsgEarthNet.uav[19] utilizationCountManeuversMission 1070
scalar OsgEarthNet.uav[19] utilizationCountManeuversMaintenance 116
scalar OsgEarthNet.uav[19] utilizationCountChargeState 58
scalar OsgEarthNet.uav[19] utilizationCountOverdrawnAfterMission 0
scalar OsgEarthNet.uav[19] utilizationCountIdleState 24
scalar OsgEarthNet.uav[19] utilizationFail 0
scalar OsgEarthNet.uav[19] simulationTime 259200
scalar OsgEarthNet.uav[20] utilizationSecMission 35919.379729989
scalar OsgEarthNet.uav[20] utilizationSecMaintenance 18942.820994485
scalar OsgEarthNet.uav[20] utilizationSecCharge 193085.97654421
scalar OsgEarthNet.uav[20] utilizationSecIdle 11251.821731318
scalar OsgEarthNet.uav[20] utilizationEnergyMission 172368.90363312
scalar OsgEarthNet.uav[20] utilizationEnergyMaintenance 89888.740501404
scalar OsgEarthNet.uav[20] utilizationEnergyCharge 258674.5501709
scalar OsgEarthNet.uav[20] utilizationEnergyOverdrawMission 0
scalar OsgEarthNet.uav[20] utilizationEnergyOverdrawMaintenance 0
scalar OsgEarthNet.uav[20] utilizationCountMissions 58
scalar OsgEarthNet.uav[20] utilizationCountManeuversMission 989
scalar OsgEarthNet.uav[20] utilizationCountManeuversMaintenance 116
scalar OsgEarthNet.uav[20] utilizationCountChargeState 58
scalar OsgEarthNet.uav[20] utilizationCountOverdrawnAfterMission 0
scalar OsgEarthNet.uav[20] utilizationCountIdleState 29
scalar OsgEarthNet.uav[20] utilizationFail 0
scalar OsgEarthNet.uav[20] simulationTime 259200
scalar OsgEarthNet.uav[21] utilizationSecMission 31486.122440421
scalar OsgEarthNet.uav[21] utilizationSecMaintenance 18009.823384479
scalar OsgEarthNet.uav[21] utilizationSecCharge 187712.0531751
scalar OsgEarthNet.uav[21] utilizationSecIdle 21992
scalar OsgEarthNet.uav[21] utilizationEnergyMission 153969.48174286
scalar OsgEarthNet.uav[21] utilizationEnergyMaintenance 85244.95142746
scalar OsgEarthNet.uav[21] utilizationEnergyCharge 237767.77807617
scalar OsgEarthNet.uav[21] utilizationEnergyOverdrawMission 0
scalar OsgEarthNet.uav[21] utilizationEnergyOverdrawMaintenance 0
scalar OsgEarthNet.uav[21] utilizationCountMissions 57
scalar OsgEarthNet.uav[21] utilizationCountManeuversMission 980
scalar OsgEarthNet.uav[21] utilizationCountManeuversMaintenance 114
scalar OsgEarthNet.uav[21] utilizationCountChargeState 57
scalar OsgEarthNet.uav[21] utilizationCountOverdrawnAfterMission 0
scalar OsgEarthNet.uav[21] utilizationCountIdleState 56
scalar OsgEarthNet.uav[21] utilizationFail 0
scalar OsgEarthNet.uav[21] simulationTime 259200
scalar OsgEarthNet.uav[22] utilizationSecMission 35296.11954425
scalar OsgEarthNet.uav[22] utilizationSecMaintenance 13477.004381856
scalar OsgEarthNet.uav[22] utilizationSecCharge 176044.87507389
scalar OsgEarthNet.uav[22] utilizationSecIdle 34382
scalar OsgEarthNet.uav[22] utilizationEnergyMission 169018.935112
scalar OsgEarthNet.uav[22] utilizationEnergyMaintenance 61786.578086853
scalar OsgEarthNet.uav[22] utilizationEnergyCharge 229140.80810547
scalar OsgEarthNet.uav[22] utilizationEnergyOverdrawMission 0
scalar OsgEarthNet.uav[22] utilizationEnergyOverdrawMaintenance 0
scalar OsgEarthNet.uav[22] utilizationCountMissions 50
scalar OsgEarthNet.uav[22] utilizationCountManeuversMission 1035
scalar OsgEarthNet.uav[22] utilizationCountManeuversMaintenance 100
scalar OsgEarthNet.uav[22] utilizationCountChargeState 50
scalar OsgEarthNet.uav[22] utilizationCountOverdrawnAfterMission 0
scalar OsgEarthNet.uav[22] utilizationCountIdleState 49
scalar OsgEarthNet.uav[22] utilizationFail 0
scalar OsgEarthNet.uav[22] simulationTime 259200
scalar OsgEarthNet.uav[23] utilizationSecMission 30906.876678383
scalar OsgEarthNet.uav[23] utilizationSecMaintenance 24485.738110397
scalar OsgEarthNet.uav[23] utilizationSecCharge 198525.38221122
scalar OsgEarthNet.uav[23] utilizationSecIdle 5282.002
scalar OsgEarthNet.uav[23] utilizationEnergyMission 154510.82594299
scalar OsgEarthNet.uav[23] utilizationEnergyMaintenance 115835.88212585
scalar OsgEarthNet.uav[23] utilizationEnergyCharge 269875.59082031
scalar OsgEarthNet.uav[23] utilizationEnergyOverdrawMission 0
scalar OsgEarthNet.uav[23] utilizationEnergyOverdrawMaintenance 0
scalar OsgEarthNet.uav[23] utilizationCountMissions 60
scalar OsgEarthNet.uav[23] utilizationCountManeuversMission 1259
scalar OsgEarthNet.uav[23] utilizationCountManeuversMaintenance 120
scalar OsgEarthNet.uav[23] utilizationCountChargeState 60
scalar OsgEarthNet.uav[23] utilizationCountOverdrawnAfterMission 0
scalar OsgEarthNet.uav[23] utilizationCountIdleState 14
scalar OsgEarthNet.uav[23] utilizationFail 0
scalar OsgEarthNet.uav[23] simulationTime 259200
scalar OsgEarthNet.uav[24] utilizationSecMission 31263.416801227
scalar OsgEarthNet.uav[24] utilizationSecMaintenance 17498.184372099
scalar OsgEarthNet.uav[24] utilizationSecCharge 185241.08174484
scalar OsgEarthNet.uav[24] utilizationSecIdle 25197.316081831
scalar OsgEarthNet.uav[24] utilizationEnergyMission 149960.69011307
scalar OsgEarthNet.uav[24] utilizationEnergyMaintenance 82902.959934235
scalar OsgEarthNet.uav[24] utilizationEnergyCharge 231802.57763672
scalar OsgEarthNet.uav[24] utilizationEnergyOverdrawMission 0
scalar OsgEarthNet.uav[24] utilizationEnergyOverdrawMaintenance 0
scalar OsgEarthNet.uav[24] utilizationCountMissions 58
scalar OsgEarthNet.uav[24] utilizationCountManeuversMission 827
scalar OsgEarthNet.uav[24] utilizationCountManeuversMaintenance 116
scalar OsgEarthNet.uav[24] utilizationCountChargeState 58
scalar OsgEarthNet.uav[24] utilizationCountOverdrawnAfterMission 0
scalar OsgEarthNet.uav[24] utilizationCountIdleState 52
scalar OsgEarthNet.uav[24] utilizationFail 0
scalar OsgEarthNet.uav[24] simulationTime 259200
scalar OsgEarthNet.uav[25] utilizationSecMission 34540.432699327
scalar OsgEarthNet.uav[25] utilizationSecMaintenance 14598.10980183
scalar OsgEarthNet.uav[25] utilizationSecCharge 179802.03115155
scalar OsgEarthNet.uav[25] utilizationSecIdle 30259.42534729
scalar OsgEarthNet.uav[25] utilizationEnergyMission 168328.64464951
scalar OsgEarthNet.uav[25] utilizationEnergyMaintenance 66846.712558746
scalar OsgEarthNet.uav[25] utilizationEnergyCharge 233581.75878906
scalar OsgEarthNet.uav[25] utilizationEnergyOverdrawMission 0
scalar OsgEarthNet.uav[25] utilizationEnergyOverdrawMaintenance 0
scalar OsgEarthNet.uav[25] utilizationCountMissions 51
scalar OsgEarthNet.uav[25] utilizationCountManeuversMission 1082
scalar OsgEarthNet.uav[25] utilizationCountManeuversMaintenance 102
scalar OsgEarthNet.uav[25] utilizationCountChargeState 51
scalar OsgEarthNet.uav[25] utilizationCountOverdrawnAfterMission 0
scalar OsgEarthNet.uav[25] utilizationCountIdleState 51
scalar OsgEarthNet.uav[25] utilizationFail 0
scalar OsgEarthNet.uav[25] simulationTime 259200
scalar OsgEarthNet.uav[26] utilizationSecMission 32450.002441285
scalar OsgEarthNet.uav[26] utilizationSecMaintenance 23127.143204861
scalar OsgEarthNet.uav[26] utilizationSecCharge 197510.85235385
scalar OsgEarthNet.uav[26] utilizationSecIdle 6112.001
scalar OsgEarthNet.uav[26] utilizationEnergyMission 160047.29761124
scalar OsgEarthNet.uav[26] utilizationEnergyMaintenance 110519.86076355
scalar OsgEarthNet.uav[26] utilizationEnergyCharge 267832.49511719
scalar OsgEarthNet.uav[26] utilizationEnergyOverdrawMission 0
scalar OsgEarthNet.uav[26] utilizationEnergyOverdrawMaintenance 0
scalar OsgEarthNet.uav[26] utilizationCountMissions 60
scalar OsgEarthNet.uav[26] utilizationCountManeuversMission 1206
scalar OsgEarthNet.uav[26] utilizationCountManeuversMaintenance 120
scalar OsgEarthNet.uav[26] utilizationCountChargeState 60
scalar OsgEarthNet.uav[26] utilizationCountOverdrawnAfterMission 0
scalar OsgEarthNet.uav[26] utilizationCountIdleState 17
scalar OsgEarthNet.uav[26] utilizationFail 0
scalar OsgEarthNet.uav[26] simulationTime 259200
scalar OsgEarthNet.uav[27] utilizationSecMission 31502.336019083
scalar OsgEarthNet.uav[27] utilizationSecMaintenance 17376.624722921
scalar OsgEarthNet.uav[27] utilizationSecCharge 184802.68465512
scalar OsgEarthNet.uav[27] utilizationSecIdle 25518.353602879
scalar OsgEarthNet.uav[27] utilizationEnergyMission 151165.23516083
scalar OsgEarthNet.uav[27] utilizationEnergyMaintenance 83392.538791656
scalar OsgEarthNet.uav[27] utilizationEnergyCharge 230674.82055664
scalar OsgEarthNet.uav[27] utilizationEnergyOverdrawMission 0
scalar OsgEarthNet.uav[27] utilizationEnergyOverdrawMaintenance 0
scalar OsgEarthNet.uav[27] utilizationCountMissions 58
scalar OsgEarthNet.uav[27] utilizationCountManeuversMission 871
scalar OsgEarthNet.uav[27] utilizationCountManeuversMaintenance 116
scalar OsgEarthNet.uav[27] utilizationCountChargeState 58
scalar OsgEarthNet.uav[27] utilizationCountOverdrawnAfterMission 0
scalar OsgEarthNet.uav[27] utilizationCountIdleState 57
scalar OsgEarthNet.uav[27] utilizationFail 0
scalar OsgEarthNet.uav[27] simulationTime 259200
scalar OsgEarthNet.uav[28] utilizationSecMission 33984.040713206
scalar OsgEarthNet.uav[28] utilizationSecMaintenance 14747.745914229
scalar OsgEarthNet.uav[28] utilizationSecCharge 180080
scalar OsgEarthNet.uav[28] utilizationSecIdle 30388.212372565
scalar OsgEarthNet.uav[28] utilizationEnergyMission 165260.15800608
scalar OsgEarthNet.uav[28] utilizationEnergyMaintenance 68058.324954987
scalar OsgEarthNet.uav[28] utilizationEnergyCharge 233569.45410156
scalar OsgEarthNet.uav[28] utilizationEnergyOverdrawMission 0
scalar OsgEarthNet.uav[28] utilizationEnergyOverdrawMaintenance 0
scalar OsgEarthNet.uav[28] utilizationCountMissions 51
scalar OsgEarthNet.uav[28] utilizationCountManeuversMission 1162
scalar OsgEarthNet.uav[28] utilizationCountManeuversMaintenance 101
scalar OsgEarthNet.uav[28] utilizationCountChargeState 51
scalar OsgEarthNet.uav[28] utilizationCountOverdrawnAfterMission 0
scalar OsgEarthNet.uav[28] utilizationCountIdleState 51
scalar OsgEarthNet.uav[28] utilizationFail 0
scalar OsgEarthNet.uav[28] simulationTime 259200
scalar OsgEarthNet.uav[29] utilizationSecMission 33721.141055066
scalar OsgEarthNet.uav[29] utilizationSecMaintenance 14356.469539126
scalar OsgEarthNet.uav[29] utilizationSecCharge 176201.43915014
scalar OsgEarthNet.uav[29] utilizationSecIdle 34920.949255665
scalar OsgEarthNet.uav[29] utilizationEnergyMission 162687.32279968
scalar OsgEarthNet.uav[29] utilizationEnergyMaintenance 66248.951713562
scalar OsgEarthNet.uav[29] utilizationEnergyCharge 229095.52514648
scalar OsgEarthNet.uav[29] utilizationEnergyOverdrawMission 0
scalar OsgEarthNet.uav[29] utilizationEnergyOverdrawMaintenance 0
scalar OsgEarthNet.uav[29] utilizationCountMissions 50
scalar OsgEarthNet.uav[29] utilizationCountManeuversMission 1057
scalar OsgEarthNet.uav[29] utilizationCountManeuversMaintenance 100
scalar OsgEarthNet.uav[29] utilizationCountChargeState 50
scalar OsgEarthNet.uav[29] utilizationCountOverdrawnAfterMission 0
scalar OsgEarthNet.uav[29] utilizationCountIdleState 50
scalar OsgEarthNet.uav[29] utilizationFail 0
scalar OsgEarthNet.uav[29] simulationTime 259200
scalar OsgEarthNet.uav[30] utilizationSecMission 34171.426700747
scalar OsgEarthNet.uav[30] utilizationSecMaintenance 20996.567299253
scalar OsgEarthNet.uav[30] utilizationSecCharge 195620
scalar OsgEarthNet.uav[30] utilizationSecIdle 8412.005
scalar OsgEarthNet.uav[30] utilizationEnergyMission 165938.63819997
scalar OsgEarthNet.uav[30] utilizationEnergyMaintenance 99213.687767029
scalar OsgEarthNet.uav[30] utilizationEnergyCharge 263678.72998047
scalar OsgEarthNet.uav[30] utilizationEnergyOverdrawMission 0
scalar OsgEarthNet.uav[30] utilizationEnergyOverdrawMaintenance 0
scalar OsgEarthNet.uav[30] utilizationCountMissions 58
scalar OsgEarthNet.uav[30] utilizationCountManeuversMission 1075
scalar OsgEarthNet.uav[30] utilizationCountManeuversMaintenance 117
scalar OsgEarthNet.uav[30] utilizationCountChargeState 58
scalar OsgEarthNet.uav[30] utilizationCountOverdrawnAfterMission 0
scalar OsgEarthNet.uav[30] utilizationCountIdleState 24
scalar OsgEarthNet.uav[30] utilizationFail 0
scalar OsgEarthNet.uav[30] simulationTime 259200
scalar OsgEarthNet.uav[31] utilizationSecMission 30778.353445294
scalar OsgEarthNet.uav[31] utilizationSecMaintenance 17829.644047984
scalar OsgEarthNet.uav[31] utilizationSecCharge 187530
scalar OsgEarthNet.uav[31] utilizationSecIdle 23062.001506722
scalar OsgEarthNet.uav[31] utilizationEnergyMission 148985.1042595
scalar OsgEarthNet.uav[31] utilizationEnergyMaintenance 84869.257785797
scalar OsgEarthNet.uav[31] utilizationEnergyCharge 233716.82373047
scalar OsgEarthNet.uav[31] utilizationEnergyOverdrawMission 0
scalar OsgEarthNet.uav[31] utilizationEnergyOverdrawMaintenance 0
scalar OsgEarthNet.uav[31] utilizationCountMissions 58
scalar OsgEarthNet.uav[31] utilizationCountManeuversMission 869
scalar OsgEarthNet.uav[31] utilizationCountManeuversMaintenance 117
scalar OsgEarthNet.uav[31] utilizationCountChargeState 58
scalar OsgEarthNet.uav[31] utilizationCountOverdrawnAfterMission 0
scalar OsgEarthNet.uav[31] utilizationCountIdleState 56
scalar OsgEarthNet.uav[31] utilizationFail 0
scalar OsgEarthNet.uav[31] simulationTime 259200
scalar OsgEarthNet.uav[32] utilizationSecMission 34052.356549204
scalar OsgEarthNet.uav[32] utilizationSecMaintenance 15536.612539231
scalar OsgEarthNet.uav[32] utilizationSecCharge 180699.02991156
scalar OsgEarthNet.uav[32] utilizationSecIdle 28912
scalar OsgEarthNet.uav[32] utilizationEnergyMission 167961.22378034
scalar OsgEarthNet.uav[32] utilizationEnergyMaintenance 72534.40687561
scalar OsgEarthNet.uav[32] utilizationEnergyCharge 234729.37664795
scalar OsgEarthNet.uav[32] utilizationEnergyOverdrawMission 0
scalar OsgEarthNet.uav[32] utilizationEnergyOverdrawMaintenance 0
scalar OsgEarthNet.uav[32] utilizationCountMissions 52
scalar OsgEarthNet.uav[32] utilizationCountManeuversMission 1117
scalar OsgEarthNet.uav[32] utilizationCountManeuversMaintenance 103
scalar OsgEarthNet.uav[32] utilizationCountChargeState 52
scalar OsgEarthNet.uav[32] utilizationCountOverdrawnAfterMission 0
scalar OsgEarthNet.uav[32] utilizationCountIdleState 51
scalar OsgEarthNet.uav[32] utilizationFail 0
scalar OsgEarthNet.uav[32] simulationTime 259200
scalar OsgEarthNet.uav[33] utilizationSecMission 31760.369555114
scalar OsgEarthNet.uav[33] utilizationSecMaintenance 22185.880940352
scalar OsgEarthNet.uav[33] utilizationSecCharge 194271.300618
scalar OsgEarthNet.uav[33] utilizationSecIdle 10982.44788653
scalar OsgEarthNet.uav[33] utilizationEnergyMission 157264.61301041
scalar OsgEarthNet.uav[33] utilizationEnergyMaintenance 105788.39092255
scalar OsgEarthNet.uav[33] utilizationEnergyCharge 262283.18066406
scalar OsgEarthNet.uav[33] utilizationEnergyOverdrawMission 0
scalar OsgEarthNet.uav[33] utilizationEnergyOverdrawMaintenance 0
scalar OsgEarthNet.uav[33] utilizationCountMissions 58
scalar OsgEarthNet.uav[33] utilizationCountManeuversMission 1150
scalar OsgEarthNet.uav[33] utilizationCountManeuversMaintenance 116
scalar OsgEarthNet.uav[33] utilizationCountChargeState 58
scalar OsgEarthNet.uav[33] utilizationCountOverdrawnAfterMission 0
scalar OsgEarthNet.uav[33] utilizationCountIdleState 21
scalar OsgEarthNet.uav[33] utilizationFail 0
scalar OsgEarthNet.uav[33] simulationTime 259200
scalar OsgEarthNet.uav[34] utilizationSecMission 29039.337363412
scalar OsgEarthNet.uav[34] utilizationSecMaintenance 18792.720693473
scalar OsgEarthNet.uav[34] utilizationSecCharge 186015.93494311
scalar OsgEarthNet.uav[34] utilizationSecIdle 25352.006
scalar OsgEarthNet.uav[34] utilizationEnergyMission 142914.2699852
scalar OsgEarthNet.uav[34] utilizationEnergyMaintenance 89407.099937439
scalar OsgEarthNet.uav[34] utilizationEnergyCharge 232456.33422852
scalar OsgEarthNet.uav[34] utilizationEnergyOverdrawMission 0
scalar OsgEarthNet.uav[34] utilizationEnergyOverdrawMaintenance 0
scalar OsgEarthNet.uav[34] utilizationCountMissions 58
scalar OsgEarthNet.uav[34] utilizationCountManeuversMission 973
scalar OsgEarthNet.uav[34] utilizationCountManeuversMaintenance 116
scalar OsgEarthNet.uav[34] utilizationCountChargeState 58
scalar OsgEarthNet.uav[34] utilizationCountOverdrawnAfterMission 0
scalar OsgEarthNet.uav[34] utilizationCountIdleState 55
scalar OsgEarthNet.uav[34] utilizationFail 0
scalar OsgEarthNet.uav[34] simulationTime 259200
scalar OsgEarthNet.uav[35] utilizationSecMission 35367.88232454
scalar OsgEarthNet.uav[35] utilizationSecMaintenance 13437.685668171
scalar OsgEarthNet.uav[35] utilizationSecCharge 176068.97535067
scalar OsgEarthNet.uav[35] utilizationSecIdle 34325.45565662
scalar OsgEarthNet.uav[35] utilizationEnergyMission 172005.75625992
scalar OsgEarthNet.uav[35] utilizationEnergyMaintenance 62128.634506226
scalar OsgEarthNet.uav[35] utilizationEnergyCharge 228938.95581055
scalar OsgEarthNet.uav[35] utilizationEnergyOverdrawMission 0
scalar OsgEarthNet.uav[35] utilizationEnergyOverdrawMaintenance 0
scalar OsgEarthNet.uav[35] utilizationCountMissions 50
scalar OsgEarthNet.uav[35] utilizationCountManeuversMission 1132
scalar OsgEarthNet.uav[35] utilizationCountManeuversMaintenance 100
scalar OsgEarthNet.uav[35] utilizationCountChargeState 50
scalar OsgEarthNet.uav[35] utilizationCountOverdrawnAfterMission 0
scalar OsgEarthNet.uav[35] utilizationCountIdleState 50
scalar OsgEarthNet.uav[35] utilizationFail 0
scalar OsgEarthNet.uav[35] simulationTime 259200
scalar OsgEarthNet.uav[36] utilizationSecMission 33131.877899025
scalar OsgEarthNet.uav[36] utilizationSecMaintenance 21806.112100975
scalar OsgEarthNet.uav[36] utilizationSecCharge 194980
scalar OsgEarthNet.uav[36] utilizationSecIdle 9282.009
scalar OsgEarthNet.uav[36] utilizationEnergyMission 163219.91743088
scalar OsgEarthNet.uav[36] utilizationEnergyMaintenance 103482.20042022
scalar OsgEarthNet.uav[36] utilizationEnergyCharge 260636.50585938
scalar OsgEarthNet.uav[36] utilizationEnergyOverdrawMission 0
scalar OsgEarthNet.uav[36] utilizationEnergyOverdrawMaintenance 0
scalar OsgEarthNet.uav[36] utilizationCountMissions 58
scalar OsgEarthNet.uav[36] utilizationCountManeuversMission 1162
scalar OsgEarthNet.uav[36] utilizationCountManeuversMaintenance 117
scalar OsgEarthNet.uav[36] utilizationCountChargeState 58
scalar OsgEarthNet.uav[36] utilizationCountOverdrawnAfterMission 0
scalar OsgEarthNet.uav[36] utilizationCountIdleState 24
scalar OsgEarthNet.uav[36] utilizationFail 0
scalar OsgEarthNet.uav[36] simulationTime 259200
scalar OsgEarthNet.uav[37] utilizationSecMission 32243.115763943
scalar OsgEarthNet.uav[37] utilizationSecMaintenance 16585.56458681
scalar OsgEarthNet.uav[37] utilizationSecCharge 181389.31664925
scalar OsgEarthNet.uav[37] utilizationSecIdle 28982.002
scalar OsgEarthNet.uav[37] utilizationEnergyMission 154820.28588104
scalar OsgEarthNet.uav[37] utilizationEnergyMaintenance 78392.423805237
scalar OsgEarthNet.uav[37] utilizationEnergyCharge 231854.20977783
scalar OsgEarthNet.uav[37] utilizationEnergyOverdrawMission 0
scalar OsgEarthNet.uav[37] utilizationEnergyOverdrawMaintenance 0
scalar OsgEarthNet.uav[37] utilizationCountMissions 54
scalar OsgEarthNet.uav[37] utilizationCountManeuversMission 1008
scalar OsgEarthNet.uav[37] utilizationCountManeuversMaintenance 108
scalar OsgEarthNet.uav[37] utilizationCountChargeState 54
scalar OsgEarthNet.uav[37] utilizationCountOverdrawnAfterMission 0
scalar OsgEarthNet.uav[37] utilizationCountIdleState 52
scalar OsgEarthNet.uav[37] utilizationFail 0
scalar OsgEarthNet.uav[37] simulationTime 259200
scalar OsgEarthNet.uav[38] utilizationSecMission 34318.541952383
scalar OsgEarthNet.uav[38] utilizationSecMaintenance 14474.340054652
scalar OsgEarthNet.uav[38] utilizationSecCharge 177455.11499296
scalar OsgEarthNet.uav[38] utilizationSecIdle 32952.002
scalar OsgEarthNet.uav[38] utilizationEnergyMission 166881.01313019
scalar OsgEarthNet.uav[38] utilizationEnergyMaintenance 66879.241764069
scalar OsgEarthNet.uav[38] utilizationEnergyCharge 230378.5133667
scalar OsgEarthNet.uav[38] utilizationEnergyOverdrawMission 0
scalar OsgEarthNet.uav[38] utilizationEnergyOverdrawMaintenance 0
scalar OsgEarthNet.uav[38] utilizationCountMissions 51
scalar OsgEarthNet.uav[38] utilizationCountManeuversMission 1168
scalar OsgEarthNet.uav[38] utilizationCountManeuversMaintenance 102
scalar OsgEarthNet.uav[38] utilizationCountChargeState 51
scalar OsgEarthNet.uav[38] utilizationCountOverdrawnAfterMission 0
scalar OsgEarthNet.uav[38] utilizationCountIdleState 50
scalar OsgEarthNet.uav[38] utilizationFail 0
scalar OsgEarthNet.uav[38] simulationTime 259200
scalar OsgEarthNet.uav[39] utilizationSecMission 29285.19914925
scalar OsgEarthNet.uav[39] utilizationSecMaintenance 18692.79185075
scalar OsgEarthNet.uav[39] utilizationSecCharge 183940
scalar OsgEarthNet.uav[39] utilizationSecIdle 27282.008
scalar OsgEarthNet.uav[39] utilizationEnergyMission 141157.22090912
scalar OsgEarthNet.uav[39] utilizationEnergyMaintenance 89758.916050706
scalar OsgEarthNet.uav[39] utilizationEnergyCharge 227037.53613281
scalar OsgEarthNet.uav[39] utilizationEnergyOverdrawMission 0
scalar OsgEarthNet.uav[39] utilizationEnergyOverdrawMaintenance 0
scalar OsgEarthNet.uav[39] utilizationCountMissions 59
scalar OsgEarthNet.uav[39] utilizationCountManeuversMission 927
scalar OsgEarthNet.uav[39] utilizationCountManeuversMaintenance 118
scalar OsgEarthNet.uav[39] utilizationCountChargeState 58
scalar OsgEarthNet.uav[39] utilizationCountOverdrawnAfterMission 0
scalar OsgEarthNet.uav[39] utilizationCountIdleState 59
scalar OsgEarthNet.uav[39] utilizationFail 0
scalar OsgEarthNet.uav[39] simulationTime 259200
scalar OsgEarthNet.uav[40] utilizationSecMission 31047.325052093
scalar OsgEarthNet.uav[40] utilizationSecMaintenance 18011.97967739
scalar OsgEarthNet.uav[40] utilizationSecCharge 186438.69427052
scalar OsgEarthNet.uav[40] utilizationSecIdle 23702
scalar OsgEarthNet.uav[40] utilizationEnergyMission 149150.82809448
scalar OsgEarthNet.uav[40] utilizationEnergyMaintenance 85168.028495789
scalar OsgEarthNet.uav[40] utilizationEnergyCharge 233293.69311523
scalar OsgEarthNet.uav[40] utilizationEnergyOverdrawMission 0
scalar OsgEarthNet.uav[40] utilizationEnergyOverdrawMaintenance 0
scalar OsgEarthNet.uav[40] utilizationCountMissions 58
scalar OsgEarthNet.uav[40] utilizationCountManeuversMission 823
scalar OsgEarthNet.uav[40] utilizationCountManeuversMaintenance 116
scalar OsgEarthNet.uav[40] utilizationCountChargeState 58
scalar OsgEarthNet.uav[40] utilizationCountOverdrawnAfterMission 0
scalar OsgEarthNet.uav[40] utilizationCountIdleState 57
scalar OsgEarthNet.uav[40] utilizationFail 0
scalar OsgEarthNet.uav[40] simulationTime 259200
scalar OsgEarthNet.uav[41] utilizationSecMission 31653.526401742
scalar OsgEarthNet.uav[41] utilizationSecMaintenance 18117.4901995
scalar OsgEarthNet.uav[41] utilizationSecCharge 187156.98139876
scalar OsgEarthNet.uav[41] utilizationSecIdle 22272.001
scalar OsgEarthNet.uav[41] utilizationEnergyMission 152100.1435051
scalar OsgEarthNet.uav[41] utilizationEnergyMaintenance 85948.305534363
scalar OsgEarthNet.uav[41] utilizationEnergyCharge 235877.27526855
scalar OsgEarthNet.uav[41] utilizationEnergyOverdrawMission 0
scalar OsgEarthNet.uav[41] utilizationEnergyOverdrawMaintenance 0
scalar OsgEarthNet.uav[41] utilizationCountMissions 58
scalar OsgEarthNet.uav[41] utilizationCountManeuversMission 959
scalar OsgEarthNet.uav[41] utilizationCountManeuversMaintenance 116
scalar OsgEarthNet.uav[41] utilizationCountChargeState 58
scalar OsgEarthNet.uav[41] utilizationCountOverdrawnAfterMission 0
scalar OsgEarthNet.uav[41] utilizationCountIdleState 55
scalar OsgEarthNet.uav[41] utilizationFail 0
scalar OsgEarthNet.uav[41] simulationTime 259200
scalar OsgEarthNet.uav[42] utilizationSecMission 35053.903852433
scalar OsgEarthNet.uav[42] utilizationSecMaintenance 13375.527653695
scalar OsgEarthNet.uav[42] utilizationSecCharge 176060.93641321
scalar OsgEarthNet.uav[42] utilizationSecIdle 34709.631080665
scalar OsgEarthNet.uav[42] utilizationEnergyMission 167636.80044556
scalar OsgEarthNet.uav[42] utilizationEnergyMaintenance 61350.698692322
scalar OsgEarthNet.uav[42] utilizationEnergyCharge 229044.7019043
scalar OsgEarthNet.uav[42] utilizationEnergyOverdrawMission 0
scalar OsgEarthNet.uav[42] utilizationEnergyOverdrawMaintenance 0
scalar OsgEarthNet.uav[42] utilizationCountMissions 50
scalar OsgEarthNet.uav[42] utilizationCountManeuversMission 1063
scalar OsgEarthNet.uav[42] utilizationCountManeuversMaintenance 100
scalar OsgEarthNet.uav[42] utilizationCountChargeState 50
scalar OsgEarthNet.uav[42] utilizationCountOverdrawnAfterMission 0
scalar OsgEarthNet.uav[42] utilizationCountIdleState 50
scalar OsgEarthNet.uav[42] utilizationFail 0
scalar OsgEarthNet.uav[42] simulationTime 259200
scalar OsgEarthNet.uav[43] utilizationSecMission 34304.745623176
scalar OsgEarthNet.uav[43] utilizationSecMaintenance 20950.972630513
scalar OsgEarthNet.uav[43] utilizationSecCharge 196082.14093317
scalar OsgEarthNet.uav[43] utilizationSecIdle 7862.1398131443
scalar OsgEarthNet.uav[43] utilizationEnergyMission 168151.80518341
scalar OsgEarthNet.uav[43] utilizationEnergyMaintenance 99129.596725464
scalar OsgEarthNet.uav[43] utilizationEnergyCharge 263001.85528564
scalar OsgEarthNet.uav[43] utilizationEnergyOverdrawMission 0
scalar OsgEarthNet.uav[43] utilizationEnergyOverdrawMaintenance 0
scalar OsgEarthNet.uav[43] utilizationCountMissions 59
scalar OsgEarthNet.uav[43] utilizationCountManeuversMission 1095
scalar OsgEarthNet.uav[43] utilizationCountManeuversMaintenance 118
scalar OsgEarthNet.uav[43] utilizationCountChargeState 59
scalar OsgEarthNet.uav[43] utilizationCountOverdrawnAfterMission 0
scalar OsgEarthNet.uav[43] utilizationCountIdleState 23
scalar OsgEarthNet.uav[43] utilizationFail 0
scalar OsgEarthNet.uav[43] simulationTime 259200
scalar OsgEarthNet.uav[44] utilizationSecMission 32326.844957592
scalar OsgEarthNet.uav[44] utilizationSecMaintenance 16991.151042408
scalar OsgEarthNet.uav[44] utilizationSecCharge 184400
scalar OsgEarthNet.uav[44] utilizationSecIdle 25482.003
scalar OsgEarthNet.uav[44] utilizationEnergyMission 152518.7026329
scalar OsgEarthNet.uav[44] utilizationEnergyMaintenance 80736.783073734
scalar OsgEarthNet.uav[44] utilizationEnergyCharge 230138.09570312
scalar OsgEarthNet.uav[44] utilizationEnergyOverdrawMission 0
scalar OsgEarthNet.uav[44] utilizationEnergyOverdrawMaintenance 0
scalar OsgEarthNet.uav[44] utilizationCountMissions 58
scalar OsgEarthNet.uav[44] utilizationCountManeuversMission 864
scalar OsgEarthNet.uav[44] utilizationCountManeuversMaintenance 116
scalar OsgEarthNet.uav[44] utilizationCountChargeState 57
scalar OsgEarthNet.uav[44] utilizationCountOverdrawnAfterMission 0
scalar OsgEarthNet.uav[44] utilizationCountIdleState 57
scalar OsgEarthNet.uav[44] utilizationFail 0
scalar OsgEarthNet.uav[44] simulationTime 259200
scalar OsgEarthNet.uav[45] utilizationSecMission 32839.512894334
scalar OsgEarthNet.uav[45] utilizationSecMaintenance 15452.876429053
scalar OsgEarthNet.uav[45] utilizationSecCharge 179505.60667661
scalar OsgEarthNet.uav[45] utilizationSecIdle 31402.003
scalar OsgEarthNet.uav[45] utilizationEnergyMission 160702.59227753
scalar OsgEarthNet.uav[45] utilizationEnergyMaintenance 71928.401096344
scalar OsgEarthNet.uav[45] utilizationEnergyCharge 232318.68408203
scalar OsgEarthNet.uav[45] utilizationEnergyOverdrawMission 0
scalar OsgEarthNet.uav[45] utilizationEnergyOverdrawMaintenance 0
scalar OsgEarthNet.uav[45] utilizationCountMissions 51
scalar OsgEarthNet.uav[45] utilizationCountManeuversMission 1190
scalar OsgEarthNet.uav[45] utilizationCountManeuversMaintenance 102
scalar OsgEarthNet.uav[45] utilizationCountChargeState 51
scalar OsgEarthNet.uav[45] utilizationCountOverdrawnAfterMission 0
scalar OsgEarthNet.uav[45] utilizationCountIdleState 50
scalar OsgEarthNet.uav[45] utilizationFail 0
scalar OsgEarthNet.uav[45] simulationTime 259200
scalar OsgEarthNet.uav[46] utilizationSecMission 34807.82559421
scalar OsgEarthNet.uav[46] utilizationSecMaintenance 13420.17340579
scalar OsgEarthNet.uav[46] utilizationSecCharge 177250
scalar OsgEarthNet.uav[46] utilizationSecIdle 33722
scalar OsgEarthNet.uav[46] utilizationEnergyMission 167411.39450959
scalar OsgEarthNet.uav[46] utilizationEnergyMaintenance 61119.451961517
scalar OsgEarthNet.uav[46] utilizationEnergyCharge 229048.34521484
scalar OsgEarthNet.uav[46] utilizationEnergyOverdrawMission 0
scalar OsgEarthNet.uav[46] utilizationEnergyOverdrawMaintenance 0
scalar OsgEarthNet.uav[46] utilizationCountMissions 50
scalar OsgEarthNet.uav[46] utilizationCountManeuversMission 1016
scalar OsgEarthNet.uav[46] utilizationCountManeuversMaintenance 100
scalar OsgEarthNet.uav[46] utilizationCountChargeState 50
scalar OsgEarthNet.uav[46] utilizationCountOverdrawnAfterMission 0
scalar OsgEarthNet.uav[46] utilizationCountIdleState 51
scalar OsgEarthNet.uav[46] utilizationFail 0
scalar OsgEarthNet.uav[46] simulationTime 259200
scalar OsgEarthNet.uav[47] utilizationSecMission 32264.511499815
scalar OsgEarthNet.uav[47] utilizationSecMaintenance 17343.304481588
scalar OsgEarthNet.uav[47] utilizationSecCharge 186554.37740854
scalar OsgEarthNet.uav[47] utilizationSecIdle 23037.80561006
scalar OsgEarthNet.uav[47] utilizationEnergyMission 154068.53874588
scalar OsgEarthNet.uav[47] utilizationEnergyMaintenance 82667.071220398
scalar OsgEarthNet.uav[47] utilizationEnergyCharge 236653.17236328
scalar OsgEarthNet.uav[47] utilizationEnergyOverdrawMission 0
scalar OsgEarthNet.uav[47] utilizationEnergyOverdrawMaintenance 0
scalar OsgEarthNet.uav[47] utilizationCountMissions 56
scalar OsgEarthNet.uav[47] utilizationCountManeuversMission 938
scalar OsgEarthNet.uav[47] utilizationCountManeuversMaintenance 112
scalar OsgEarthNet.uav[47] utilizationCountChargeState 56
scalar OsgEarthNet.uav[47] utilizationCountOverdrawnAfterMission 0
scalar OsgEarthNet.uav[47] utilizationCountIdleState 53
scalar OsgEarthNet.uav[47] utilizationFail 0
scalar OsgEarthNet.uav[47] simulationTime 259200
scalar OsgEarthNet.uav[48] utilizationSecMission 33226.541495662
scalar OsgEarthNet.uav[48] utilizationSecMaintenance 15274.635826876
scalar OsgEarthNet.uav[48] utilizationSecCharge 180859.60206355
scalar OsgEarthNet.uav[48] utilizationSecIdle 29839.219613916
scalar OsgEarthNet.uav[48] utilizationEnergyMission 162720.46961212
scalar OsgEarthNet.uav[48] utilizationEnergyMaintenance 71013.118488312
scalar OsgEarthNet.uav[48] utilizationEnergyCharge 234923.38916016
scalar OsgEarthNet.uav[48] utilizationEnergyOverdrawMission 0
scalar OsgEarthNet.uav[48] utilizationEnergyOverdrawMaintenance 0
scalar OsgEarthNet.uav[48] utilizationCountMissions 51
scalar OsgEarthNet.uav[48] utilizationCountManeuversMission 1067
scalar OsgEarthNet.uav[48] utilizationCountManeuversMaintenance 102
scalar OsgEarthNet.uav[48] utilizationCountChargeState 51
scalar OsgEarthNet.uav[48] utilizationCountOverdrawnAfterMission 0
scalar OsgEarthNet.uav[48] utilizationCountIdleState 51
scalar OsgEarthNet.uav[48] utilizationFail 0
scalar OsgEarthNet.uav[48] simulationTime 259200
scalar OsgEarthNet.uav[49] utilizationSecMission 32050.627593865
scalar OsgEarthNet.uav[49] utilizationSecMaintenance 22425.465961298
scalar OsgEarthNet.uav[49] utilizationSecCharge 196381.89544484
scalar OsgEarthNet.uav[49] utilizationSecIdle 8342.01
scalar OsgEarthNet.uav[49] utilizationEnergyMission 158612.93771744
scalar OsgEarthNet.uav[49] utilizationEnergyMaintenance 106535.28168106
scalar OsgEarthNet.uav[49] utilizationEnergyCharge 267094.25341797
scalar OsgEarthNet.uav[49] utilizationEnergyOverdrawMission 0
scalar OsgEarthNet.uav[49] utilizationEnergyOverdrawMaintenance 0
scalar OsgEarthNet.uav[49] utilizationCountMissions 59
scalar OsgEarthNet.uav[49] utilizationCountManeuversMission 1160
scalar OsgEarthNet.uav[49] utilizationCountManeuversMaintenance 118
scalar OsgEarthNet.uav[49] utilizationCountChargeState 59
scalar OsgEarthNet.uav[49] utilizationCountOverdrawnAfterMission 0
scalar OsgEarthNet.uav[49] utilizationCountIdleState 18
scalar OsgEarthNet.uav[49] utilizationFail 0
scalar OsgEarthNet.uav[49] simulationTime 259200
scalar OsgEarthNet.uav[50] utilizationSecMission 33792.343805051
scalar OsgEarthNet.uav[50] utilizationSecMaintenance 14398.159722174
scalar OsgEarthNet.uav[50] utilizationSecCharge 178060
scalar OsgEarthNet.uav[50] utilizationSecIdle 32949.495472776
scalar OsgEarthNet.uav[50] utilizationEnergyMission 165783.58621216
scalar OsgEarthNet.uav[50] utilizationEnergyMaintenance 66692.498207092
scalar OsgEarthNet.uav[50] utilizationEnergyCharge 230780.72900391
scalar OsgEarthNet.uav[50] utilizationEnergyOverdrawMission 0
scalar OsgEarthNet.uav[50] utilizationEnergyOverdrawMaintenance 0
scalar OsgEarthNet.uav[50] utilizationCountMissions 50
scalar OsgEarthNet.uav[50] utilizationCountManeuversMission 1124
scalar OsgEarthNet.uav[50] utilizationCountManeuversMaintenance 100
scalar OsgEarthNet.uav[50] utilizationCountChargeState 50
scalar OsgEarthNet.uav[50] utilizationCountOverdrawnAfterMission 0
scalar OsgEarthNet.uav[50] utilizationCountIdleState 51
scalar OsgEarthNet.uav[50] utilizationFail 0
scalar OsgEarthNet.uav[50] simulationTime 259200
scalar OsgEarthNet.uav[51] utilizationSecMission 30315.479815813
scalar OsgEarthNet.uav[51] utilizationSecMaintenance 18393.497736306
scalar OsgEarthNet.uav[51] utilizationSecCharge 186269.01889945
scalar OsgEarthNet.uav[51] utilizationSecIdle 24222.002548427
scalar OsgEarthNet.uav[51] utilizationEnergyMission 147873.58162689
scalar OsgEarthNet.uav[51] utilizationEnergyMaintenance 87396.052391052
scalar OsgEarthNet.uav[51] utilizationEnergyCharge 234341.38671875
scalar OsgEarthNet.uav[51] utilizationEnergyOverdrawMission 0
scalar OsgEarthNet.uav[51] utilizationEnergyOverdrawMaintenance 0
scalar OsgEarthNet.uav[51] utilizationCountMissions 57
scalar OsgEarthNet.uav[51] utilizationCountManeuversMission 969
scalar OsgEarthNet.uav[51] utilizationCountManeuversMaintenance 114
scalar OsgEarthNet.uav[51] utilizationCountChargeState 57
scalar OsgEarthNet.uav[51] utilizationCountOverdrawnAfterMission 0
scalar OsgEarthNet.uav[51] utilizationCountIdleState 55
scalar OsgEarthNet.uav[51] utilizationFail 0
scalar OsgEarthNet.uav[51] simulationTime 259200
scalar OsgEarthNet.uav[52] utilizationSecMission 34188.043264993
scalar OsgEarthNet.uav[52] utilizationSecMaintenance 13561.833268744
scalar OsgEarthNet.uav[52] utilizationSecCharge 176646.59713503
scalar OsgEarthNet.uav[52] utilizationSecIdle 34803.525331232
scalar OsgEarthNet.uav[52] utilizationEnergyMission 165203.47909164
scalar OsgEarthNet.uav[52] utilizationEnergyMaintenance 62415.602989197
scalar OsgEarthNet.uav[52] utilizationEnergyCharge 230002.28417969
scalar OsgEarthNet.uav[52] utilizationEnergyOverdrawMission 0
scalar OsgEarthNet.uav[52] utilizationEnergyOverdrawMaintenance 0
scalar OsgEarthNet.uav[52] utilizationCountMissions 50
scalar OsgEarthNet.uav[52] utilizationCountManeuversMission 1120
scalar OsgEarthNet.uav[52] utilizationCountManeuversMaintenance 100
scalar OsgEarthNet.uav[52] utilizationCountChargeState 50
scalar OsgEarthNet.uav[52] utilizationCountOverdrawnAfterMission 0
scalar OsgEarthNet.uav[52] utilizationCountIdleState 50
scalar OsgEarthNet.uav[52] utilizationFail 0
scalar OsgEarthNet.uav[52] simulationTime 259200
scalar OsgEarthNet.uav[53] utilizationSecMission 35077.613347327
scalar OsgEarthNet.uav[53] utilizationSecMaintenance 19120.639355374
scalar OsgEarthNet.uav[53] utilizationSecCharge 193679.7392973
scalar OsgEarthNet.uav[53] utilizationSecIdle 11322.007
scalar OsgEarthNet.uav[53] utilizationEnergyMission 168349.04736328
scalar OsgEarthNet.uav[53] utilizationEnergyMaintenance 90540.1067276
scalar OsgEarthNet.uav[53] utilizationEnergyCharge 257510.10986328
scalar OsgEarthNet.uav[53] utilizationEnergyOverdrawMission 0
scalar OsgEarthNet.uav[53] utilizationEnergyOverdrawMaintenance 0
scalar OsgEarthNet.uav[53] utilizationCountMissions 58
scalar OsgEarthNet.uav[53] utilizationCountManeuversMission 1008
scalar OsgEarthNet.uav[53] utilizationCountManeuversMaintenance 116
scalar OsgEarthNet.uav[53] utilizationCountChargeState 58
scalar OsgEarthNet.uav[53] utilizationCountOverdrawnAfterMission 0
scalar OsgEarthNet.uav[53] utilizationCountIdleState 30
scalar OsgEarthNet.uav[53] utilizationFail 0
scalar OsgEarthNet.uav[53] simulationTime 259200
scalar OsgEarthNet.uav[54] utilizationSecMission 32819.802291798
scalar OsgEarthNet.uav[54] utilizationSecMaintenance 17329.232722529
scalar OsgEarthNet.uav[54] utilizationSecCharge 187280
scalar OsgEarthNet.uav[54] utilizationSecIdle 21770.963985674
scalar OsgEarthNet.uav[54] utilizationEnergyMission 153310.63894272
scalar OsgEarthNet.uav[54] utilizationEnergyMaintenance 83150.96906732
scalar OsgEarthNet.uav[54] utilizationEnergyCharge 232693.33325195
scalar OsgEarthNet.uav[54] utilizationEnergyOverdrawMission 0
scalar OsgEarthNet.uav[54] utilizationEnergyOverdrawMaintenance 0
scalar OsgEarthNet.uav[54] utilizationCountMissions 60
scalar OsgEarthNet.uav[54] utilizationCountManeuversMission 734
scalar OsgEarthNet.uav[54] utilizationCountManeuversMaintenance 120
scalar OsgEarthNet.uav[54] utilizationCountChargeState 59
scalar OsgEarthNet.uav[54] utilizationCountOverdrawnAfterMission 0
scalar OsgEarthNet.uav[54] utilizationCountIdleState 55
scalar OsgEarthNet.uav[54] utilizationFail 0
scalar OsgEarthNet.uav[54] simulationTime 259200
scalar OsgEarthNet.uav[55] utilizationSecMission 34734.644421491
scalar OsgEarthNet.uav[55] utilizationSecMaintenance 13711.912255984
scalar OsgEarthNet.uav[55] utilizationSecCharge 178870
scalar OsgEarthNet.uav[55] utilizationSecIdle 31883.442322525
scalar OsgEarthNet.uav[55] utilizationEnergyMission 170230.9386673
scalar OsgEarthNet.uav[55] utilizationEnergyMaintenance 62998.146064758
scalar OsgEarthNet.uav[55] utilizationEnergyCharge 233145.51123047
scalar OsgEarthNet.uav[55] utilizationEnergyOverdrawMission 0
scalar OsgEarthNet.uav[55] utilizationEnergyOverdrawMaintenance 0
scalar OsgEarthNet.uav[55] utilizationCountMissions 50
scalar OsgEarthNet.uav[55] utilizationCountManeuversMission 1086
scalar OsgEarthNet.uav[55] utilizationCountManeuversMaintenance 100
scalar OsgEarthNet.uav[55] utilizationCountChargeState 50
scalar OsgEarthNet.uav[55] utilizationCountOverdrawnAfterMission 0
scalar OsgEarthNet.uav[55] utilizationCountIdleState 50
scalar OsgEarthNet.uav[55] utilizationFail 0
scalar OsgEarthNet.uav[55] simulationTime 259200
scalar OsgEarthNet.uav[56] utilizationSecMission 35111.829896678
scalar OsgEarthNet.uav[56] utilizationSecMaintenance 14183.007378296
scalar OsgEarthNet.uav[56] utilizationSecCharge 178343.16172503
scalar OsgEarthNet.uav[56] utilizationSecIdle 31562
scalar OsgEarthNet.uav[56] utilizationEnergyMission 169692.75115967
scalar OsgEarthNet.uav[56] utilizationEnergyMaintenance 64478.634792328
scalar OsgEarthNet.uav[56] utilizationEnergyCharge 232712.96606445
scalar OsgEarthNet.uav[56] utilizationEnergyOverdrawMission 0
scalar OsgEarthNet.uav[56] utilizationEnergyOverdrawMaintenance 0
scalar OsgEarthNet.uav[56] utilizationCountMissions 51
scalar OsgEarthNet.uav[56] utilizationCountManeuversMission 1072
scalar OsgEarthNet.uav[56] utilizationCountManeuversMaintenance 101
scalar OsgEarthNet.uav[56] utilizationCountChargeState 51
scalar OsgEarthNet.uav[56] utilizationCountOverdrawnAfterMission 0
scalar OsgEarthNet.uav[56] utilizationCountIdleState 50
scalar OsgEarthNet.uav[56] utilizationFail 0
scalar OsgEarthNet.uav[56] simulationTime 259200
scalar OsgEarthNet.uav[57] utilizationSecMission 32097.536569941
scalar OsgEarthNet.uav[57] utilizationSecMaintenance 16672.414920322
scalar OsgEarthNet.uav[57] utilizationSecCharge 185528.04350974
scalar OsgEarthNet.uav[57] utilizationSecIdle 24902.004
scalar OsgEarthNet.uav[57] utilizationEnergyMission 153639.28936005
scalar OsgEarthNet.uav[57] utilizationEnergyMaintenance 79085.844890594
scalar OsgEarthNet.uav[57] utilizationEnergyCharge 231733.31811523
scalar OsgEarthNet.uav[57] utilizationEnergyOverdrawMission 0
scalar OsgEarthNet.uav[57] utilizationEnergyOverdrawMaintenance 0
scalar OsgEarthNet.uav[57] utilizationCountMissions 57
scalar OsgEarthNet.uav[57] utilizationCountManeuversMission 851
scalar OsgEarthNet.uav[57] utilizationCountManeuversMaintenance 114
scalar OsgEarthNet.uav[57] utilizationCountChargeState 57
scalar OsgEarthNet.uav[57] utilizationCountOverdrawnAfterMission 0
scalar OsgEarthNet.uav[57] utilizationCountIdleState 56
scalar OsgEarthNet.uav[57] utilizationFail 0
scalar OsgEarthNet.uav[57] simulationTime 259200
scalar OsgEarthNet.uav[58] utilizationSecMission 34542.87039471
scalar OsgEarthNet.uav[58] utilizationSecMaintenance 14208.117647461
scalar OsgEarthNet.uav[58] utilizationSecCharge 178117.55799589
scalar OsgEarthNet.uav[58] utilizationSecIdle 32331.452961934
scalar OsgEarthNet.uav[58] utilizationEnergyMission 168627.66849136
scalar OsgEarthNet.uav[58] utilizationEnergyMaintenance 64142.952865601
scalar OsgEarthNet.uav[58] utilizationEnergyCharge 230961.37670898
scalar OsgEarthNet.uav[58] utilizationEnergyOverdrawMission 0
scalar OsgEarthNet.uav[58] utilizationEnergyOverdrawMaintenance 0
scalar OsgEarthNet.uav[58] utilizationCountMissions 51
scalar OsgEarthNet.uav[58] utilizationCountManeuversMission 1100
scalar OsgEarthNet.uav[58] utilizationCountManeuversMaintenance 102
scalar OsgEarthNet.uav[58] utilizationCountChargeState 51
scalar OsgEarthNet.uav[58] utilizationCountOverdrawnAfterMission 0
scalar OsgEarthNet.uav[58] utilizationCountIdleState 50
scalar OsgEarthNet.uav[58] utilizationFail 0
scalar OsgEarthNet.uav[58] simulationTime 259200
scalar OsgEarthNet.uav[59] utilizationSecMission 34685.370775757
scalar OsgEarthNet.uav[59] utilizationSecMaintenance 20582.622224243
scalar OsgEarthNet.uav[59] utilizationSecCharge 194440
scalar OsgEarthNet.uav[59] utilizationSecIdle 9492.006
scalar OsgEarthNet.uav[59] utilizationEnergyMission 166078.84898376
scalar OsgEarthNet.uav[59] utilizationEnergyMaintenance 96912.682312164
scalar OsgEarthNet.uav[59] utilizationEnergyCharge 259184.75097656
scalar OsgEarthNet.uav[59] utilizationEnergyOverdrawMission 0
scalar OsgEarthNet.uav[59] utilizationEnergyOverdrawMaintenance 0
scalar OsgEarthNet.uav[59] utilizationCountMissions 59
scalar OsgEarthNet.uav[59] utilizationCountManeuversMission 1088
scalar OsgEarthNet.uav[59] utilizationCountManeuversMaintenance 118
scalar OsgEarthNet.uav[59] utilizationCountChargeState 58
scalar OsgEarthNet.uav[59] utilizationCountOverdrawnAfterMission 0
scalar OsgEarthNet.uav[59] utilizationCountIdleState 27
scalar OsgEarthNet.uav[59] utilizationFail 0
scalar OsgEarthNet.uav[59] simulationTime 259200
scalar OsgEarthNet.uav[60] utilizationSecMission 34508.663608124
scalar OsgEarthNet.uav[60] utilizationSecMaintenance 20109.331391876
scalar OsgEarthNet.uav[60] utilizationSecCharge 194430
scalar OsgEarthNet.uav[60] utilizationSecIdle 10152.004
scalar OsgEarthNet.uav[60] utilizationEnergyMission 165548.66463196
scalar OsgEarthNet.uav[60] utilizationEnergyMaintenance 95982.375633239
scalar OsgEarthNet.uav[60] utilizationEnergyCharge 262174.59716797
scalar OsgEarthNet.uav[60] utilizationEnergyOverdrawMission 0
scalar OsgEarthNet.uav[60] utilizationEnergyOverdrawMaintenance 0
scalar OsgEarthNet.uav[60] utilizationCountMissions 58
scalar OsgEarthNet.uav[60] utilizationCountManeuversMission 1053
scalar OsgEarthNet.uav[60] utilizationCountManeuversMaintenance 117
scalar OsgEarthNet.uav[60] utilizationCountChargeState 58
scalar OsgEarthNet.uav[60] utilizationCountOverdrawnAfterMission 0
scalar OsgEarthNet.uav[60] utilizationCountIdleState 31
scalar OsgEarthNet.uav[60] utilizationFail 0
scalar OsgEarthNet.uav[60] simulationTime 259200
scalar OsgEarthNet.uav[61] utilizationSecMission 30698.325850884
scalar OsgEarthNet.uav[61] utilizationSecMaintenance 18426.478003685
scalar OsgEarthNet.uav[61] utilizationSecCharge 185921.39222892
scalar OsgEarthNet.uav[61] utilizationSecIdle 24153.802916509
scalar OsgEarthNet.uav[61] utilizationEnergyMission 148364.48077393
scalar OsgEarthNet.uav[61] utilizationEnergyMaintenance 87478.38980484
scalar OsgEarthNet.uav[61] utilizationEnergyCharge 233074.13720703
scalar OsgEarthNet.uav[61] utilizationEnergyOverdrawMission 0
scalar OsgEarthNet.uav[61] utilizationEnergyOverdrawMaintenance 0
scalar OsgEarthNet.uav[61] utilizationCountMissions 58
scalar OsgEarthNet.uav[61] utilizationCountManeuversMission 961
scalar OsgEarthNet.uav[61] utilizationCountManeuversMaintenance 116
scalar OsgEarthNet.uav[61] utilizationCountChargeState 58
scalar OsgEarthNet.uav[61] utilizationCountOverdrawnAfterMission 0
scalar OsgEarthNet.uav[61] utilizationCountIdleState 55
scalar OsgEarthNet.uav[61] utilizationFail 0
scalar OsgEarthNet.uav[61] simulationTime 259200
scalar OsgEarthNet.uav[62] utilizationSecMission 34987.203498064
scalar OsgEarthNet.uav[62] utilizationSecMaintenance 13813.620391525
scalar OsgEarthNet.uav[62] utilizationSecCharge 177620
scalar OsgEarthNet.uav[62] utilizationSecIdle 32779.175110411
scalar OsgEarthNet.uav[62] utilizationEnergyMission 170956.38431565
scalar OsgEarthNet.uav[62] utilizationEnergyMaintenance 63593.471809387
scalar OsgEarthNet.uav[62] utilizationEnergyCharge 230449.44775391
scalar OsgEarthNet.uav[62] utilizationEnergyOverdrawMission 0
scalar OsgEarthNet.uav[62] utilizationEnergyOverdrawMaintenance 0
scalar OsgEarthNet.uav[62] utilizationCountMissions 50
scalar OsgEarthNet.uav[62] utilizationCountManeuversMission 1040
scalar OsgEarthNet.uav[62] utilizationCountManeuversMaintenance 101
scalar OsgEarthNet.uav[62] utilizationCountChargeState 50
scalar OsgEarthNet.uav[62] utilizationCountOverdrawnAfterMission 0
scalar OsgEarthNet.uav[62] utilizationCountIdleState 50
scalar OsgEarthNet.uav[62] utilizationFail 0
scalar OsgEarthNet.uav[62] simulationTime 259200
scalar OsgEarthNet.uav[63] utilizationSecMission 35864.030344664
scalar OsgEarthNet.uav[63] utilizationSecMaintenance 13158.853548584
scalar OsgEarthNet.uav[63] utilizationSecCharge 176844.9703668
scalar OsgEarthNet.uav[63] utilizationSecIdle 33332.144739949
scalar OsgEarthNet.uav[63] utilizationEnergyMission 172622.69072342
scalar OsgEarthNet.uav[63] utilizationEnergyMaintenance 61532.428287506
scalar OsgEarthNet.uav[63] utilizationEnergyCharge 230650.84521484
scalar OsgEarthNet.uav[63] utilizationEnergyOverdrawMission 0
scalar OsgEarthNet.uav[63] utilizationEnergyOverdrawMaintenance 0
scalar OsgEarthNet.uav[63] utilizationCountMissions 50
scalar OsgEarthNet.uav[63] utilizationCountManeuversMission 974
scalar OsgEarthNet.uav[63] utilizationCountManeuversMaintenance 100
scalar OsgEarthNet.uav[63] utilizationCountChargeState 50
scalar OsgEarthNet.uav[63] utilizationCountOverdrawnAfterMission 0
scalar OsgEarthNet.uav[63] utilizationCountIdleState 50
scalar OsgEarthNet.uav[63] utilizationFail 0
scalar OsgEarthNet.uav[63] simulationTime 259200
scalar OsgEarthNet.uav[64] utilizationSecMission 34212.024737557
scalar OsgEarthNet.uav[64] utilizationSecMaintenance 14660.106344465
scalar OsgEarthNet.uav[64] utilizationSecCharge 179222.42582929
scalar OsgEarthNet.uav[64] utilizationSecIdle 31105.442088691
scalar OsgEarthNet.uav[64] utilizationEnergyMission 169090.32107544
scalar OsgEarthNet.uav[64] utilizationEnergyMaintenance 67895.792881012
scalar OsgEarthNet.uav[64] utilizationEnergyCharge 232937.27832031
scalar OsgEarthNet.uav[64] utilizationEnergyOverdrawMission 0
scalar OsgEarthNet.uav[64] utilizationEnergyOverdrawMaintenance 0
scalar OsgEarthNet.uav[64] utilizationCountMissions 51
scalar OsgEarthNet.uav[64] utilizationCountManeuversMission 1171
scalar OsgEarthNet.uav[64] utilizationCountManeuversMaintenance 102
scalar OsgEarthNet.uav[64] utilizationCountChargeState 51
scalar OsgEarthNet.uav[64] utilizationCountOverdrawnAfterMission 0
scalar OsgEarthNet.uav[64] utilizationCountIdleState 51
scalar OsgEarthNet.uav[64] utilizationFail 0
scalar OsgEarthNet.uav[64] simulationTime 259200
scalar OsgEarthNet.uav[65] utilizationSecMission 33554.642892379
scalar OsgEarthNet.uav[65] utilizationSecMaintenance 14044.970327639
scalar OsgEarthNet.uav[65] utilizationSecCharge 177560
scalar OsgEarthNet.uav[65] utilizationSecIdle 34040.385779983
scalar OsgEarthNet.uav[65] utilizationEnergyMission 166222.69692612
scalar OsgEarthNet.uav[65] utilizationEnergyMaintenance 64538.475028992
scalar OsgEarthNet.uav[65] utilizationEnergyCharge 229681.41650391
scalar OsgEarthNet.uav[65] utilizationEnergyOverdrawMission 0
scalar OsgEarthNet.uav[65] utilizationEnergyOverdrawMaintenance 0
scalar OsgEarthNet.uav[65] utilizationCountMissions 50
scalar OsgEarthNet.uav[65] utilizationCountManeuversMission 1101
scalar OsgEarthNet.uav[65] utilizationCountManeuversMaintenance 100
scalar OsgEarthNet.uav[65] utilizationCountChargeState 50
scalar OsgEarthNet.uav[65] utilizationCountOverdrawnAfterMission 0
scalar OsgEarthNet.uav[65] utilizationCountIdleState 51
scalar OsgEarthNet.uav[65] utilizationFail 0
scalar OsgEarthNet.uav[65] simulationTime 259200
scalar OsgEarthNet.uav[66] utilizationSecMission 33835.003661927
scalar OsgEarthNet.uav[66] utilizationSecMaintenance 20285.682939425
scalar OsgEarthNet.uav[66] utilizationSecCharge 193007.30039865
scalar OsgEarthNet.uav[66] utilizationSecIdle 12072.012
scalar OsgEarthNet.uav[66] utilizationEnergyMission 162467.82330322
scalar OsgEarthNet.uav[66] utilizationEnergyMaintenance 96565.483940124
scalar OsgEarthNet.uav[66] utilizationEnergyCharge 258579.67724609
scalar OsgEarthNet.uav[66] utilizationEnergyOverdrawMission 0
scalar OsgEarthNet.uav[66] utilizationEnergyOverdrawMaintenance 0
scalar OsgEarthNet.uav[66] utilizationCountMissions 58
scalar OsgEarthNet.uav[66] utilizationCountManeuversMission 1067
scalar OsgEarthNet.uav[66] utilizationCountManeuversMaintenance 116
scalar OsgEarthNet.uav[66] utilizationCountChargeState 58
scalar OsgEarthNet.uav[66] utilizationCountOverdrawnAfterMission 0
scalar OsgEarthNet.uav[66] utilizationCountIdleState 28
scalar OsgEarthNet.uav[66] utilizationFail 0
scalar OsgEarthNet.uav[66] simulationTime 259200
scalar OsgEarthNet.uav[67] utilizationSecMission 30804.923584264
scalar OsgEarthNet.uav[67] utilizationSecMaintenance 18157.076462129
scalar OsgEarthNet.uav[67] utilizationSecCharge 185525.99395361
scalar OsgEarthNet.uav[67] utilizationSecIdle 24712.005
scalar OsgEarthNet.uav[67] utilizationEnergyMission 149355.18084717
scalar OsgEarthNet.uav[67] utilizationEnergyMaintenance 86524.912700653
scalar OsgEarthNet.uav[67] utilizationEnergyCharge 234587.0949707
scalar OsgEarthNet.uav[67] utilizationEnergyOverdrawMission 0
scalar OsgEarthNet.uav[67] utilizationEnergyOverdrawMaintenance 0
scalar OsgEarthNet.uav[67] utilizationCountMissions 57
scalar OsgEarthNet.uav[67] utilizationCountManeuversMission 974
scalar OsgEarthNet.uav[67] utilizationCountManeuversMaintenance 114
scalar OsgEarthNet.uav[67] utilizationCountChargeState 57
scalar OsgEarthNet.uav[67] utilizationCountOverdrawnAfterMission 0
scalar OsgEarthNet.uav[67] utilizationCountIdleState 53
scalar OsgEarthNet.uav[67] utilizationFail 0
scalar OsgEarthNet.uav[67] simulationTime 259200
scalar OsgEarthNet.uav[68] utilizationSecMission 33280.438310778
scalar OsgEarthNet.uav[68] utilizationSecMaintenance 16121.418353612
scalar OsgEarthNet.uav[68] utilizationSecCharge 182826.13933561
scalar OsgEarthNet.uav[68] utilizationSecIdle 26972.003
scalar OsgEarthNet.uav[68] utilizationEnergyMission 160658.90876007
scalar OsgEarthNet.uav[68] utilizationEnergyMaintenance 75456.797851563
scalar OsgEarthNet.uav[68] utilizationEnergyCharge 232879.0090332
scalar OsgEarthNet.uav[68] utilizationEnergyOverdrawMission 0
scalar OsgEarthNet.uav[68] utilizationEnergyOverdrawMaintenance 0
scalar OsgEarthNet.uav[68] utilizationCountMissions 55
scalar OsgEarthNet.uav[68] utilizationCountManeuversMission 1015
scalar OsgEarthNet.uav[68] utilizationCountManeuversMaintenance 110
scalar OsgEarthNet.uav[68] utilizationCountChargeState 55
scalar OsgEarthNet.uav[68] utilizationCountOverdrawnAfterMission 0
scalar OsgEarthNet.uav[68] utilizationCountIdleState 52
scalar OsgEarthNet.uav[68] utilizationFail 0
scalar OsgEarthNet.uav[68] simulationTime 259200
scalar OsgEarthNet.uav[69] utilizationSecMission 33844.745623176
scalar OsgEarthNet.uav[69] utilizationSecMaintenance 20318.79500139
scalar OsgEarthNet.uav[69] utilizationSecCharge 194665.26279933
scalar OsgEarthNet.uav[69] utilizationSecIdle 10371.195576106
scalar OsgEarthNet.uav[69] utilizationEnergyMission 167698.72807312
scalar OsgEarthNet.uav[69] utilizationEnergyMaintenance 95276.171043396
scalar OsgEarthNet.uav[69] utilizationEnergyCharge 261016.85498047
scalar OsgEarthNet.uav[69] utilizationEnergyOverdrawMission 0
scalar OsgEarthNet.uav[69] utilizationEnergyOverdrawMaintenance 0
scalar OsgEarthNet.uav[69] utilizationCountMissions 58
scalar OsgEarthNet.uav[69] utilizationCountManeuversMission 1072
scalar OsgEarthNet.uav[69] utilizationCountManeuversMaintenance 116
scalar OsgEarthNet.uav[69] utilizationCountChargeState 58
scalar OsgEarthNet.uav[69] utilizationCountOverdrawnAfterMission 0
scalar OsgEarthNet.uav[69] utilizationCountIdleState 25
scalar OsgEarthNet.uav[69] utilizationFail 0
scalar OsgEarthNet.uav[69] simulationTime 259200
scalar OsgEarthNet.cs[0] usedPower 4006015.6349648
scalar OsgEarthNet.cs[0] chargedPower 4006015.6349648
scalar OsgEarthNet.cs[0] chargedMobileNodes 364
scalar OsgEarthNet.cs[0] reservations 893
scalar OsgEarthNet.cs[1] usedPower 5701883.077142
scalar OsgEarthNet.cs[1] chargedPower 5701883.077142
scalar OsgEarthNet.cs[1] chargedMobileNodes 1331
scalar OsgEarthNet.cs[1] reservations 1411
scalar OsgEarthNet.cs[2] usedPower 6975155.1912549
scalar OsgEarthNet.cs[2] chargedPower 6975155.1912549
scalar OsgEarthNet.cs[2] chargedMobileNodes 1487
scalar OsgEarthNet.cs[2] reservations 1524

